# generated using pymatgen
data_CuH19C20N3O7
_symmetry_space_group_name_H-M   'P 1'
_cell_length_a   8.70731389
_cell_length_b   11.10655407
_cell_length_c   11.13875911
_cell_angle_alpha   82.79237543
_cell_angle_beta   87.92709484
_cell_angle_gamma   73.62548025
_symmetry_Int_Tables_number   1
_chemical_formula_structural   CuH19C20N3O7
_chemical_formula_sum   'Cu2 H38 C40 N6 O14'
_cell_volume   1025.35048735
_cell_formula_units_Z   2
loop_
 _symmetry_equiv_pos_site_id
 _symmetry_equiv_pos_as_xyz
  1  'x, y, z'
loop_
 _atom_site_type_symbol
 _atom_site_label
 _atom_site_symmetry_multiplicity
 _atom_site_fract_x
 _atom_site_fract_y
 _atom_site_fract_z
 _atom_site_occupancy
 _atom_site_hle17_ddec_charge
 _atom_site_hle17_ddec_spin_density
 _atom_site_hle17_ddec_sum_bond_order
 _atom_site_hle17_magmom
 _atom_site_hse06_10hf_ddec_charge
 _atom_site_hse06_10hf_ddec_spin_density
 _atom_site_hse06_10hf_ddec_sum_bond_order
 _atom_site_hse06_10hf_magmom
 _atom_site_hse06_ddec_charge
 _atom_site_hse06_ddec_spin_density
 _atom_site_hse06_ddec_sum_bond_order
 _atom_site_hse06_magmom
 _atom_site_pbe_cm5_charge
 _atom_site_pbe_ddec_charge
 _atom_site_pbe_ddec_spin_density
 _atom_site_pbe_ddec_sum_bond_order
 _atom_site_pbe_magmom
Cu  Cu0  1  0.42665093  0.98824214  0.15188341  1  0.857853  -0.725697  1.765568  -0.502  0.826993  -0.805793  2.155214  -0.615  0.921886  -0.882131  2.083157  -0.699  0.736327  0.77045  -0.746648  2.205995  -0.556
Cu  Cu1  1  0.57334770  0.01175183  0.84811604  1  0.857842  0.725704  1.76571  0.502  0.827075  0.80579  2.155239  0.615  0.921875  0.882137  2.083346  0.699  0.736371  0.770456  0.746651  2.206134  0.556
H  H2  1  0.28007000  0.84758878  0.00742809  1  0.088395  -0.001106  0.938988  -0.002  0.099821  -0.000887  0.997003  -0.001  0.101205  -0.000657  0.996341  -0.001  0.121885  0.098477  -0.001018  0.997979  -0.001
H  H3  1  0.71992036  0.15240607  0.99257521  1  0.088446  0.001105  0.939048  0.002  0.099875  0.000886  0.99708  0.001  0.101252  0.000657  0.996411  0.001  0.121927  0.098517  0.001017  0.998061  0.001
H  H4  1  0.27079996  0.62678812  0.00435894  1  0.111693  -0.000527  0.949981  0.0  0.121807  -0.000528  1.0092  0.0  0.125345  -0.000376  1.007256  0.0  0.111106  0.119128  -0.000536  1.011133  -0.001
H  H5  1  0.72919828  0.37320685  0.99563863  1  0.111717  0.000527  0.949917  0.0  0.121858  0.000529  1.009114  0.0  0.125392  0.000376  1.007175  0.0  0.111143  0.119184  0.000536  1.01105  0.001
H  H6  1  0.58083960  0.52319115  0.31773316  1  0.107462  -0.0006  0.959371  0.0  0.117012  -0.000582  1.021888  0.0  0.119819  -0.000422  1.021087  0.0  0.110776  0.114917  -0.000601  1.022776  -0.001
H  H7  1  0.41914956  0.47680013  0.68226428  1  0.107483  0.000599  0.959425  0.0  0.117036  0.000582  1.021906  0.0  0.119833  0.000422  1.02112  0.0  0.11077  0.114943  0.000601  1.022792  0.001
H  H8  1  0.57744116  0.74961548  0.30593325  1  0.097421  -0.001128  0.930001  -0.002  0.105027  -0.000987  0.992883  -0.001  0.107196  -0.000711  0.99005  -0.001  0.126088  0.103018  -0.00111  0.995544  -0.001
H  H9  1  0.42255538  0.25037468  0.69406848  1  0.097296  0.00113  0.929989  0.002  0.104975  0.000988  0.992824  0.001  0.107141  0.000712  0.989994  0.001  0.126063  0.102967  0.001111  0.995482  0.001
H  H10  1  0.21117952  0.45840649  0.05540226  1  0.115329  -0.000476  0.949649  0.0  0.125128  -0.000474  1.009456  0.0  0.12842  -0.00034  1.008093  0.0  0.109853  0.122648  -0.000473  1.010948  0.0
H  H11  1  0.78881825  0.54158591  0.94458661  1  0.115345  0.000473  0.949645  0.0  0.125147  0.000474  1.009455  0.0  0.128428  0.00034  1.008108  0.0  0.109864  0.122668  0.000473  1.010947  0.0
H  H12  1  0.21759529  0.23369894  0.06702119  1  0.092029  -0.00098  0.943429  -0.002  0.102439  -0.000781  1.004275  -0.001  0.104299  -0.000566  1.002184  -0.001  0.123902  0.100886  -0.000913  1.006076  -0.002
H  H13  1  0.78241172  0.76629403  0.93297801  1  0.092014  0.000981  0.943355  0.002  0.102455  0.000782  1.00422  0.001  0.104309  0.000567  1.002128  0.001  0.123907  0.100901  0.000915  1.006017  0.002
H  H14  1  0.63164973  0.11726388  0.27216980  1  0.098759  -0.000973  0.941448  -0.001  0.108134  -0.000878  0.999941  -0.001  0.110023  -0.000638  0.998344  -0.001  0.126345  0.106376  -0.001005  1.001664  -0.001
H  H15  1  0.36834128  0.88273636  0.72784190  1  0.09889  0.000972  0.94141  0.001  0.108207  0.000877  0.999951  0.001  0.110099  0.000638  0.99835  0.001  0.126358  0.106431  0.001004  1.001695  0.001
H  H16  1  0.64303696  0.33771635  0.27361851  1  0.116731  -0.00061  0.961361  0.0  0.122152  -0.000575  1.028658  0.0  0.12622  -0.000421  1.026258  0.0  0.109904  0.119225  -0.000603  1.030624  -0.001
H  H17  1  0.35695268  0.66228707  0.72638124  1  0.116746  0.00061  0.961248  0.0  0.122131  0.000575  1.028594  0.0  0.1262  0.000421  1.026192  0.0  0.109908  0.119204  0.000603  1.030558  0.001
H  H18  1  0.96537825  0.07670842  0.43033118  1  0.138516  -0.001043  0.962874  -0.001  0.157402  -0.000861  1.022556  -0.001  0.159106  -0.000565  1.022654  -0.001  0.096206  0.156174  -0.001109  1.022542  -0.001
H  H19  1  0.03461441  0.92333211  0.56965294  1  0.138453  0.001042  0.962896  0.001  0.157395  0.000861  1.02256  0.001  0.159099  0.000565  1.022659  0.001  0.096245  0.15617  0.001109  1.02254  0.001
H  H20  1  0.91706043  0.97895614  0.33238381  1  0.142802  9.1e-05  0.978527  0.0  0.159079  -5.9e-05  1.042934  0.0  0.161524  5e-06  1.042057  0.0  0.095695  0.157198  -0.00012  1.043859  0.0
H  H21  1  0.08292331  0.02104577  0.66763701  1  0.142733  -9.2e-05  0.978712  0.0  0.159053  5.8e-05  1.043059  0.0  0.161497  -5e-06  1.042186  0.0  0.095694  0.157168  0.00012  1.04399  0.0
H  H22  1  0.93068031  0.13222421  0.27342467  1  0.140036  0.000282  0.955669  0.0  0.156949  -9.8e-05  1.01598  0.0  0.159771  -5.7e-05  1.014106  0.0  0.091587  0.154869  -0.000136  1.017488  0.0
H  H23  1  0.06930370  0.86777354  0.72654537  1  0.139934  -0.000282  0.955912  0.0  0.156902  9.9e-05  1.016169  0.0  0.159725  5.7e-05  1.014295  0.0  0.091585  0.154826  0.000136  1.01767  0.0
H  H24  1  0.00480199  0.91301224  0.12669410  1  0.140178  -0.000295  0.960609  0.0  0.160061  -0.000328  1.019627  0.0  0.16215  -0.000182  1.020227  0.0  0.097733  0.158693  -0.000463  1.01914  0.0
H  H25  1  0.99519340  0.08700207  0.87331775  1  0.140082  0.000297  0.960534  0.0  0.159982  0.000328  1.019568  0.0  0.162052  0.000182  1.020188  0.0  0.097685  0.158629  0.000463  1.019065  0.0
H  H26  1  0.91952586  0.90476825  0.98422659  1  0.144035  0.000165  0.970205  0.0  0.159366  -4.8e-05  1.03411  0.0  0.163607  -4.5e-05  1.031179  0.0  0.093348  0.156412  -4.6e-05  1.036142  0.0
H  H27  1  0.08047980  0.09523945  0.01578372  1  0.14405  -0.000166  0.970251  0.0  0.159364  4.7e-05  1.034165  0.0  0.163607  4.5e-05  1.03123  0.0  0.093305  0.156412  4.6e-05  1.036196  0.0
H  H28  1  0.97086386  0.77044590  0.09711788  1  0.132965  -0.000156  0.950235  0.0  0.151427  -0.000217  1.012345  0.0  0.15359  -0.00013  1.011868  0.0  0.096023  0.150164  -0.000293  1.012427  0.0
H  H29  1  0.02915039  0.22956361  0.90289279  1  0.132941  0.000155  0.950255  0.0  0.151406  0.000218  1.012354  0.0  0.153567  0.00013  1.011875  0.0  0.09597  0.150144  0.000293  1.012437  0.0
H  H30  1  0.97213205  0.20159975  0.61315266  1  0.118381  -2e-05  0.976412  0.0  0.129006  -1.8e-05  1.034766  0.0  0.132211  -8e-06  1.033987  0.0  0.109741  0.126415  -2.5e-05  1.035877  0.0
H  H31  1  0.02786604  0.79840627  0.38685275  1  0.11841  2.1e-05  0.976272  0.0  0.129086  1.8e-05  1.034572  0.0  0.132294  9e-06  1.033792  0.0  0.109774  0.126493  2.5e-05  1.035686  0.0
H  H32  1  0.12375645  0.30971825  0.72096955  1  0.113536  3e-06  0.984308  0.0  0.119816  1.6e-05  1.048503  0.0  0.122704  1.5e-05  1.046152  0.0  0.109397  0.117623  1.8e-05  1.050268  0.0
H  H33  1  0.87624728  0.69028784  0.27903203  1  0.113562  -1e-06  0.98431  0.0  0.119856  -1.6e-05  1.048484  0.0  0.122746  -1.4e-05  1.04613  0.0  0.109404  0.117677  -1.8e-05  1.05023  0.0
H  H34  1  0.78431083  0.66895631  0.60752143  1  0.119766  -2.3e-05  0.924778  0.0  0.13111  -2.3e-05  0.976145  0.0  0.134102  -1.8e-05  0.974285  0.0  0.117463  0.129023  -2.7e-05  0.977301  0.0
H  H35  1  0.21570261  0.33104797  0.39247544  1  0.119752  2.1e-05  0.924823  0.0  0.131098  2.3e-05  0.9762  0.0  0.134089  1.8e-05  0.97434  0.0  0.117487  0.129012  2.7e-05  0.97736  0.0
H  H36  1  0.62250320  0.55864881  0.50529503  1  0.11966  2e-06  0.951564  0.0  0.128847  -8e-06  1.013372  0.0  0.132747  -5e-06  1.011872  0.0  0.106715  0.12605  -1.5e-05  1.014617  0.0
H  H37  1  0.37751369  0.44135480  0.49469188  1  0.119562  -1e-06  0.951675  0.0  0.128757  8e-06  1.013471  0.0  0.132657  4e-06  1.01197  0.0  0.106657  0.125959  1.5e-05  1.01472  0.0
H  H38  1  0.72361081  0.22006704  0.53619321  1  0.407156  1.1e-05  0.874999  0.0  0.381096  2.7e-05  0.948145  0.0  0.392499  1.3e-05  0.935668  0.0  0.304927  0.373155  4.1e-05  0.956611  0.0
H  H39  1  0.27640143  0.77992404  0.46380507  1  0.407306  -1.2e-05  0.874969  0.0  0.381256  -2.7e-05  0.948082  0.0  0.392652  -1.3e-05  0.935611  0.0  0.305043  0.373316  -4.1e-05  0.95655  0.0
C  C40  1  0.34436753  0.77217680  0.07466093  1  0.130754  0.007003  3.688652  0.007  0.101395  0.001193  3.944039  0.002  0.109751  0.00218  3.964278  0.003  0.04797  0.095418  0.000465  3.931781  0.001
C  C41  1  0.65562478  0.22782265  0.92534540  1  0.130589  -0.007014  3.688687  -0.008  0.10121  -0.001191  3.944123  -0.002  0.10958  -0.002181  3.964341  -0.003  0.04785  0.09525  -0.000464  3.931837  -0.001
C  C42  1  0.33963411  0.64831826  0.07441938  1  -0.153171  -0.008128  3.699405  -0.008  -0.169906  -0.003239  3.943528  -0.004  -0.177682  -0.003024  3.965307  -0.003  -0.078522  -0.164925  -0.003407  3.929886  -0.004
C  C43  1  0.66035661  0.35167496  0.92557509  1  -0.153056  0.008134  3.699898  0.008  -0.16983  0.003237  3.944068  0.004  -0.177602  0.003024  3.965845  0.003  -0.078534  -0.164863  0.003405  3.930432  0.004
C  C44  1  0.42692333  0.55348417  0.16142736  1  0.092834  0.00672  3.742473  0.006  0.104042  0.002259  3.970439  0.002  0.107628  0.002535  3.991984  0.003  0.013918  0.101314  0.002064  3.956773  0.002
C  C45  1  0.57307740  0.44651062  0.83857551  1  0.092775  -0.006731  3.742373  -0.006  0.103967  -0.00226  3.970349  -0.002  0.107563  -0.002537  3.991892  -0.003  0.013897  0.101235  -0.002064  3.956691  -0.002
C  C46  1  0.51354089  0.59118283  0.24623402  1  -0.130862  -0.008265  3.690001  -0.008  -0.149507  -0.003428  3.938258  -0.004  -0.155529  -0.003222  3.957295  -0.004  -0.07459  -0.145192  -0.003593  3.925906  -0.004
C  C47  1  0.48645108  0.40880667  0.75375899  1  -0.130985  0.00828  3.689654  0.008  -0.149558  0.003429  3.93788  0.004  -0.155575  0.003225  3.956921  0.004  -0.074536  -0.145243  0.003594  3.925529  0.004
C  C48  1  0.51206371  0.71703576  0.24127475  1  0.136439  0.006465  3.66902  0.007  0.103531  0.00061  3.930735  0.001  0.112947  0.001643  3.947312  0.002  0.053081  0.096843  -0.000246  3.920787  0.0
C  C49  1  0.48793495  0.28295519  0.75873130  1  0.136702  -0.006476  3.66898  -0.007  0.103667  -0.000609  3.930765  -0.001  0.113085  -0.001643  3.947337  -0.002  0.053089  0.096977  0.000246  3.920806  0.0
C  C50  1  0.42723059  0.42011749  0.16400589  1  0.08889  0.006067  3.764742  0.006  0.102911  0.002147  3.993342  0.002  0.107409  0.002378  4.014774  0.002  0.013509  0.099503  0.002018  3.979737  0.002
C  C51  1  0.57275732  0.57988049  0.83598731  1  0.088735  -0.006072  3.764702  -0.006  0.102788  -0.002149  3.993275  -0.002  0.107266  -0.002377  4.014729  -0.002  0.013471  0.099379  -0.002018  3.979676  -0.002
C  C52  1  0.30780211  0.38734207  0.10497317  1  -0.151929  -0.007504  3.685898  -0.008  -0.174506  -0.003076  3.938365  -0.003  -0.182872  -0.002829  3.959527  -0.003  -0.07985  -0.168868  -0.003241  3.924839  -0.004
C  C53  1  0.69220317  0.61265275  0.89502771  1  -0.151989  0.007517  3.685366  0.008  -0.174556  0.003079  3.937887  0.003  -0.182909  0.002829  3.95906  0.003  -0.079898  -0.168918  0.003242  3.924361  0.004
C  C54  1  0.31046838  0.26135577  0.10983519  1  0.14968  0.006525  3.665981  0.007  0.118727  0.00118  3.922259  0.002  0.128613  0.002111  3.940033  0.003  0.051992  0.111828  0.00055  3.911278  0.001
C  C55  1  0.68952494  0.73864016  0.89016249  1  0.149846  -0.006525  3.66612  -0.007  0.118766  -0.00118  3.922515  -0.002  0.128659  -0.002109  3.940272  -0.003  0.052068  0.111877  -0.000549  3.911521  -0.001
C  C56  1  0.54119580  0.19667411  0.22580206  1  0.125537  0.005239  3.6774  0.005  0.100495  0.000237  3.925206  0.001  0.109037  0.0012  3.944163  0.002  0.053383  0.09434  -0.000613  3.913763  0.0
C  C57  1  0.45879137  0.80332351  0.77420378  1  0.125395  -0.005244  3.677181  -0.005  0.100375  -0.000237  3.924996  -0.001  0.108916  -0.001199  3.943941  -0.002  0.0534  0.094227  0.000613  3.913561  0.0
C  C58  1  0.54560676  0.32079907  0.22594791  1  -0.147979  -0.007422  3.679202  -0.008  -0.166442  -0.003211  3.925329  -0.004  -0.173708  -0.003  3.944371  -0.003  -0.076254  -0.161509  -0.003457  3.913232  -0.004
C  C59  1  0.45439284  0.67919934  0.77406003  1  -0.147839  0.007421  3.679774  0.008  -0.166282  0.00321  3.925912  0.004  -0.173543  0.002996  3.944964  0.003  -0.076272  -0.161345  0.003455  3.913806  0.004
C  C60  1  0.15836454  0.99480184  0.31238980  1  0.749843  0.004656  3.814019  0.008  0.717747  0.000205  4.113965  0.003  0.754946  0.000779  4.106376  0.003  0.210192  0.692832  -0.000364  4.118158  0.003
C  C61  1  0.84163709  0.00519978  0.68760424  1  0.749803  -0.004655  3.813896  -0.008  0.717697  -0.000205  4.113892  -0.003  0.754907  -0.00078  4.10628  -0.003  0.210099  0.69278  0.000364  4.118087  -0.003
C  C62  1  0.98235329  0.04964219  0.33859845  1  -0.469249  -0.012395  3.639747  -0.013  -0.545691  -0.007205  3.868168  -0.008  -0.553901  -0.0049  3.870867  -0.005  -0.256551  -0.53963  -0.009116  3.866285  -0.009
C  C63  1  0.01764334  0.95036708  0.66139232  1  -0.468935  0.012391  3.639932  0.013  -0.5455  0.007201  3.868276  0.008  -0.553714  0.004899  3.870978  0.005  -0.256542  -0.539443  0.009112  3.866405  0.009
C  C64  1  0.75871579  0.91067691  0.13924446  1  0.720998  0.003849  3.843404  0.006  0.690965  0.000507  4.139683  0.003  0.727358  0.000912  4.132414  0.003  0.199056  0.666616  0.000146  4.143038  0.003
C  C65  1  0.24129124  0.08932630  0.86075817  1  0.721026  -0.003851  3.843537  -0.006  0.690946  -0.000509  4.1399  -0.003  0.727338  -0.000911  4.132624  -0.003  0.199004  0.666596  -0.000146  4.143249  -0.003
C  C66  1  0.92303130  0.87388558  0.08164772  1  -0.469801  -0.007775  3.644447  -0.008  -0.543302  -0.004735  3.869886  -0.005  -0.551717  -0.003297  3.871644  -0.004  -0.255136  -0.537301  -0.005915  3.867917  -0.006
C  C67  1  0.07697177  0.12612306  0.91836350  1  -0.469773  0.007779  3.644325  0.008  -0.543274  0.004734  3.869792  0.005  -0.551676  0.003298  3.871573  0.004  -0.255032  -0.537289  0.005917  3.867816  0.006
C  C68  1  0.78394735  0.37192646  0.55537593  1  0.36728  4.1e-05  3.801412  0.0  0.352134  2.4e-05  4.072488  0.0  0.368223  1.7e-05  4.087364  0.0  0.09559  0.341284  3e-05  4.061969  0.0
C  C69  1  0.21607178  0.62807784  0.44461889  1  0.367269  -4.1e-05  3.801618  0.0  0.35218  -2.3e-05  4.072617  0.0  0.368267  -2.2e-05  4.087489  0.0  0.095614  0.341335  -3e-05  4.062083  0.0
C  C70  1  0.92810694  0.30315242  0.61443586  1  -0.192437  -1.5e-05  3.713947  0.0  -0.211694  -5e-06  3.964468  0.0  -0.221752  -6e-06  3.985684  0.0  -0.101067  -0.204994  6e-06  3.950457  0.0
C  C71  1  0.07190939  0.69684702  0.38556497  1  -0.192547  1.5e-05  3.713781  0.0  -0.21186  5e-06  3.964285  0.0  -0.221918  8e-06  3.985497  0.0  -0.101111  -0.205158  -6e-06  3.950268  0.0
C  C72  1  0.01348623  0.36413307  0.67511157  1  -0.067323  5e-06  3.764053  0.0  -0.092134  5e-06  4.02084  0.0  -0.087682  2e-06  4.039787  0.0  -0.081065  -0.094795  1.6e-05  4.008045  0.0
C  C73  1  0.98652231  0.63586553  0.32488788  1  -0.06733  -8e-06  3.763958  0.0  -0.092163  -4e-06  4.020753  0.0  -0.087711  -4e-06  4.039699  0.0  -0.081035  -0.094832  -1.6e-05  4.007936  0.0
C  C74  1  0.95891808  0.49526947  0.67424322  1  0.033509  9e-06  3.763436  0.0  0.014655  -2e-06  4.021328  0.0  0.006155  -2e-06  4.047153  0.0  0.059991  0.020021  0.0  4.003932  0.0
C  C75  1  0.04108512  0.50472813  0.32575925  1  0.033569  -8e-06  3.763599  0.0  0.01474  1e-06  4.021494  0.0  0.00624  4e-06  4.04732  0.0  0.060033  0.020099  -0.0  4.004108  0.0
C  C76  1  0.82261696  0.56673605  0.60828821  1  -0.06255  -3.4e-05  3.752648  0.0  -0.087375  -2.7e-05  4.013044  0.0  -0.082805  -2.9e-05  4.032656  0.0  -0.075835  -0.089868  -3.6e-05  3.999245  0.0
C  C77  1  0.17739306  0.43326458  0.39170558  1  -0.062635  3.3e-05  3.752591  0.0  -0.087508  2.9e-05  4.013028  0.0  -0.082938  2.4e-05  4.03264  0.0  -0.07597  -0.090004  3.6e-05  3.999239  0.0
C  C78  1  0.73448796  0.50504776  0.55011216  1  -0.199717  1.3e-05  3.702289  0.0  -0.221105  -1.9e-05  3.964262  0.0  -0.231603  -9e-06  3.985211  0.0  -0.105891  -0.214134  -2.2e-05  3.949947  0.0
C  C79  1  0.26553009  0.49495285  0.44988040  1  -0.199495  -1.2e-05  3.701983  0.0  -0.220867  1.7e-05  3.963908  0.0  -0.231364  1.3e-05  3.984858  0.0  -0.105724  -0.213893  2.1e-05  3.949589  0.0
N  N80  1  0.42985017  0.80626385  0.15593592  1  -0.283703  -0.074373  3.322119  -0.091  -0.233078  -0.052004  3.614749  -0.068  -0.262032  -0.043984  3.635599  -0.06  -0.341302  -0.21535  -0.05715  3.603199  -0.072
N  N81  1  0.57014047  0.19372647  0.84406155  1  -0.283718  0.074373  3.32196  0.091  -0.233078  0.052002  3.614624  0.068  -0.262007  0.043984  3.635469  0.06  -0.341266  -0.21533  0.057147  3.603065  0.072
N  N82  1  0.42596757  0.16705475  0.16804103  1  -0.290103  -0.071873  3.319656  -0.087  -0.240858  -0.050982  3.611973  -0.066  -0.269698  -0.043299  3.631615  -0.059  -0.3419  -0.222978  -0.056153  3.601135  -0.07
N  N83  1  0.57403490  0.83293885  0.83196998  1  -0.290162  0.071876  3.319604  0.087  -0.240836  0.050984  3.611886  0.066  -0.269653  0.043298  3.631531  0.059  -0.34192  -0.222938  0.056155  3.601039  0.07
N  N84  1  0.04170728  0.55598925  0.74660358  1  0.458389  2.4e-05  3.978867  0.0  0.518451  2.1e-05  4.238803  0.0  0.540544  2.8e-05  4.246671  0.0  0.039071  0.503772  4e-06  4.233274  0.0
N  N85  1  0.95830478  0.44400629  0.25340323  1  0.458525  -2.4e-05  3.978527  0.0  0.518542  -1.9e-05  4.238519  0.0  0.540634  -2.8e-05  4.246388  0.0  0.039243  0.503862  -4e-06  4.232997  0.0
O  O86  1  0.20248145  0.03335535  0.20564538  1  -0.612301  -0.116405  2.06304  -0.149  -0.591798  -0.072624  2.353762  -0.103  -0.639192  -0.056196  2.347275  -0.084  -0.328389  -0.561186  -0.08332  2.358666  -0.113
O  O87  1  0.79750427  0.96664189  0.79434170  1  -0.612225  0.116395  2.062943  0.149  -0.591795  0.07262  2.353754  0.103  -0.639153  0.05619  2.34723  0.084  -0.328325  -0.561167  0.083313  2.358671  0.113
O  O88  1  0.25132131  0.91810991  0.38891068  1  -0.657042  -0.000324  1.934408  -0.002  -0.616484  0.000217  2.153944  -0.001  -0.642664  0.000839  2.143151  0.0  -0.333677  -0.598774  -0.00041  2.160962  -0.002
O  O89  1  0.74866644  0.08189913  0.61109037  1  -0.657073  0.000323  1.934391  0.002  -0.616489  -0.000216  2.153936  0.001  -0.642678  -0.000838  2.143129  0.0  -0.3337  -0.598774  0.000409  2.160951  0.002
O  O90  1  0.63836788  0.95816529  0.06540717  1  -0.648701  -0.093684  2.10892  -0.119  -0.626599  -0.060257  2.412724  -0.084  -0.673165  -0.047534  2.404906  -0.069  -0.336603  -0.595785  -0.069576  2.419131  -0.093
O  O91  1  0.36163421  0.04182268  0.93460354  1  -0.648759  0.093699  2.108841  0.119  -0.626647  0.060265  2.412628  0.084  -0.673211  0.047538  2.404827  0.069  -0.336651  -0.595826  0.069587  2.419047  0.093
O  O92  1  0.74144054  0.89457193  0.25165842  1  -0.6298  0.000749  1.902343  0.0  -0.588955  0.000734  2.122079  0.0  -0.612724  0.001135  2.110762  0.001  -0.323431  -0.571983  0.000424  2.129088  0.0
O  O93  1  0.25855724  0.10542178  0.74835007  1  -0.629705  -0.000749  1.902652  0.0  -0.588849  -0.000732  2.122404  0.0  -0.612609  -0.001136  2.111082  -0.001  -0.323284  -0.571871  -0.000425  2.129408  0.0
O  O94  1  0.69101120  0.31376550  0.50465114  1  -0.517984  3.7e-05  2.091617  0.0  -0.470387  -1.1e-05  2.306452  0.0  -0.492839  -2.9e-05  2.298492  0.0  -0.337901  -0.454207  3e-05  2.311108  0.0
O  O95  1  0.30899322  0.68624761  0.49533531  1  -0.518095  -3.7e-05  2.092057  0.0  -0.470527  1.1e-05  2.306861  0.0  -0.492985  2.9e-05  2.298917  0.0  -0.338063  -0.454355  -3e-05  2.311522  0.0
O  O96  1  0.01438082  0.67318520  0.72848848  1  -0.37102  -5.6e-05  1.776403  0.0  -0.362396  -4.9e-05  1.977045  0.0  -0.372136  -4.1e-05  1.971824  0.0  -0.140827  -0.355908  -5.9e-05  1.980751  0.0
O  O97  1  0.98563509  0.32682189  0.27150799  1  -0.370903  5.6e-05  1.776758  0.0  -0.362264  4.9e-05  1.977433  0.0  -0.372003  4.3e-05  1.972218  0.0  -0.140761  -0.355771  5.9e-05  1.981123  0.0
O  O98  1  0.13611051  0.48832176  0.82692030  1  -0.401259  -5e-05  1.745079  0.0  -0.395601  -5.6e-05  1.944933  0.0  -0.407419  -3.5e-05  1.941031  0.0  -0.164015  -0.387375  -3.8e-05  1.94761  0.0
O  O99  1  0.86387533  0.51168032  0.17309413  1  -0.401503  5e-05  1.744302  0.0  -0.395817  5.5e-05  1.944172  0.0  -0.407637  3.4e-05  1.940269  0.0  -0.164271  -0.387587  3.8e-05  1.946852  0.0
