# generated using pymatgen
data_Ca2H20C14N2O15
_symmetry_space_group_name_H-M   'P 1'
_cell_length_a   7.57356952
_cell_length_b   10.60619282
_cell_length_c   13.15847588
_cell_angle_alpha   93.73291103
_cell_angle_beta   90.00017304
_cell_angle_gamma   89.99988340
_symmetry_Int_Tables_number   1
_chemical_formula_structural   Ca2H20C14N2O15
_chemical_formula_sum   'Ca4 H40 C28 N4 O30'
_cell_volume   1054.73495493
_cell_formula_units_Z   2
loop_
 _symmetry_equiv_pos_site_id
 _symmetry_equiv_pos_as_xyz
  1  'x, y, z'
loop_
 _atom_site_type_symbol
 _atom_site_label
 _atom_site_symmetry_multiplicity
 _atom_site_fract_x
 _atom_site_fract_y
 _atom_site_fract_z
 _atom_site_occupancy
 _atom_site_pbe_bader_spin_density
 _atom_site_pbe_cm5_charge
 _atom_site_pbe_ddec_charge
 _atom_site_pbe_ddec_spin_density
 _atom_site_pbe_ddec_sum_bond_order
 _atom_site_pbe_magmom
Ca  Ca0  1  0.87451521  0.07769039  0.13055777  1  0  0.868861  1.420536  0  1.423066  0
Ca  Ca1  1  0.87445918  0.92232340  0.36942305  1  0  0.868887  1.420773  0  1.422705  0
Ca  Ca2  1  0.12555603  0.92232146  0.86942103  1  0  0.868869  1.420814  0  1.422655  0
Ca  Ca3  1  0.12549983  0.07769032  0.63056117  1  0  0.868864  1.420694  0  1.422809  0
H  H4  1  0.58798591  0.51913588  0.89203978  1  0  0.111733  0.122826  0  0.998591  0
H  H5  1  0.58798918  0.48086577  0.60795786  1  0  0.111747  0.12285  0  0.998602  0
H  H6  1  0.41201140  0.48086549  0.10795744  1  0  0.111742  0.122831  0  0.998524  0
H  H7  1  0.41201341  0.51913464  0.39204386  1  0  0.111733  0.122832  0  0.998594  0
H  H8  1  0.83824282  0.67164328  0.88304339  1  0  0.117936  0.090625  0  1.036473  0
H  H9  1  0.83823997  0.32835707  0.61696070  1  0  0.117962  0.090601  0  1.036508  0
H  H10  1  0.16175976  0.32835712  0.11696138  1  0  0.117966  0.090599  0  1.03652  0
H  H11  1  0.16175865  0.67164238  0.38304477  1  0  0.117934  0.090637  0  1.036445  0
H  H12  1  0.20740459  0.38195243  0.86684314  1  0  0.120973  0.097021  0  0.987232  0
H  H13  1  0.20740496  0.61804497  0.63316044  1  0  0.120926  0.09701  0  0.987201  0
H  H14  1  0.79259271  0.61804420  0.13315837  1  0  0.120934  0.096996  0  0.987235  0
H  H15  1  0.79259498  0.38195354  0.36684270  1  0  0.120947  0.097016  0  0.987203  0
H  H16  1  0.61388776  0.85329429  0.04284155  1  0  0.297832  0.384522  0  0.957706  0
H  H17  1  0.61393211  0.14667275  0.45710204  1  0  0.297823  0.384491  0  0.957797  0
H  H18  1  0.38606201  0.14666955  0.95709432  1  0  0.297812  0.384477  0  0.957801  0
H  H19  1  0.38610348  0.85330141  0.54285112  1  0  0.297826  0.38446  0  0.957787  0
H  H20  1  0.54969331  0.99169182  0.05896099  1  0  0.317547  0.371505  0  0.944898  0
H  H21  1  0.54956103  0.00826596  0.44138627  1  0  0.317255  0.371421  0  0.944967  0
H  H22  1  0.45045716  0.00826050  0.94144466  1  0  0.31736  0.371444  0  0.944851  0
H  H23  1  0.45032668  0.99169916  0.55890305  1  0  0.317444  0.371425  0  0.944925  0
H  H24  1  0.80560940  0.35040345  0.12874227  1  0  0.277784  0.329294  0  1.03869  0
H  H25  1  0.80561093  0.64959525  0.37125280  1  0  0.277855  0.329417  0  1.038537  0
H  H26  1  0.19438790  0.64959322  0.87125089  1  0  0.277843  0.329378  0  1.038604  0
H  H27  1  0.19438769  0.35040708  0.62874220  1  0  0.277848  0.329393  0  1.038588  0
H  H28  1  0.63609746  0.28779726  0.07402428  1  0  0.289823  0.374135  0  0.961714  0
H  H29  1  0.63609382  0.71219791  0.42596497  1  0  0.289901  0.374212  0  0.961622  0
H  H30  1  0.36390644  0.71219472  0.92596253  1  0  0.289827  0.374037  0  0.961857  0
H  H31  1  0.36390216  0.28780065  0.57402753  1  0  0.289852  0.374171  0  0.961674  0
H  H32  1  0.54561384  0.93121840  0.22237105  1  0  0.296528  0.379636  0  0.965911  0
H  H33  1  0.54562314  0.06878438  0.27763367  1  0  0.296501  0.379586  0  0.966006  0
H  H34  1  0.45437422  0.06878103  0.77763974  1  0  0.296494  0.379569  0  0.966002  0
H  H35  1  0.45438208  0.93122170  0.72236761  1  0  0.296565  0.379648  0  0.965909  0
H  H36  1  0.24940058  0.14463215  0.20951179  1  0  0.298496  0.392354  0  0.944861  0
H  H37  1  0.24937337  0.85537115  0.29046280  1  0  0.298486  0.392246  0  0.944998  0
H  H38  1  0.75063370  0.85537123  0.79046046  1  0  0.298509  0.392315  0  0.944904  0
H  H39  1  0.75060413  0.14462654  0.70951294  1  0  0.298521  0.392394  0  0.944802  0
H  H40  1  0.25277920  0.09029816  0.09258518  1  0  0.304546  0.393866  0  0.937239  0
H  H41  1  0.25276962  0.90976482  0.40735549  1  0  0.304835  0.394265  0  0.936668  0
H  H42  1  0.74724055  0.90977816  0.90734627  1  0  0.304908  0.394385  0  0.936514  0
H  H43  1  0.74722636  0.09028119  0.59259328  1  0  0.30461  0.393972  0  0.937087  0
C  C44  1  0.06855326  0.40960742  0.87217525  1  0  0.056869  0.071718  0  3.937775  0
C  C45  1  0.06855501  0.59039207  0.62782669  1  0  0.056894  0.071717  0  3.937687  0
C  C46  1  0.93144272  0.59039111  0.12782485  1  0  0.056908  0.071768  0  3.937638  0
C  C47  1  0.93144626  0.40960834  0.37217655  1  0  0.056935  0.071782  0  3.937697  0
C  C48  1  0.93748846  0.31754213  0.87781683  1  0  0.000815  -0.09474  0  3.942464  0
C  C49  1  0.93749123  0.68245907  0.62218063  1  0  0.000848  -0.094648  0  3.942317  0
C  C50  1  0.06250752  0.68245831  0.12217881  1  0  0.000854  -0.094622  0  3.942281  0
C  C51  1  0.06251135  0.31754230  0.37781886  1  0  0.000845  -0.094757  0  3.94247  0
C  C52  1  0.76042000  0.35599463  0.88400318  1  0  0.0084  -0.020051  0  3.960364  0
C  C53  1  0.76042285  0.64400586  0.61599166  1  0  0.008359  -0.020197  0  3.960478  0
C  C54  1  0.23957466  0.64400581  0.11599095  1  0  0.008418  -0.020178  0  3.960491  0
C  C55  1  0.23957842  0.35599456  0.38400626  1  0  0.008385  -0.019968  0  3.96029  0
C  C56  1  0.72353101  0.48497849  0.88656070  1  0  -0.079214  -0.147924  0  3.962262  0
C  C57  1  0.72353289  0.51502299  0.61343793  1  0  -0.079242  -0.147925  0  3.962297  0
C  C58  1  0.27646629  0.51502383  0.11343657  1  0  -0.079275  -0.147918  0  3.962232  0
C  C59  1  0.27646837  0.48497742  0.38656456  1  0  -0.079259  -0.148021  0  3.962332  0
C  C60  1  0.86287732  0.57013213  0.88169882  1  0  0.047878  0.087137  0  3.954772  0
C  C61  1  0.86287683  0.42986915  0.61830308  1  0  0.047915  0.087194  0  3.954728  0
C  C62  1  0.13712394  0.42986923  0.11830295  1  0  0.047905  0.087153  0  3.954793  0
C  C63  1  0.13712443  0.57013125  0.38170093  1  0  0.047894  0.087136  0  3.954716  0
C  C64  1  0.98843954  0.18150571  0.88114344  1  0  0.234529  0.628359  0  4.203985  0
C  C65  1  0.98845247  0.81849359  0.61884185  1  0  0.234506  0.62841  0  4.204113  0
C  C66  1  0.01154456  0.81849383  0.11884304  1  0  0.234453  0.628288  0  4.204158  0
C  C67  1  0.01155672  0.18150690  0.38114164  1  0  0.234603  0.628326  0  4.203957  0
C  C68  1  0.61372313  0.26020797  0.88350337  1  0  0.227134  0.586197  0  4.195592  0
C  C69  1  0.61372306  0.73978991  0.61648575  1  0  0.227076  0.586334  0  4.195177  0
C  C70  1  0.38626890  0.73978968  0.11648301  1  0  0.227125  0.586381  0  4.195087  0
C  C71  1  0.38627556  0.26020676  0.38350740  1  0  0.227066  0.586204  0  4.195406  0
N  N72  1  0.03277472  0.53361245  0.87434179  1  0  -0.300391  -0.24104  0  3.422019  0
N  N73  1  0.03277416  0.46638707  0.62566161  1  0  -0.300391  -0.241058  0  3.421993  0
N  N74  1  0.96722522  0.46638701  0.12566064  1  0  -0.300397  -0.241069  0  3.422037  0
N  N75  1  0.96722446  0.53361427  0.37434321  1  0  -0.300387  -0.241051  0  3.421996  0
O  O76  1  0.49693952  0.27434890  0.95326520  1  0  -0.307634  -0.553547  0  2.166304  0
O  O77  1  0.49693913  0.72564158  0.54672179  1  0  -0.307766  -0.553637  0  2.166155  0
O  O78  1  0.50305514  0.72563931  0.04671685  1  0  -0.307781  -0.553656  0  2.166074  0
O  O79  1  0.50305817  0.27434847  0.45327252  1  0  -0.307669  -0.553598  0  2.166263  0
O  O80  1  0.61650115  0.17168265  0.81385136  1  0  -0.291639  -0.540649  0  2.228169  0
O  O81  1  0.61649724  0.82832186  0.68613282  1  0  -0.291425  -0.5406  0  2.227969  0
O  O82  1  0.38350011  0.82832448  0.18612718  1  0  -0.291441  -0.540555  0  2.227938  0
O  O83  1  0.38350270  0.17168333  0.31385701  1  0  -0.291551  -0.540639  0  2.22817  0
O  O84  1  0.94710265  0.12203392  0.95816900  1  0  -0.353406  -0.642806  0  2.249022  0
O  O85  1  0.94711500  0.87795506  0.54181185  1  0  -0.353339  -0.642869  0  2.249275  0
O  O86  1  0.05287749  0.87795619  0.04181164  1  0  -0.353374  -0.642864  0  2.249034  0
O  O87  1  0.05288362  0.12203222  0.45816787  1  0  -0.35346  -0.642883  0  2.248954  0
O  O88  1  0.07644937  0.13153864  0.80665884  1  0  -0.389005  -0.643735  0  2.282224  0
O  O89  1  0.07647179  0.86846564  0.69332286  1  0  -0.389038  -0.643901  0  2.282239  0
O  O90  1  0.92353209  0.86846468  0.19332557  1  0  -0.388953  -0.643727  0  2.282369  0
O  O91  1  0.92355456  0.13154339  0.30665274  1  0  -0.389078  -0.643676  0  2.28229  0
O  O92  1  0.65204927  0.94417649  0.03188693  1  0  -0.586797  -0.788162  0  2.104434  0
O  O93  1  0.65215863  0.05582156  0.46808731  1  0  -0.586886  -0.788122  0  2.103866  0
O  O94  1  0.34782524  0.05582404  0.96808896  1  0  -0.587025  -0.788145  0  2.103994  0
O  O95  1  0.34793506  0.94417424  0.53188756  1  0  -0.58671  -0.787971  0  2.104348  0
O  O96  1  0.62558282  0.00002076  0.24996002  1  0  -0.612006  -0.849974  0  2.101785  0
O  O97  1  0.37441195  0.00002226  0.74996090  1  0  -0.612072  -0.84999  0  2.101751  0
O  O98  1  0.72060599  0.27648247  0.12963469  1  0  -0.634412  -0.812695  0  2.006807  0
O  O99  1  0.72060071  0.72351258  0.37035547  1  0  -0.634558  -0.812935  0  2.006725  0
O  O100  1  0.27939659  0.72350950  0.87035289  1  0  -0.634458  -0.812724  0  2.006891  0
O  O101  1  0.27938999  0.27648787  0.62963562  1  0  -0.634499  -0.812851  0  2.006769  0
O  O102  1  0.17714521  0.12905105  0.14682677  1  0  -0.629101  -0.819488  0  2.043236  0
O  O103  1  0.17713281  0.87094854  0.35315358  1  0  -0.629193  -0.819692  0  2.043166  0
O  O104  1  0.82287586  0.87094947  0.85315065  1  0  -0.629246  -0.81983  0  2.043043  0
O  O105  1  0.82285921  0.12904345  0.64682868  1  0  -0.629176  -0.819692  0  2.043191  0
