# generated using pymatgen
data_Zn2H15C35Br3N5O14
_symmetry_space_group_name_H-M   'P 1'
_cell_length_a   13.19800810
_cell_length_b   14.13344659
_cell_length_c   28.56857751
_cell_angle_alpha   90.02178029
_cell_angle_beta   89.79989876
_cell_angle_gamma   89.86359242
_symmetry_Int_Tables_number   1
_chemical_formula_structural   Zn2H15C35Br3N5O14
_chemical_formula_sum   'Zn4 H30 C70 Br6 N10 O28'
_cell_volume   5328.94425143
_cell_formula_units_Z   2
loop_
 _symmetry_equiv_pos_site_id
 _symmetry_equiv_pos_as_xyz
  1  'x, y, z'
loop_
 _atom_site_type_symbol
 _atom_site_label
 _atom_site_symmetry_multiplicity
 _atom_site_fract_x
 _atom_site_fract_y
 _atom_site_fract_z
 _atom_site_occupancy
 _atom_site_pbe_bader_charge
 _atom_site_pbe_bader_spin_density
 _atom_site_pbe_cm5_charge
 _atom_site_pbe_ddec_charge
 _atom_site_pbe_ddec_spin_density
 _atom_site_pbe_ddec_sum_bond_order
 _atom_site_pbe_magmom
Zn  Zn0  1  0.51118920  0.39854962  0.49356093  1  1.302407  0  0.67229  0.848964  0  2.370522  0
Zn  Zn1  1  0.48725951  0.60209135  0.50284933  1  1.29942  0  0.671572  0.847192  0  2.394816  0
Zn  Zn2  1  0.51118046  0.60210454  0.04111035  1  1.30653  0  0.672474  0.849011  0  2.371781  0
Zn  Zn3  1  0.48850114  0.39862721  0.03182662  1  1.303112  0  0.671564  0.846643  0  2.396947  0
H  H4  1  0.62160967  0.05690659  0.44318618  1  0.113635  0  0.117701  0.133848  0  1.001161  0
H  H5  1  0.37721862  0.94430908  0.55268386  1  0.093198  0  0.115714  0.131647  0  1.004444  0
H  H6  1  0.59651649  0.74333361  0.45576089  1  0.124274  0  0.131874  0.111515  0  0.98031  0
H  H7  1  0.61507343  0.91656284  0.44812241  1  0.090631  0  0.12157  0.131486  0  0.986684  0
H  H8  1  0.40614055  0.25741544  0.54221232  1  0.169194  0  0.127107  0.105971  0  0.994951  0
H  H9  1  0.38812565  0.08438214  0.54989336  1  0.072977  0  0.117657  0.126714  0  0.991915  0
H  H10  1  0.50488453  0.61856964  0.18880826  1  0.148288  0  0.111457  0.125308  0  1.033037  0
H  H11  1  0.49339250  0.31611393  0.17946138  1  0.156286  0  0.1206  0.136079  0  0.993095  0
H  H12  1  0.50458718  0.38103062  0.34569935  1  0.146869  0  0.111662  0.125776  0  1.032686  0
H  H13  1  0.49345735  0.68353332  0.35506983  1  0.164776  0  0.120304  0.13587  0  0.992841  0
H  H14  1  0.50351228  0.34221160  0.74006215  1  0.087004  0  0.100389  0.109165  0  1.029872  0
H  H15  1  0.50456591  0.65760111  0.79467932  1  0.079643  0  0.100178  0.109071  0  1.029949  0
H  H16  1  0.49712767  0.37116365  0.89301174  1  0.111428  0  0.101718  0.10673  0  1.026512  0
H  H17  1  0.49625138  0.35301582  0.80768750  1  0.023839  0  0.104241  0.107855  0  1.007223  0
H  H18  1  0.49672390  0.62870887  0.64174814  1  0.112815  0  0.101924  0.106641  0  1.025341  0
H  H19  1  0.49671215  0.64687021  0.72707455  1  0.025189  0  0.104297  0.107339  0  1.007824  0
H  H20  1  0.83015232  0.38041325  0.50043959  1  0.140809  0  0.111316  0.124157  0  1.037203  0
H  H21  1  0.80755433  0.68272615  0.49911521  1  0.140685  0  0.119499  0.13399  0  0.995471  0
H  H22  1  0.16823360  0.61945455  0.50133520  1  0.15853  0  0.110916  0.124911  0  1.033531  0
H  H23  1  0.19105621  0.31729978  0.49585422  1  0.166958  0  0.120471  0.136835  0  0.991237  0
H  H24  1  0.62138761  0.94322003  0.09119287  1  0.081951  0  0.117897  0.134228  0  1.00143  0
H  H25  1  0.37788997  0.05715022  0.98214977  1  0.103028  0  0.115971  0.131808  0  1.004001  0
H  H26  1  0.59813688  0.25672188  0.07812932  1  0.126858  0  0.131954  0.111501  0  0.98025  0
H  H27  1  0.61620867  0.08339717  0.08574786  1  0.10209  0  0.121461  0.131216  0  0.98706  0
H  H28  1  0.40698116  0.74363410  0.99239283  1  0.16465  0  0.127448  0.106698  0  0.994313  0
H  H29  1  0.38929238  0.91679116  0.98459824  1  0.069429  0  0.117512  0.12668  0  0.991384  0
H  H30  1  0.83007219  0.62091111  0.03445510  1  0.127393  0  0.111358  0.124677  0  1.0385  0
H  H31  1  0.80946886  0.31857020  0.03627691  1  0.146044  0  0.119451  0.13437  0  0.993922  0
H  H32  1  0.16974398  0.38232403  0.03427982  1  0.155044  0  0.11094  0.125243  0  1.033872  0
H  H33  1  0.19054340  0.68449381  0.03995854  1  0.154238  0  0.12068  0.136979  0  0.991579  0
C  C34  1  0.50022625  0.47890550  0.58883926  1  1.607064  0  0.214737  0.605945  0  4.154039  0
C  C35  1  0.30327033  0.47875916  0.49741992  1  1.609403  0  0.217836  0.595364  0  4.166482  0
C  C36  1  0.49796204  0.52287957  0.40763581  1  1.583796  0  0.217342  0.596977  0  4.166487  0
C  C37  1  0.69530475  0.52192507  0.49870347  1  1.579798  0  0.217868  0.59601  0  4.165898  0
C  C38  1  0.50131532  0.52090206  0.94588717  1  1.607086  0  0.214764  0.607145  0  4.154405  0
C  C39  1  0.30382333  0.52319927  0.03790369  1  1.592525  0  0.21712  0.595017  0  4.168547  0
C  C40  1  0.49816509  0.47674716  0.12692829  1  1.571917  0  0.217606  0.596058  0  4.16733  0
C  C41  1  0.69612160  0.47928615  0.03588916  1  1.619499  0  0.218326  0.596971  0  4.16539  0
C  C42  1  0.57542791  0.19546422  0.46426629  1  0.450583  0  0.129116  0.255723  0  3.973059  0
C  C43  1  0.57148502  0.09687757  0.46610948  1  0.125536  0  -0.076011  -0.211511  0  3.910784  0
C  C44  1  0.42437885  0.80569102  0.53218877  1  0.485254  0  0.126525  0.250142  0  3.983565  0
C  C45  1  0.42840594  0.90424088  0.53030693  1  0.06035  0  -0.078359  -0.214974  0  3.918506  0
C  C46  1  0.54995341  0.79153953  0.47643192  1  0.506921  0  0.064029  0.129028  0  3.893958  0
C  C47  1  0.55930543  0.88873618  0.47256106  1  -0.034884  0  -0.072728  -0.170599  0  3.917705  0
C  C48  1  0.45157329  0.20940298  0.52092611  1  0.465932  0  0.061843  0.128928  0  3.897894  0
C  C49  1  0.44275400  0.11218928  0.52489934  1  -0.044459  0  -0.076778  -0.172912  0  3.923711  0
C  C50  1  0.50375578  0.05283824  0.49699366  1  0.023445  0  0.022418  0.128169  0  3.952398  0
C  C51  1  0.49723712  0.94821910  0.49991060  1  -0.012107  0  0.023483  0.129181  0  3.949789  0
C  C52  1  0.50302409  0.55051822  0.20641992  1  0.00603  0  -0.066378  -0.112089  0  3.890641  0
C  C53  1  0.49752096  0.37966660  0.20085715  1  0.032578  0  -0.065844  -0.125817  0  3.944092  0
C  C54  1  0.50208999  0.37295970  0.24880844  1  0.169187  0  0.082184  0.029639  0  3.895633  0
C  C55  1  0.50473047  0.45414706  0.27863306  1  0.018154  0  0.009522  0.044333  0  3.948188  0
C  C56  1  0.50283490  0.44909364  0.32809195  1  0.007857  0  -0.066997  -0.112412  0  3.891898  0
C  C57  1  0.49757195  0.61994324  0.33367120  1  0.033157  0  -0.065659  -0.1253  0  3.943575  0
C  C58  1  0.50219230  0.62662327  0.28569659  1  0.169273  0  0.082297  0.028836  0  3.897774  0
C  C59  1  0.50480721  0.54543197  0.25587829  1  0.017798  0  0.009097  0.04484  0  3.948809  0
C  C60  1  0.49930358  0.46941412  0.17941840  1  -0.001374  0  -0.006374  -0.001301  0  3.951886  0
C  C61  1  0.49919060  0.53020820  0.35511726  1  0.003243  0  -0.006393  -0.002373  0  3.95231  0
C  C62  1  0.50006438  0.47780805  0.64155379  1  -0.069733  0  -0.020285  -0.07914  0  3.913323  0
C  C63  1  0.50110357  0.52203349  0.89319007  1  -0.073851  0  -0.020382  -0.080208  0  3.915319  0
C  C64  1  0.50161598  0.39785903  0.67084205  1  -0.054079  0  -0.00559  0.115086  0  3.920617  0
C  C65  1  0.50187293  0.40691415  0.71949548  1  -0.02207  0  -0.096862  -0.18941  0  3.95699  0
C  C66  1  0.50289487  0.60200136  0.86391411  1  -0.050169  0  -0.005385  0.115539  0  3.920569  0
C  C67  1  0.50276295  0.59294410  0.81526852  1  -0.015188  0  -0.096841  -0.189397  0  3.957063  0
C  C68  1  0.49876865  0.43344185  0.87064292  1  -0.011464  0  -0.082695  -0.07219  0  3.988949  0
C  C69  1  0.49840980  0.42395922  0.82242743  1  0.054583  0  -0.092232  -0.136941  0  3.985273  0
C  C70  1  0.49829937  0.56641627  0.66411021  1  -0.011384  0  -0.082715  -0.071904  0  3.987952  0
C  C71  1  0.49834149  0.57590459  0.71232377  1  -0.016949  0  -0.091982  -0.136089  0  3.984154  0
C  C72  1  0.50028062  0.49580768  0.74153469  1  0.022911  0  0.000936  0.093999  0  3.977504  0
C  C73  1  0.50053265  0.50406784  0.79324197  1  -0.045505  0  0.001332  0.094624  0  3.978663  0
C  C74  1  0.86794329  0.44859281  0.50041037  1  -0.023067  0  -0.065532  -0.111717  0  3.892402  0
C  C75  1  0.85458978  0.61944317  0.49979380  1  0.049489  0  -0.066351  -0.125691  0  3.946008  0
C  C76  1  0.95837671  0.62660000  0.50132903  1  0.115189  0  0.082007  0.028863  0  3.897593  0
C  C77  1  0.02353596  0.54565306  0.50177505  1  0.001668  0  0.008848  0.044814  0  3.94999  0
C  C78  1  0.13051216  0.55126821  0.50053683  1  -0.014669  0  -0.067033  -0.113866  0  3.893503  0
C  C79  1  0.14404954  0.38051954  0.49778508  1  0.01178  0  -0.065168  -0.123606  0  3.94023  0
C  C80  1  0.04023197  0.37322552  0.49994974  1  0.201365  0  0.08178  0.027539  0  3.896056  0
C  C81  1  0.97498316  0.45410101  0.50141748  1  0.065006  0  0.009741  0.04502  0  3.948981  0
C  C82  1  0.80890261  0.52951581  0.49961135  1  0.045211  0  -0.006263  -0.001778  0  3.95057  0
C  C83  1  0.18968365  0.47050331  0.49848359  1  -0.035994  0  -0.005844  -0.000544  0  3.951617  0
C  C84  1  0.57524451  0.80487315  0.07027045  1  0.449764  0  0.129282  0.255508  0  3.972929  0
C  C85  1  0.57157479  0.90347033  0.06829045  1  0.100226  0  -0.076484  -0.211473  0  3.911009  0
C  C86  1  0.42564732  0.19544683  0.00237912  1  0.432385  0  0.12652  0.249828  0  3.982297  0
C  C87  1  0.42935866  0.09686382  0.00427959  1  0.116518  0  -0.078834  -0.215199  0  3.918662  0
C  C88  1  0.55137856  0.20880176  0.05765966  1  0.506146  0  0.064006  0.128803  0  3.895174  0
C  C89  1  0.56040003  0.11154923  0.06153043  1  -0.046513  0  -0.072979  -0.170532  0  3.919555  0
C  C90  1  0.45220445  0.79145483  0.01362763  1  0.467278  0  0.061709  0.128732  0  3.896308  0
C  C91  1  0.44356253  0.88871447  0.00957597  1  0.013927  0  -0.076178  -0.171998  0  3.922275  0
C  C92  1  0.50432757  0.94777749  0.03739893  1  -0.052232  0  0.022478  0.127153  0  3.953644  0
C  C93  1  0.49810928  0.05243583  0.03443841  1  0.012164  0  0.023425  0.128912  0  3.951018  0
C  C94  1  0.86831732  0.55279078  0.03469576  1  0.004764  0  -0.066137  -0.113588  0  3.893784  0
C  C95  1  0.85609420  0.38191257  0.03555750  1  0.046143  0  -0.066007  -0.126497  0  3.946314  0
C  C96  1  0.95998661  0.37492021  0.03438426  1  0.214053  0  0.081952  0.029503  0  3.897095  0
C  C97  1  0.02457900  0.45596079  0.03389039  1  0.012814  0  0.009077  0.044887  0  3.948039  0
C  C98  1  0.13156875  0.45046378  0.03512521  1  -0.033717  0  -0.067489  -0.114504  0  3.893042  0
C  C99  1  0.14395815  0.62123097  0.03795008  1  0.013488  0  -0.065214  -0.123346  0  3.939841  0
C  C100  1  0.04013879  0.62840356  0.03573316  1  0.222771  0  0.082016  0.027829  0  3.895898  0
C  C101  1  0.97541608  0.54746920  0.03407387  1  0.012714  0  0.009507  0.045434  0  3.9471  0
C  C102  1  0.80979346  0.47177986  0.03532644  1  -0.059189  0  -0.006406  -0.001134  0  3.952183  0
C  C103  1  0.19018836  0.53129543  0.03713638  1  -0.013355  0  -0.005678  -0.001144  0  3.950274  0
Br  Br104  1  0.66693438  0.25228905  0.42204105  1  0.034459  0  0.098466  0.014184  0  1.400933  0
Br  Br105  1  0.33129405  0.74882763  0.57376870  1  0.029997  0  0.096658  0.009023  0  1.409811  0
Br  Br106  1  0.50344543  0.27022045  0.64865520  1  -0.065816  0  0.000528  -0.0911  0  1.397374  0
Br  Br107  1  0.50584351  0.72961693  0.88610666  1  -0.066969  0  0.000607  -0.091057  0  1.396953  0
Br  Br108  1  0.66575913  0.74774853  0.11269926  1  0.035369  0  0.098913  0.014668  0  1.402771  0
Br  Br109  1  0.33254503  0.25288270  0.96114492  1  0.024334  0  0.096835  0.009268  0  1.410644  0
N  N110  1  0.51695748  0.25135988  0.49091298  1  -1.230698  0  -0.313973  -0.24086  0  3.470475  0
N  N111  1  0.48330894  0.74962398  0.50587555  1  -1.224134  0  -0.314963  -0.243555  0  3.478272  0
N  N112  1  0.51709067  0.74923046  0.04366817  1  -1.203618  0  -0.31421  -0.241093  0  3.471299  0
N  N113  1  0.48475260  0.25113350  0.02846458  1  -1.204302  0  -0.314875  -0.242919  0  3.477417  0
N  N114  1  0.50490601  0.72369439  0.26651114  1  0.403657  0  0.057766  0.522508  0  4.19724  0
N  N115  1  0.50472417  0.27585633  0.26799759  1  0.400069  0  0.057572  0.522789  0  4.193397  0
N  N116  1  0.99934176  0.27594907  0.50097238  1  0.373692  0  0.057024  0.51885  0  4.20268  0
N  N117  1  0.99914091  0.72379872  0.50268904  1  0.367303  0  0.057597  0.525371  0  4.192582  0
N  N118  1  0.99875048  0.72569522  0.03483596  1  0.394419  0  0.057267  0.519959  0  4.202594  0
N  N119  1  0.00136970  0.27773956  0.03353272  1  0.396375  0  0.057958  0.524909  0  4.189032  0
O  O120  1  0.50515429  0.40152215  0.56646971  1  -1.148351  0  -0.31395  -0.542724  0  2.381101  0
O  O121  1  0.49551713  0.56117013  0.57044963  1  -1.170558  0  -0.323537  -0.565717  0  2.398554  0
O  O122  1  0.33895302  0.56220114  0.49781567  1  -1.165075  0  -0.315216  -0.549062  0  2.367693  0
O  O123  1  0.35335225  0.40187548  0.49633006  1  -1.16812  0  -0.311515  -0.540099  0  2.319255  0
O  O124  1  0.49440907  0.60034622  0.43022257  1  -1.165479  0  -0.312996  -0.543876  0  2.324611  0
O  O125  1  0.50109487  0.44000418  0.42479402  1  -1.171163  0  -0.314735  -0.552594  0  2.363777  0
O  O126  1  0.65908990  0.43876383  0.49687599  1  -1.160988  0  -0.313333  -0.546334  0  2.372629  0
O  O127  1  0.64571169  0.59905987  0.49983950  1  -1.158463  0  -0.313042  -0.545611  0  2.323661  0
O  O128  1  0.50347312  0.59833863  0.96827996  1  -1.146828  0  -0.313741  -0.543589  0  2.383118  0
O  O129  1  0.49926759  0.43852262  0.96424564  1  -1.171665  0  -0.323415  -0.564814  0  2.399626  0
O  O130  1  0.34012498  0.43986606  0.03655701  1  -1.151376  0  -0.315244  -0.550013  0  2.369506  0
O  O131  1  0.35334428  0.60011404  0.03963803  1  -1.17568  0  -0.311301  -0.538994  0  2.318784  0
O  O132  1  0.49351214  0.39932003  0.10437968  1  -1.164166  0  -0.313065  -0.542646  0  2.325488  0
O  O133  1  0.50240403  0.55955760  0.10976341  1  -1.168752  0  -0.314405  -0.552426  0  2.365311  0
O  O134  1  0.65938147  0.56248302  0.03673633  1  -1.162885  0  -0.313531  -0.546288  0  2.371937  0
O  O135  1  0.64700477  0.40208571  0.03553077  1  -1.18475  0  -0.313493  -0.546795  0  2.320463  0
O  O136  1  0.55827958  0.73859617  0.23139052  1  -0.471175  0  -0.142861  -0.351053  0  1.924961  0
O  O137  1  0.45529581  0.78502321  0.28757346  1  -0.442298  0  -0.140146  -0.333458  0  1.854478  0
O  O138  1  0.55774285  0.26074552  0.30306071  1  -0.467195  0  -0.142874  -0.3512  0  1.923355  0
O  O139  1  0.45538432  0.21469210  0.24699370  1  -0.442416  0  -0.140036  -0.333763  0  1.852681  0
O  O140  1  0.92277528  0.26060232  0.52514837  1  -0.452103  0  -0.137782  -0.336779  0  1.892801  0
O  O141  1  0.04603921  0.21493072  0.47827214  1  -0.432256  0  -0.143821  -0.339976  0  1.856931  0
O  O142  1  0.07498527  0.73910636  0.52715811  1  -0.440643  0  -0.143154  -0.351842  0  1.923278  0
O  O143  1  0.95316959  0.78491607  0.47992543  1  -0.442284  0  -0.143079  -0.338265  0  1.852541  0
O  O144  1  0.92239940  0.74117670  0.01072301  1  -0.449796  0  -0.138808  -0.338362  0  1.894553  0
O  O145  1  0.04484483  0.78660977  0.05757563  1  -0.448921  0  -0.143249  -0.339918  0  1.857528  0
O  O146  1  0.07795216  0.26200039  0.00932674  1  -0.465397  0  -0.143091  -0.351447  0  1.923959  0
O  O147  1  0.95515715  0.21703696  0.05647427  1  -0.441369  0  -0.14356  -0.338618  0  1.850916  0
