# generated using pymatgen
data_ZnH10C15N4(ClO2)2
_symmetry_space_group_name_H-M   'P 1'
_cell_length_a   8.92033533
_cell_length_b   15.90706545
_cell_length_c   17.08927737
_cell_angle_alpha   86.57554053
_cell_angle_beta   88.41080138
_cell_angle_gamma   78.41341001
_symmetry_Int_Tables_number   1
_chemical_formula_structural   ZnH10C15N4(ClO2)2
_chemical_formula_sum   'Zn2 H20 C30 N8 Cl4 O8'
_cell_volume   2370.94349432
_cell_formula_units_Z   2
loop_
 _symmetry_equiv_pos_site_id
 _symmetry_equiv_pos_as_xyz
  1  'x, y, z'
loop_
 _atom_site_type_symbol
 _atom_site_label
 _atom_site_symmetry_multiplicity
 _atom_site_fract_x
 _atom_site_fract_y
 _atom_site_fract_z
 _atom_site_occupancy
 _atom_site_pbe_bader_charge
 _atom_site_pbe_bader_spin_density
 _atom_site_pbe_cm5_charge
 _atom_site_pbe_ddec_charge
 _atom_site_pbe_ddec_spin_density
 _atom_site_pbe_ddec_sum_bond_order
 _atom_site_pbe_magmom
Zn  Zn0  1  0.47274059  0.59326426  0.49919561  1  1.291679  0  0.672088  0.831673  0  2.408101  0
Zn  Zn1  1  0.52268909  0.40980469  0.49892569  1  1.289028  0  0.67193  0.830894  0  2.409836  0
H  H2  1  0.46925063  0.61929170  0.74627075  1  0.087946  0  0.101345  0.104455  0  1.013425  0
H  H3  1  0.42146193  0.38417406  0.25704113  1  0.088838  0  0.10343  0.109596  0  1.00172  0
H  H4  1  0.42492673  0.61192123  0.89282526  1  0.116551  0  0.106541  0.109107  0  1.016098  0
H  H5  1  0.40283558  0.39249980  0.10962962  1  0.125323  0  0.107524  0.111869  0  1.010464  0
H  H6  1  0.39605296  0.65681702  0.25231374  1  0.10293  0  0.109628  0.130762  0  0.993917  0
H  H7  1  0.53670366  0.34437166  0.74694538  1  0.120784  0  0.108935  0.12945  0  0.994802  0
H  H8  1  0.61796040  0.72099993  0.40902194  1  0.127572  0  0.126041  0.110176  0  0.97328  0
H  H9  1  0.39142141  0.27995747  0.59310157  1  0.098261  0  0.126145  0.109138  0  0.974504  0
H  H10  1  0.62553964  0.87851911  0.41517908  1  0.101451  0  0.111473  0.117815  0  1.008105  0
H  H11  1  0.38963238  0.12149521  0.58866540  1  0.101443  0  0.111381  0.117365  0  1.008653  0
H  H12  1  0.67184044  0.27584719  0.39598496  1  0.126333  0  0.127283  0.108621  0  0.997077  0
H  H13  1  0.32641667  0.72749988  0.60197480  1  0.120116  0  0.126382  0.107565  0  0.99953  0
H  H14  1  0.69128706  0.04431724  0.36809256  1  0.4583  0  0.316338  0.250465  0  0.97246  0
H  H15  1  0.83056316  0.09771977  0.26749021  1  0.053087  0  0.117349  0.126196  0  0.966736  0
H  H16  1  0.87373295  0.17243056  0.33278619  1  0.089266  0  0.108892  0.11454  0  0.973462  0
H  H17  1  0.70564964  0.19949518  0.27494394  1  0.071179  0  0.108184  0.113826  0  0.974144  0
H  H18  1  0.31897786  0.95717303  0.63361565  1  0.486746  0  0.316266  0.249746  0  0.972818  0
H  H19  1  0.17754861  0.90430848  0.73365837  1  0.047673  0  0.117823  0.126662  0  0.967041  0
H  H20  1  0.29709353  0.80127007  0.72423789  1  0.064417  0  0.107566  0.112856  0  0.978249  0
H  H21  1  0.12900704  0.83261278  0.66684231  1  0.073052  0  0.108275  0.112932  0  0.974055  0
C  C22  1  0.44150750  0.51419837  0.34934484  1  1.593092  0  0.213893  0.585612  0  4.179335  0
C  C23  1  0.52483740  0.48672735  0.65069337  1  1.59908  0  0.21368  0.586691  0  4.175445  0
C  C24  1  0.45410040  0.24022119  0.54847648  1  0.509334  0  0.034463  0.061029  0  3.96161  0
C  C25  1  0.55390226  0.76104663  0.45303702  1  0.49754  0  0.035636  0.062114  0  3.961359  0
C  C26  1  0.45334708  0.15382307  0.54539657  1  -0.029022  0  -0.081751  -0.177027  0  3.995791  0
C  C27  1  0.55821047  0.84690837  0.45720098  1  -0.059311  0  -0.083079  -0.178658  0  3.994571  0
C  C28  1  0.53476754  0.10658785  0.48541254  1  0.40833  0  0.091114  0.093604  0  4.052388  0
C  C29  1  0.47565369  0.89452086  0.51663014  1  0.426082  0  0.091286  0.092887  0  4.05139  0
C  C30  1  0.61722072  0.14983676  0.42826754  1  0.497398  0  0.122454  0.141648  0  4.04493  0
C  C31  1  0.38973643  0.85198935  0.57259271  1  0.472897  0  0.123308  0.141925  0  4.046243  0
C  C32  1  0.61175856  0.23842445  0.43688148  1  0.502972  0  0.049124  -0.005903  0  3.871726  0
C  C33  1  0.39063463  0.76414498  0.56253952  1  0.532644  0  0.049561  -0.005844  0  3.874515  0
C  C34  1  0.79031989  0.48756447  0.47484936  1  1.637263  0  0.209422  0.59962  0  4.214831  0
C  C35  1  0.20360553  0.51769334  0.52375488  1  1.629595  0  0.206391  0.594556  0  4.221373  0
C  C36  1  0.96002738  0.48507786  0.47280385  1  0.110558  0  -0.000515  -0.032368  0  3.96146  0
C  C37  1  0.03392810  0.51986389  0.52623907  1  0.144415  0  -0.001882  -0.032241  0  3.965072  0
C  C38  1  0.41456077  0.51968582  0.26268029  1  0.01546  0  -0.006529  0.003594  0  3.940134  0
C  C39  1  0.50484923  0.48234027  0.73830125  1  -0.039433  0  -0.006418  0.004476  0  3.936587  0
C  C40  1  0.41247257  0.44504293  0.22295302  1  -0.09667  0  -0.087159  -0.095239  0  3.988402  0
C  C41  1  0.47308722  0.55815033  0.77921029  1  -0.036543  0  -0.085694  -0.093014  0  3.992606  0
C  C42  1  0.40178247  0.44950922  0.14211640  1  0.010065  0  -0.080572  -0.128127  0  3.963113  0
C  C43  1  0.44827970  0.55427628  0.85948073  1  -0.069213  0  -0.080726  -0.126366  0  3.959624  0
C  C44  1  0.39230941  0.52852003  0.09857838  1  0.372965  0  0.08582  0.11177  0  4.024697  0
C  C45  1  0.45437350  0.47467297  0.90159686  1  0.423939  0  0.085089  0.112377  0  4.021844  0
C  C46  1  0.38452685  0.60388819  0.13961147  1  0.10264  0  0.023369  0.105237  0  3.988416  0
C  C47  1  0.48692114  0.39884141  0.85986812  1  0.016178  0  0.022791  0.103288  0  3.99339  0
C  C48  1  0.39695483  0.59920272  0.22087269  1  0.035311  0  -0.088279  -0.158021  0  3.949528  0
C  C49  1  0.51197316  0.40279184  0.77904141  1  0.105537  0  -0.087248  -0.156458  0  3.947261  0
C  C50  1  0.78042261  0.14665222  0.30827131  1  0.272407  0  -0.122831  -0.216142  0  3.971738  0
C  C51  1  0.22461651  0.85584093  0.69188558  1  0.29317  0  -0.122072  -0.2136  0  3.973506  0
N  N52  1  0.39417303  0.53669824  0.01630735  1  -0.518263  0  -0.149697  -0.118108  0  3.295203  0
N  N53  1  0.43994713  0.46623829  0.98358292  1  -0.514199  0  -0.149205  -0.117504  0  3.29644  0
N  N54  1  0.53308996  0.28082897  0.49470981  1  -1.23232  0  -0.317927  -0.171501  0  3.572109  0
N  N55  1  0.46964075  0.72145754  0.50494489  1  -1.238083  0  -0.317603  -0.172017  0  3.574398  0
N  N56  1  0.54226348  0.01984394  0.47545779  1  -0.542257  0  -0.164586  -0.148071  0  3.333597  0
N  N57  1  0.46928345  0.98109202  0.52688983  1  -0.543435  0  -0.162847  -0.145489  0  3.332178  0
N  N58  1  0.69607089  0.10745357  0.36891358  1  -1.235297  0  -0.425387  -0.249464  0  3.649595  0
N  N59  1  0.31142433  0.89448909  0.63202441  1  -1.246452  0  -0.426058  -0.248976  0  3.650099  0
Cl  Cl60  1  0.05721753  0.43300309  0.39508361  1  -0.180498  0  -0.011397  -0.041891  0  1.501902  0
Cl  Cl61  1  0.93753680  0.57188632  0.60410825  1  -0.17531  0  -0.012392  -0.040552  0  1.489119  0
Cl  Cl62  1  0.36768957  0.70310589  0.08959155  1  -0.213754  0  -0.037795  -0.113534  0  1.432723  0
Cl  Cl63  1  0.49405227  0.29942797  0.90816626  1  -0.20919  0  -0.037745  -0.113455  0  1.43415  0
O  O64  1  0.43263092  0.58466269  0.38235060  1  -1.161546  0  -0.314619  -0.535409  0  2.316648  0
O  O65  1  0.55392464  0.41585514  0.61711848  1  -1.160318  0  -0.316645  -0.53822  0  2.313376  0
O  O66  1  0.47398129  0.43898487  0.38227807  1  -1.164937  0  -0.316576  -0.552566  0  2.352051  0
O  O67  1  0.50750235  0.56154638  0.61695696  1  -1.165364  0  -0.316149  -0.553681  0  2.350144  0
O  O68  1  0.70499005  0.56152307  0.47493316  1  -1.160183  0  -0.311189  -0.544128  0  2.36074  0
O  O69  1  0.28951185  0.44384228  0.52477994  1  -1.1607  0  -0.310837  -0.543671  0  2.351132  0
O  O70  1  0.74924301  0.41562570  0.47671407  1  -1.150579  0  -0.317908  -0.535896  0  2.301325  0
O  O71  1  0.24361231  0.58994345  0.52046571  1  -1.147969  0  -0.316901  -0.532999  0  2.296341  0
