# generated using pymatgen
data_Zr6H29C50O37F
_symmetry_space_group_name_H-M   'P 1'
_cell_length_a   14.77887359
_cell_length_b   14.78747520
_cell_length_c   14.80298255
_cell_angle_alpha   60.13161855
_cell_angle_beta   59.94547074
_cell_angle_gamma   60.05332769
_symmetry_Int_Tables_number   1
_chemical_formula_structural   Zr6H29C50O37F
_chemical_formula_sum   'Zr6 H29 C50 O37 F1'
_cell_volume   2289.78659872
_cell_formula_units_Z   1
loop_
 _symmetry_equiv_pos_site_id
 _symmetry_equiv_pos_as_xyz
  1  'x, y, z'
loop_
 _atom_site_type_symbol
 _atom_site_label
 _atom_site_symmetry_multiplicity
 _atom_site_fract_x
 _atom_site_fract_y
 _atom_site_fract_z
 _atom_site_occupancy
 _atom_site_pbe_bader_charge
 _atom_site_pbe_bader_spin_density
 _atom_site_pbe_cm5_charge
 _atom_site_pbe_ddec_charge
 _atom_site_pbe_ddec_spin_density
 _atom_site_pbe_ddec_sum_bond_order
 _atom_site_pbe_magmom
Zr  Zr0  1  0.87759018  0.88152407  0.61859015  1  2.636008  0  1.63264  2.371233  0  2.757313  0
Zr  Zr1  1  0.11766928  0.11824032  0.38162145  1  2.626913  0  1.630911  2.368192  0  2.776095  0
Zr  Zr2  1  0.11642032  0.88133260  0.61896081  1  2.63335  0  1.62897  2.370844  0  2.761162  0
Zr  Zr3  1  0.87847263  0.12086743  0.37899522  1  2.637355  0  1.632835  2.373278  0  2.751029  0
Zr  Zr4  1  0.11662332  0.88159233  0.37944331  1  2.636656  0  1.629337  2.371209  0  2.757327  0
Zr  Zr5  1  0.87804128  0.12089468  0.61811150  1  2.632952  0  1.629701  2.371411  0  2.758484  0
H  H6  1  0.09196687  0.71914347  0.59284227  1  0.608167  0  0.332306  0.423366  0  0.858108  0
H  H7  1  0.09353824  0.09382811  0.21765856  1  0.6082  0  0.333116  0.425247  0  0.852898  0
H  H8  1  0.09249433  0.09447195  0.59360757  1  0.614327  0  0.331975  0.424721  0  0.856123  0
H  H9  1  0.71575689  0.09533061  0.59317398  1  0.608119  0  0.333661  0.425072  0  0.854689  0
H  H10  1  0.84945717  0.58765874  0.64437093  1  0.068929  0  0.106487  0.114965  0  1.005288  0
H  H11  1  0.14201809  0.58858290  0.35332967  1  0.102488  0  0.116888  0.14163  0  0.981169  0
H  H12  1  0.85229165  0.41737021  0.64256280  1  0.130688  0  0.110188  0.115623  0  0.988842  0
H  H13  1  0.58764089  0.85041401  0.91772066  1  0.082171  0  0.106533  0.114806  0  1.006674  0
H  H14  1  0.58991311  0.14092374  0.91773664  1  0.100513  0  0.116675  0.141146  0  0.98212  0
H  H15  1  0.41817935  0.85200708  0.08792385  1  0.097799  0  0.109656  0.115404  0  0.989275  0
H  H16  1  0.14198603  0.85236373  0.08582175  1  0.072758  0  0.108683  0.118929  0  0.99675  0
H  H17  1  0.85020893  0.14344865  0.08913219  1  0.11911  0  0.115015  0.137213  0  0.989048  0
H  H18  1  0.14005516  0.85543566  0.91578135  1  0.103358  0  0.110525  0.11653  0  0.987859  0
H  H19  1  0.58654828  0.42034692  0.64122830  1  0.088208  0  0.108766  0.119584  0  0.995856  0
H  H20  1  0.58881436  0.41684124  0.35058012  1  0.101731  0  0.114763  0.13638  0  0.990772  0
H  H21  1  0.41710375  0.58996308  0.63872926  1  0.10708  0  0.110437  0.11642  0  0.987712  0
H  H22  1  0.14137850  0.59006937  0.91677274  1  0.117106  0  0.117983  0.148234  0  0.979822  0
H  H23  1  0.74180210  0.62495228  0.96274113  1  0.04416  0  0.099871  0.110663  0  0.983846  0
H  H24  1  0.82926304  0.53960128  0.87735271  1  0.044013  0  0.099754  0.109726  0  0.983507  0
H  H25  1  0.83328423  0.36965230  0.04735155  1  0.046465  0  0.101175  0.113725  0  0.980533  0
H  H26  1  0.74613393  0.45483541  0.13277529  1  0.050015  0  0.102229  0.115991  0  0.980365  0
H  H27  1  0.58617396  0.14413251  0.34982126  1  0.086134  0  0.109813  0.120806  0  0.994815  0
H  H28  1  0.58834980  0.85317135  0.64049119  1  0.081442  0  0.116095  0.140545  0  0.981623  0
H  H29  1  0.41632213  0.14174224  0.35257076  1  0.089001  0  0.111381  0.117969  0  0.987338  0
H  H30  1  0.14893071  0.35099197  0.34445214  1  0.638424  0  0.310938  0.357653  0  0.962611  0
H  H31  1  0.34992075  0.14956809  0.15511628  1  0.635256  0  0.310686  0.356211  0  0.965304  0
H  H32  1  0.84374104  0.15155294  0.84951504  1  0.644668  0  0.309204  0.355713  0  0.967504  0
H  H33  1  0.35035035  0.65618550  0.34287725  1  0.637762  0  0.309364  0.355429  0  0.967892  0
H  H34  1  0.34874957  0.84583005  0.64856341  1  0.650317  0  0.30909  0.353826  0  0.971119  0
C  C35  1  0.99501941  0.69955332  0.49750224  1  1.549504  0  0.240351  0.645863  0  4.079832  0
C  C36  1  0.30855246  0.99529513  0.19735485  1  1.48525  0  0.233878  0.650699  0  4.086689  0
C  C37  1  0.99555291  0.30847193  0.49886494  1  1.515328  0  0.233782  0.64871  0  4.088868  0
C  C38  1  0.69846968  0.99685149  0.80640637  1  1.539247  0  0.240582  0.644005  0  4.079665  0
C  C39  1  0.99498051  0.70142595  0.80510480  1  1.538355  0  0.239294  0.648193  0  4.097926  0
C  C40  1  0.69778289  0.99847722  0.49502183  1  1.554472  0  0.241484  0.645101  0  4.080307  0
C  C41  1  0.99857605  0.30567247  0.20019050  1  1.554744  0  0.237319  0.667183  0  4.100953  0
C  C42  1  0.30734417  0.99825997  0.49584705  1  1.494937  0  0.233948  0.64983  0  4.087071  0
C  C43  1  0.30778340  0.69822213  0.49594390  1  1.472609  0  0.234569  0.652848  0  4.080855  0
C  C44  1  0.99622874  0.99840566  0.80760849  1  1.512534  0  0.234479  0.651935  0  4.082532  0
C  C45  1  0.69823586  0.30815567  0.49578751  1  1.521294  0  0.240644  0.644783  0  4.079741  0
C  C46  1  0.99579476  0.99771013  0.19814795  1  1.552559  0  0.240265  0.643866  0  4.080631  0
C  C47  1  0.99717591  0.40806144  0.49757881  1  -0.025946  0  -0.034727  -0.192493  0  3.965303  0
C  C48  1  0.99560083  0.59787274  0.49849227  1  -0.079016  0  -0.01226  -0.012713  0  3.995041  0
C  C49  1  0.08046075  0.45661423  0.41482584  1  0.519587  0  0.098568  0.321872  0  4.049006  0
C  C50  1  0.91325788  0.54994727  0.58125239  1  0.010881  0  -0.098275  -0.134701  0  4.006525  0
C  C51  1  0.07837075  0.55147513  0.41678692  1  0.048742  0  -0.090419  -0.20796  0  3.908355  0
C  C52  1  0.91492288  0.45621307  0.57991677  1  -0.008573  0  -0.080759  -0.061593  0  4.004339  0
C  C53  1  0.40895088  0.99637687  0.09809340  1  -0.009852  0  -0.035475  -0.194716  0  3.966639  0
C  C54  1  0.59856908  0.99554571  0.90841261  1  -0.074337  0  -0.012209  -0.011002  0  3.992023  0
C  C55  1  0.45770495  0.07940052  0.04939642  1  0.560668  0  0.098748  0.322153  0  4.047775  0
C  C56  1  0.55068260  0.91322931  0.95576238  1  -0.006248  0  -0.09796  -0.135049  0  4.006717  0
C  C57  1  0.55275251  0.07740611  0.95471519  1  0.053119  0  -0.090115  -0.207672  0  3.907348  0
C  C58  1  0.45714919  0.91444505  0.04947078  1  -0.020368  0  -0.080384  -0.061011  0  4.004378  0
C  C59  1  0.99497410  0.99986515  0.90724277  1  -0.046365  0  -0.034979  -0.19197  0  3.964615  0
C  C60  1  0.99589793  0.99783691  0.09714173  1  -0.064077  0  -0.011071  -0.009494  0  3.990865  0
C  C61  1  0.91223705  0.08286426  0.95623355  1  0.5472  0  0.096733  0.320583  0  4.052404  0
C  C62  1  0.07857461  0.91581877  0.04878591  1  -0.009838  0  -0.095538  -0.129554  0  3.99884  0
C  C63  1  0.91396810  0.08037914  0.05127039  1  0.041784  0  -0.092172  -0.213632  0  3.917251  0
C  C64  1  0.07720409  0.91772694  0.95503394  1  0.007534  0  -0.079769  -0.061591  0  4.002341  0
C  C65  1  0.40816805  0.59896438  0.49399100  1  -0.031336  0  -0.034579  -0.194418  0  3.966719  0
C  C66  1  0.59762756  0.40942832  0.49545771  1  -0.002914  0  -0.011239  -0.010332  0  3.991298  0
C  C67  1  0.45721944  0.54968675  0.41127135  1  0.553404  0  0.096201  0.320417  0  4.052681  0
C  C68  1  0.54956777  0.45747562  0.57775815  1  0.024452  0  -0.096034  -0.130917  0  3.998507  0
C  C69  1  0.55180362  0.45485942  0.41346987  1  -0.001069  0  -0.092033  -0.212632  0  3.916809  0
C  C70  1  0.45607327  0.55103530  0.57613692  1  -0.040867  0  -0.079058  -0.059429  0  4.001634  0
C  C71  1  0.99513845  0.60136124  0.90533427  1  0.010408  0  -0.007932  -0.051193  0  3.984853  0
C  C72  1  0.99920906  0.40576596  0.10025374  1  0.004033  0  -0.019371  -0.19832  0  3.953193  0
C  C73  1  0.91672569  0.54920041  0.95612953  1  0.039696  0  -0.00632  0.047488  0  3.88928  0
C  C74  1  0.07859572  0.45960153  0.04657511  1  0.450046  0  0.110231  0.282946  0  4.028841  0
C  C75  1  0.91927475  0.45502141  0.05005464  1  -0.009989  0  0.00197  0.087292  0  3.888088  0
C  C76  1  0.07734323  0.55363789  0.95309881  1  0.02592  0  -0.093069  -0.231105  0  3.971595  0
C  C77  1  0.81543046  0.55176337  0.95128618  1  0.009539  0  -0.147712  -0.193076  0  3.874373  0
C  C78  1  0.81808293  0.44508758  0.05787379  1  0.005866  0  -0.146351  -0.196708  0  3.863441  0
C  C79  1  0.40722938  0.99684602  0.49690658  1  -0.043378  0  -0.034924  -0.19546  0  3.970395  0
C  C80  1  0.59689845  0.99829174  0.49497232  1  -0.040595  0  -0.010813  -0.010677  0  3.991691  0
C  C81  1  0.45593235  0.91430802  0.57972462  1  0.515286  0  0.097163  0.321729  0  4.051405  0
C  C82  1  0.54893632  0.08070140  0.41305991  1  -0.001721  0  -0.094446  -0.128443  0  3.996448  0
C  C83  1  0.55089557  0.91630348  0.57731709  1  0.067927  0  -0.09116  -0.211158  0  3.914091  0
C  C84  1  0.45523875  0.07913764  0.41483116  1  0.021048  0  -0.078656  -0.058274  0  3.996458  0
O  O85  1  0.91824439  0.73937016  0.57432056  1  -1.185427  0  -0.354685  -0.616728  0  2.282393  0
O  O86  1  0.26691363  0.07352142  0.23797263  1  -1.180425  0  -0.352679  -0.632097  0  2.318829  0
O  O87  1  0.07394479  0.26677825  0.42174985  1  -1.19115  0  -0.35151  -0.630924  0  2.318482  0
O  O88  1  0.73686010  0.92142459  0.76530543  1  -1.175632  0  -0.3549  -0.615349  0  2.284022  0
O  O89  1  0.07235506  0.74097194  0.76465800  1  -1.184959  0  -0.361453  -0.622484  0  2.28068  0
O  O90  1  0.73708264  0.07572288  0.41899435  1  -1.181919  0  -0.355225  -0.616813  0  2.279951  0
O  O91  1  0.92137477  0.26712881  0.23733811  1  -1.173545  0  -0.348884  -0.609146  0  2.259895  0
O  O92  1  0.26555950  0.92126480  0.57400253  1  -1.18762  0  -0.352003  -0.632028  0  2.320267  0
O  O93  1  0.26611941  0.73795374  0.41920145  1  -1.180884  0  -0.350685  -0.631397  0  2.315458  0
O  O94  1  0.91890399  0.07652267  0.76649422  1  -1.192486  0  -0.350453  -0.631861  0  2.317087  0
O  O95  1  0.73715884  0.26777537  0.57324705  1  -1.175233  0  -0.356539  -0.619294  0  2.277249  0
O  O96  1  0.07264323  0.92106515  0.23772853  1  -1.180964  0  -0.356298  -0.618926  0  2.277145  0
O  O97  1  0.07224010  0.92294820  0.76617541  1  -1.188416  0  -0.351558  -0.61302  0  2.277278  0
O  O98  1  0.73795944  0.26775516  0.41948116  1  -1.178294  0  -0.355614  -0.62003  0  2.285786  0
O  O99  1  0.91988534  0.07515213  0.23743609  1  -1.181824  0  -0.355385  -0.619782  0  2.28737  0
O  O100  1  0.26617275  0.73900154  0.57203876  1  -1.178415  0  -0.351505  -0.612789  0  2.27363  0
O  O101  1  0.91845432  0.73962615  0.76583521  1  -1.171722  0  -0.346231  -0.605566  0  2.267097  0
O  O102  1  0.26594836  0.07417422  0.42067507  1  -1.186029  0  -0.353601  -0.613136  0  2.276928  0
O  O103  1  0.07451637  0.26408198  0.24147550  1  -1.174689  0  -0.364546  -0.627117  0  2.311348  0
O  O104  1  0.73713775  0.92234405  0.57195715  1  -1.184627  0  -0.356767  -0.619098  0  2.285969  0
O  O105  1  0.73795664  0.07412786  0.76593227  1  -1.186267  0  -0.359077  -0.624249  0  2.281598  0
O  O106  1  0.07202400  0.73932876  0.42079808  1  -1.185818  0  -0.358693  -0.624042  0  2.28451  0
O  O107  1  0.26677770  0.92032563  0.23747975  1  -1.18464  0  -0.350895  -0.611433  0  2.274455  0
O  O108  1  0.91974069  0.26746013  0.57469327  1  -1.192149  0  -0.351899  -0.611158  0  2.277959  0
O  O109  1  0.79614184  0.06857393  0.56620918  1  -1.233277  0  -0.694678  -1.06738  0  2.364231  0
O  O110  1  0.06553696  0.06765877  0.56708932  1  -1.243103  0  -0.697658  -1.070348  0  2.366526  0
O  O111  1  0.06658271  0.06704654  0.29782757  1  -1.234516  0  -0.696796  -1.070432  0  2.368134  0
O  O112  1  0.06545822  0.79931103  0.56612571  1  -1.233964  0  -0.695154  -1.068557  0  2.36813  0
O  O113  1  0.14805165  0.95002378  0.44974085  1  -1.194487  0  -0.793112  -1.147749  0  2.127278  0
O  O114  1  0.94854982  0.95168593  0.44950684  1  -1.198645  0  -0.790471  -1.14646  0  2.130421  0
O  O115  1  0.94892391  0.14940706  0.44992145  1  -1.194702  0  -0.793034  -1.148343  0  2.135928  0
O  O116  1  0.94819586  0.95169591  0.64788254  1  -1.198643  0  -0.790719  -1.147585  0  2.129226  0
O  O117  1  0.16232131  0.41628116  0.33319711  1  -1.137561  0  -0.351041  -0.437167  0  2.249854  0
O  O118  1  0.41688290  0.16148533  0.08933210  1  -1.137209  0  -0.350743  -0.435858  0  2.249035  0
O  O119  1  0.83114841  0.16500624  0.91541338  1  -1.158891  0  -0.354597  -0.442583  0  2.2437  0
O  O120  1  0.41685636  0.58997202  0.32971619  1  -1.144753  0  -0.354946  -0.442586  0  2.243709  0
O  O121  1  0.41492850  0.83311156  0.66163031  1  -1.158812  0  -0.356301  -0.443706  0  2.244892  0
F  F122  1  0.16180228  0.41964982  0.08563691  1  -0.621427  0  -0.097709  -0.132672  0  1.354881  0
