# generated using pymatgen
data_CoH3C6(NO2)2
_symmetry_space_group_name_H-M   'P 1'
_cell_length_a   5.69954074
_cell_length_b   8.11388796
_cell_length_c   9.55273457
_cell_angle_alpha   64.96532381
_cell_angle_beta   89.82217303
_cell_angle_gamma   89.50855837
_symmetry_Int_Tables_number   1
_chemical_formula_structural   CoH3C6(NO2)2
_chemical_formula_sum   'Co2 H6 C12 N4 O8'
_cell_volume   400.25206409
_cell_formula_units_Z   2
loop_
 _symmetry_equiv_pos_site_id
 _symmetry_equiv_pos_as_xyz
  1  'x, y, z'
loop_
 _atom_site_type_symbol
 _atom_site_label
 _atom_site_symmetry_multiplicity
 _atom_site_fract_x
 _atom_site_fract_y
 _atom_site_fract_z
 _atom_site_occupancy
 _atom_site_hle17_ddec_charge
 _atom_site_hle17_ddec_spin_density
 _atom_site_hle17_ddec_sum_bond_order
 _atom_site_hle17_magmom
 _atom_site_hse06_10hf_ddec_charge
 _atom_site_hse06_10hf_ddec_spin_density
 _atom_site_hse06_10hf_ddec_sum_bond_order
 _atom_site_hse06_10hf_magmom
 _atom_site_hse06_ddec_charge
 _atom_site_hse06_ddec_spin_density
 _atom_site_hse06_ddec_sum_bond_order
 _atom_site_hse06_magmom
 _atom_site_pbe_cm5_charge
 _atom_site_pbe_ddec_charge
 _atom_site_pbe_ddec_spin_density
 _atom_site_pbe_ddec_sum_bond_order
 _atom_site_pbe_magmom
Co  Co0  1  0.50028347  0.15098624  0.69832065  1  0.722935  -1.325342  2.561494  -1.121  0.722397  -1.13587  2.994717  -1.005  0.766789  -1.085465  2.939643  -0.981  0.686989  0.691824  -1.103905  3.029881  -0.966
Co  Co1  1  0.49946489  0.84879423  0.30164581  1  0.722874  1.325432  2.561556  1.121  0.722362  1.135912  2.994803  1.005  0.766883  1.085483  2.939541  0.981  0.687064  0.69178  1.103929  3.029957  0.966
H  H2  1  0.94557977  0.89072285  0.74838119  1  0.12522  0.000118  0.933026  0.001  0.131492  -9.7e-05  0.992443  0.0  0.139992  -1.9e-05  0.9822  0.0  0.133281  0.124894  -0.000148  1.000382  0.0
H  H3  1  0.05572987  0.36191259  0.74858855  1  0.124678  0.000128  0.932896  0.001  0.131557  -6.1e-05  0.991689  0.0  0.139913  -7e-06  0.981646  0.0  0.133258  0.125109  -0.00015  0.999551  0.0
H  H4  1  0.05458845  0.10956534  0.25165551  1  0.124786  -0.000116  0.932818  -0.001  0.131407  0.0001  0.991954  0.0  0.139904  2.2e-05  0.981724  0.0  0.133254  0.124801  0.000152  0.9999  0.0
H  H5  1  0.94457476  0.63865187  0.25149579  1  0.124493  -0.000134  0.932917  -0.001  0.13144  5.8e-05  0.991758  0.0  0.139789  5e-06  0.981738  0.0  0.133251  0.124974  0.000147  0.999635  0.0
H  H6  1  0.11783815  0.66418028  0.99988199  1  0.128103  5e-05  0.922369  0.0  0.139996  4.5e-05  0.972454  0.0  0.145084  1.9e-05  0.969479  0.0  0.121595  0.136129  -1e-06  0.975255  0.0
H  H7  1  0.88287167  0.33660175  0.00020056  1  0.128249  -5.4e-05  0.922833  0.0  0.140013  -4.5e-05  0.972964  0.0  0.145079  -1.9e-05  0.970005  0.0  0.121578  0.136159  1e-06  0.975752  0.0
C  C8  1  0.59911440  0.94714145  0.99997453  1  0.258459  0.000222  3.812947  0.0  0.237088  1.4e-05  4.075022  0.0  0.258656  -3.7e-05  4.07535  0.0  0.229019  0.223329  -2.8e-05  4.074347  0.0
C  C9  1  0.40054661  0.05276445  0.00003346  1  0.258616  -0.000328  3.812675  0.0  0.237315  -7e-05  4.07454  0.0  0.258911  4e-06  4.074881  0.0  0.22904  0.223535  -1.3e-05  4.073859  0.0
C  C10  1  0.87061538  0.87011643  0.85955230  1  0.174875  -0.006507  3.56865  -0.008  0.139724  -0.002889  3.826736  -0.004  0.164096  -0.000733  3.820427  -0.001  0.066698  0.122477  -0.003685  3.833657  -0.005
C  C11  1  0.13012864  0.27103154  0.85976502  1  0.176135  -0.004717  3.568596  -0.006  0.140282  -0.002252  3.8269  -0.003  0.164921  -0.000414  3.820481  -0.001  0.067354  0.123108  -0.003722  3.833152  -0.005
C  C12  1  0.12949855  0.13015483  0.14043487  1  0.175893  0.006557  3.568941  0.008  0.140054  0.002912  3.827563  0.004  0.164419  0.000745  3.821277  0.001  0.066662  0.122799  0.003709  3.834458  0.005
C  C13  1  0.87010940  0.72942033  0.14024415  1  0.175875  0.004754  3.570179  0.006  0.139823  0.002271  3.828845  0.003  0.164395  0.000419  3.822472  0.001  0.067228  0.122686  0.003737  3.835051  0.005
C  C14  1  0.96583135  0.74644918  0.99991504  1  -0.153781  0.000355  3.66199  0.0  -0.166736  8.7e-05  3.919053  0.0  -0.173882  6.5e-05  3.921916  0.0  -0.072218  -0.163647  -1e-05  3.919805  0.0
C  C15  1  0.03456749  0.25408532  0.00015467  1  -0.154128  -0.000389  3.66208  -0.001  -0.166728  -0.000107  3.919016  0.0  -0.173852  -7.3e-05  3.921827  0.0  -0.071926  -0.163655  -5e-06  3.9198  0.0
C  C16  1  0.38996137  0.94233687  0.53563329  1  0.519385  0.00226  3.8831  0.006  0.483551  -0.000113  4.185981  0.002  0.518102  0.000143  4.181565  0.001  0.210197  0.458327  -0.000488  4.188314  0.002
C  C17  1  0.60987707  0.52183956  0.53553857  1  0.519548  0.002238  3.880318  0.006  0.483771  -0.000168  4.183497  0.002  0.518413  9.7e-05  4.179358  0.001  0.210299  0.458569  -0.000475  4.186759  0.002
C  C18  1  0.60968409  0.05716027  0.46442160  1  0.520169  -0.002271  3.880906  -0.006  0.48463  0.000108  4.183511  -0.002  0.519186  -0.000148  4.179094  -0.001  0.21048  0.459402  0.000485  4.185841  -0.002
C  C19  1  0.39013191  0.47776489  0.46432629  1  0.518516  -0.002219  3.881283  -0.006  0.482842  0.000179  4.184473  -0.002  0.517475  -8.6e-05  4.180352  -0.001  0.210069  0.457644  0.000487  4.187725  -0.002
N  N20  1  0.68318386  0.97347931  0.85984584  1  -0.298244  0.013366  3.333589  0.02  -0.25832  0.006456  3.62479  0.011  -0.275784  0.003418  3.625076  0.006  -0.328991  -0.2482  0.007147  3.625749  0.013
N  N21  1  0.31736670  0.16718242  0.85993453  1  -0.29891  0.013606  3.332732  0.021  -0.258708  0.006539  3.623949  0.012  -0.276103  0.003385  3.623872  0.006  -0.328879  -0.24804  0.007128  3.623639  0.013
N  N22  1  0.31661484  0.02649524  0.14013946  1  -0.299287  -0.013354  3.333219  -0.02  -0.259164  -0.006451  3.624495  -0.011  -0.276667  -0.003409  3.624787  -0.006  -0.32923  -0.248991  -0.007132  3.625404  -0.013
N  N23  1  0.68248647  0.83293176  0.14002263  1  -0.298458  -0.013638  3.335048  -0.021  -0.258302  -0.006563  3.626523  -0.012  -0.275651  -0.003401  3.626394  -0.006  -0.329119  -0.24763  -0.007145  3.626186  -0.013
O  O24  1  0.31217649  0.93835242  0.66024588  1  -0.520459  -0.040084  2.041511  -0.065  -0.500527  -0.03358  2.286719  -0.055  -0.539687  -0.026467  2.282919  -0.044  -0.278892  -0.468482  -0.038331  2.286223  -0.061
O  O25  1  0.68810182  0.40166741  0.66010785  1  -0.519412  -0.039593  2.039549  -0.064  -0.499441  -0.032976  2.284661  -0.054  -0.539073  -0.026154  2.28114  -0.043  -0.279001  -0.468677  -0.03837  2.284922  -0.061
O  O26  1  0.68753465  0.06112981  0.33981961  1  -0.51998  0.040214  2.041249  0.065  -0.500276  0.033651  2.286496  0.055  -0.539474  0.026523  2.2827  0.044  -0.278715  -0.468211  0.038404  2.285988  0.061
O  O27  1  0.31201061  0.59786361  0.33970752  1  -0.518676  0.039469  2.039717  0.064  -0.498661  0.032906  2.284686  0.054  -0.538297  0.026098  2.281198  0.043  -0.278708  -0.467905  0.038282  2.284938  0.061
O  O28  1  0.30095774  0.85855939  0.46146447  1  -0.480124  -0.01152  2.121159  -0.019  -0.463608  -0.003111  2.382737  -0.006  -0.505918  -0.00329  2.381033  -0.007  -0.28537  -0.433331  -0.001916  2.382793  -0.004
O  O29  1  0.69835463  0.67969985  0.46141919  1  -0.478545  -0.012285  2.119445  -0.02  -0.462782  -0.003372  2.381214  -0.006  -0.505816  -0.003283  2.37993  -0.007  -0.285527  -0.433684  -0.00185  2.382085  -0.004
O  O30  1  0.69871013  0.14096802  0.53857793  1  -0.480551  0.011482  2.120195  0.019  -0.463975  0.003085  2.381644  0.006  -0.506269  0.003269  2.37994  0.007  -0.285266  -0.433675  0.001886  2.381666  0.004
O  O31  1  0.30150612  0.32000323  0.53854665  1  -0.478252  0.012297  2.120206  0.02  -0.462516  0.003402  2.381959  0.007  -0.505534  0.003312  2.380712  0.007  -0.285471  -0.433419  0.001884  2.382812  0.004
