# generated using pymatgen
data_MnHgH2C4S4N4O
_symmetry_space_group_name_H-M   'P 1'
_cell_length_a   8.35820477
_cell_length_b   11.79684101
_cell_length_c   16.96204462
_cell_angle_alpha   89.99997394
_cell_angle_beta   89.98772220
_cell_angle_gamma   93.03183257
_symmetry_Int_Tables_number   1
_chemical_formula_structural   MnHgH2C4S4N4O
_chemical_formula_sum   'Mn4 Hg4 H8 C16 S16 N16 O4'
_cell_volume   1670.12361985
_cell_formula_units_Z   4
loop_
 _symmetry_equiv_pos_site_id
 _symmetry_equiv_pos_as_xyz
  1  'x, y, z'
loop_
 _atom_site_type_symbol
 _atom_site_label
 _atom_site_symmetry_multiplicity
 _atom_site_fract_x
 _atom_site_fract_y
 _atom_site_fract_z
 _atom_site_occupancy
 _atom_site_pbe_bader_charge
 _atom_site_pbe_bader_spin_density
 _atom_site_pbe_cm5_charge
 _atom_site_pbe_ddec_charge
 _atom_site_pbe_ddec_spin_density
 _atom_site_pbe_ddec_sum_bond_order
 _atom_site_pbe_magmom
Mn  Mn0  1  0.98688672  0.50556766  0.87291239  1  1.514264  4.40931  0.705993  1.001388  4.574356  2.598003  4.319
Mn  Mn1  1  0.51320298  0.99418317  0.37276976  1  1.514184  4.409412  0.70583  1.000756  4.573455  2.598272  4.319
Mn  Mn2  1  0.01304700  0.49444905  0.12720470  1  1.513586  4.40925  0.706113  1.001349  4.572866  2.598773  4.319
Mn  Mn3  1  0.48703148  0.00549011  0.62724015  1  1.513778  4.409374  0.706069  1.00114  4.572331  2.598717  4.319
Hg  Hg4  1  0.49230665  0.51134220  0.66664858  1  0.567955  0.01875  0.426151  0.349995  0.015058  2.711707  0.013
Hg  Hg5  1  0.00778553  0.98864316  0.16660232  1  0.568072  0.018764  0.426068  0.349617  0.015072  2.711793  0.013
Hg  Hg6  1  0.50758148  0.48857323  0.33335709  1  0.567893  0.018761  0.426328  0.350041  0.01507  2.711721  0.013
Hg  Hg7  1  0.99226783  0.01142689  0.83332614  1  0.567902  0.018747  0.426087  0.349824  0.015059  2.711439  0.013
H  H8  1  0.19690231  0.57441437  0.98883410  1  0.634598  0.001571  0.310376  0.391983  0.001483  0.929854  0.001
H  H9  1  0.22668950  0.44575500  0.98890551  1  0.625571  0.002882  0.323069  0.405696  0.002295  0.881313  0.002
H  H10  1  0.30303832  0.92567059  0.48877970  1  0.634536  0.001556  0.310193  0.391463  0.001472  0.930394  0.001
H  H11  1  0.27374661  0.05447408  0.48876136  1  0.623599  0.002873  0.323323  0.40589  0.002283  0.880973  0.002
H  H12  1  0.80312709  0.42565896  0.01125648  1  0.635609  0.001568  0.310238  0.391366  0.001481  0.930546  0.001
H  H13  1  0.77339210  0.55433054  0.01118743  1  0.625474  0.002886  0.323305  0.405969  0.002302  0.880869  0.002
H  H14  1  0.69687838  0.07435616  0.51113340  1  0.634344  0.001567  0.310159  0.391511  0.00148  0.930422  0.001
H  H15  1  0.72657204  0.94566468  0.51102803  1  0.624943  0.002886  0.323086  0.405971  0.002301  0.881113  0.002
C  C16  1  0.13719609  0.43028224  0.71007345  1  0.597662  0.052743  0.165322  0.278612  0.046837  4.260868  0.045
C  C17  1  0.63247631  0.58100763  0.83689026  1  0.615846  0.046902  0.16717  0.280038  0.04078  4.230583  0.039
C  C18  1  0.98097612  0.25512748  0.93895769  1  0.588815  0.044297  0.170438  0.293122  0.038306  4.220445  0.036
C  C19  1  0.12572805  0.76309085  0.85128659  1  0.606058  0.041384  0.161273  0.267183  0.03626  4.245177  0.035
C  C20  1  0.36280330  0.06973752  0.21003010  1  0.598505  0.05274  0.165269  0.278359  0.046836  4.26087  0.045
C  C21  1  0.86777054  0.91896566  0.33686542  1  0.617537  0.046976  0.167377  0.280049  0.040861  4.230047  0.039
C  C22  1  0.51900440  0.24478530  0.43886469  1  0.590435  0.044009  0.170173  0.292552  0.038081  4.221003  0.036
C  C23  1  0.37397869  0.73681407  0.35129598  1  0.605955  0.041572  0.160955  0.266889  0.036413  4.245776  0.035
C  C24  1  0.86256715  0.56991580  0.28994277  1  0.597805  0.052836  0.165038  0.278314  0.046904  4.261115  0.045
C  C25  1  0.36755988  0.41909542  0.16308182  1  0.615343  0.046926  0.167324  0.280518  0.040796  4.230447  0.039
C  C26  1  0.01899379  0.74489200  0.06107865  1  0.589042  0.044253  0.169864  0.292156  0.038265  4.220236  0.036
C  C27  1  0.87424014  0.23693965  0.14875269  1  0.604221  0.041481  0.161186  0.267239  0.036325  4.245202  0.035
C  C28  1  0.63727525  0.93020205  0.79005815  1  0.597358  0.052865  0.164771  0.278064  0.046917  4.260534  0.045
C  C29  1  0.13248409  0.08101320  0.66311380  1  0.6161  0.046826  0.167185  0.280073  0.040713  4.230146  0.039
C  C30  1  0.48092085  0.75510999  0.56108440  1  0.59015  0.044294  0.170163  0.292472  0.038315  4.220209  0.036
C  C31  1  0.62584913  0.26301527  0.64867194  1  0.606094  0.041422  0.161133  0.266897  0.036303  4.2459  0.035
S  S32  1  0.22978270  0.39587779  0.62954098  1  0.217216  0.037764  -0.099728  -0.168081  0.028709  2.582894  0.02
S  S33  1  0.47648879  0.63057031  0.79309239  1  0.199868  0.025268  -0.073928  -0.121473  0.018774  2.564188  0.013
S  S34  1  0.05552375  0.13419254  0.96028483  1  0.175568  0.030434  -0.108965  -0.185829  0.023685  2.639926  0.015
S  S35  1  0.22689753  0.87856976  0.82338176  1  0.186092  0.03001  -0.090577  -0.153415  0.022969  2.574245  0.016
S  S36  1  0.27027794  0.10424959  0.12953418  1  0.216301  0.037777  -0.099552  -0.167768  0.02872  2.583042  0.02
S  S37  1  0.02389539  0.86952875  0.29308157  1  0.199272  0.025324  -0.073826  -0.121026  0.018802  2.563909  0.013
S  S38  1  0.44453924  0.36573553  0.46026916  1  0.176303  0.030328  -0.109102  -0.185785  0.023607  2.640148  0.015
S  S39  1  0.27290092  0.62134367  0.32334139  1  0.185462  0.030094  -0.090598  -0.153288  0.023039  2.574532  0.016
S  S40  1  0.76989850  0.60436637  0.37043336  1  0.215462  0.037822  -0.099597  -0.167746  0.028749  2.583403  0.02
S  S41  1  0.52359463  0.36954066  0.20683784  1  0.200286  0.025271  -0.073806  -0.121412  0.018764  2.564623  0.013
S  S42  1  0.94442960  0.86580985  0.03971318  1  0.175178  0.030415  -0.108846  -0.185351  0.023671  2.640306  0.015
S  S43  1  0.77311660  0.12144916  0.17666637  1  0.186158  0.030035  -0.090353  -0.153199  0.022995  2.574284  0.016
S  S44  1  0.72986302  0.89578966  0.87054994  1  0.215777  0.037845  -0.099472  -0.167731  0.028769  2.583451  0.02
S  S45  1  0.97633404  0.13050594  0.70685578  1  0.199677  0.025212  -0.073901  -0.121422  0.018728  2.564446  0.013
S  S46  1  0.55540284  0.63416157  0.53970410  1  0.174885  0.030424  -0.109093  -0.185695  0.023678  2.640128  0.015
S  S47  1  0.72694285  0.37852903  0.67655225  1  0.186422  0.030014  -0.090586  -0.153411  0.022975  2.57449  0.016
N  N48  1  0.06858723  0.45469063  0.76795710  1  -1.333129  0.051624  -0.386322  -0.465041  0.024689  3.274262  -0.009
N  N49  1  0.74478723  0.54721037  0.87028880  1  -1.321294  0.050591  -0.373687  -0.485395  0.029268  3.21676  0.001
N  N50  1  0.93051377  0.34560804  0.92655828  1  -1.329842  0.043417  -0.377839  -0.498991  0.023673  3.203161  -0.002
N  N51  1  0.05823521  0.67735734  0.87108261  1  -1.301208  0.046443  -0.373663  -0.453167  0.024919  3.226856  0.0
N  N52  1  0.43140233  0.04521550  0.26788607  1  -1.332778  0.051515  -0.386399  -0.464864  0.024666  3.274374  -0.009
N  N53  1  0.75530550  0.95267957  0.37021235  1  -1.322196  0.050589  -0.373951  -0.485599  0.02922  3.217185  0.001
N  N54  1  0.56940669  0.15431267  0.42637202  1  -1.332048  0.043436  -0.377183  -0.498134  0.023695  3.203057  -0.002
N  N55  1  0.44153637  0.82251937  0.37109251  1  -1.301249  0.046521  -0.373453  -0.453012  0.024889  3.228119  -0.001
N  N56  1  0.93127573  0.54545714  0.23209570  1  -1.331075  0.051487  -0.386324  -0.465118  0.024651  3.274643  -0.009
N  N57  1  0.25517144  0.45287861  0.12973514  1  -1.320935  0.050559  -0.373962  -0.485968  0.029273  3.216588  0.001
N  N58  1  0.06942646  0.65441634  0.07352461  1  -1.329583  0.043401  -0.377293  -0.498211  0.0237  3.202816  -0.002
N  N59  1  0.94169457  0.32269074  0.12896491  1  -1.299503  0.046427  -0.373736  -0.453273  0.024914  3.226974  0.0
N  N60  1  0.56865975  0.95463147  0.73218037  1  -1.3317  0.051561  -0.386084  -0.464774  0.024625  3.273604  -0.009
N  N61  1  0.24492874  0.04722195  0.62980107  1  -1.320346  0.050528  -0.373503  -0.485146  0.029301  3.216403  0.001
N  N62  1  0.43054098  0.84559634  0.57355289  1  -1.330707  0.043462  -0.377524  -0.498384  0.023689  3.202996  -0.002
N  N63  1  0.55842439  0.17725482  0.62890553  1  -1.301762  0.046444  -0.373546  -0.452742  0.024912  3.227504  0.0
O  O64  1  0.20234711  0.50818183  0.95380554  1  -1.24394  0.066581  -0.545171  -0.736811  0.04902  2.111115  0.034
O  O65  1  0.29757255  0.99186258  0.45372471  1  -1.241755  0.066466  -0.545192  -0.736178  0.048905  2.110946  0.034
O  O66  1  0.79767365  0.49188720  0.04627915  1  -1.244988  0.066659  -0.545209  -0.736293  0.049053  2.112127  0.034
O  O67  1  0.70236457  0.00810660  0.54614714  1  -1.243126  0.066573  -0.545058  -0.736765  0.049017  2.110886  0.034
