# generated using pymatgen
data_Cd3H28C42N8O13
_symmetry_space_group_name_H-M   'P 1'
_cell_length_a   16.28114555
_cell_length_b   16.74730713
_cell_length_c   18.57716516
_cell_angle_alpha   112.16261620
_cell_angle_beta   89.99995828
_cell_angle_gamma   90.00003862
_symmetry_Int_Tables_number   1
_chemical_formula_structural   Cd3H28C42N8O13
_chemical_formula_sum   'Cd12 H112 C168 N32 O52'
_cell_volume   4691.10554147
_cell_formula_units_Z   4
loop_
 _symmetry_equiv_pos_site_id
 _symmetry_equiv_pos_as_xyz
  1  'x, y, z'
loop_
 _atom_site_type_symbol
 _atom_site_label
 _atom_site_symmetry_multiplicity
 _atom_site_fract_x
 _atom_site_fract_y
 _atom_site_fract_z
 _atom_site_occupancy
 _atom_site_pbe_bader_charge
 _atom_site_pbe_bader_spin_density
 _atom_site_pbe_cm5_charge
 _atom_site_pbe_ddec_charge
 _atom_site_pbe_ddec_spin_density
 _atom_site_pbe_ddec_sum_bond_order
 _atom_site_pbe_magmom
Cd  Cd0  1  0.79278143  0.92192994  0.77908939  1  1.332055  0  0.804716  0.998923  0  2.145484  0
Cd  Cd1  1  0.29278090  0.57806875  0.72091057  1  1.332032  0  0.80473  0.998948  0  2.145503  0
Cd  Cd2  1  0.20721877  0.07806904  0.22091081  1  1.332052  0  0.804729  0.998918  0  2.145539  0
Cd  Cd3  1  0.70721931  0.42193086  0.27908876  1  1.332053  0  0.804726  0.998928  0  2.14549  0
Cd  Cd4  1  0.86050367  0.14313414  0.77604931  1  1.269458  0  0.771822  0.922466  0  2.148137  0
Cd  Cd5  1  0.36050333  0.35686741  0.72395117  1  1.269458  0  0.771835  0.922471  0  2.148187  0
Cd  Cd6  1  0.13949592  0.85686741  0.22395123  1  1.269407  0  0.771821  0.922479  0  2.148112  0
Cd  Cd7  1  0.63949688  0.64313543  0.27604872  1  1.269395  0  0.771802  0.922426  0  2.148184  0
Cd  Cd8  1  0.43785317  0.72545090  0.43049647  1  1.278123  0  0.774515  0.933284  0  2.118139  0
Cd  Cd9  1  0.93785378  0.77454886  0.06950386  1  1.278114  0  0.774531  0.933292  0  2.118144  0
Cd  Cd10  1  0.56214458  0.27455001  0.56950438  1  1.278096  0  0.774529  0.933294  0  2.11816  0
Cd  Cd11  1  0.06214704  0.22545205  0.93049645  1  1.278218  0  0.774518  0.933272  0  2.118153  0
H  H12  1  0.91524949  0.65341147  0.52234654  1  0.055387  0  0.102875  0.10385  0  1.017405  0
H  H13  1  0.41525015  0.84658856  0.97765326  1  0.055388  0  0.102913  0.103932  0  1.017417  0
H  H14  1  0.08475071  0.34658944  0.47765377  1  0.055378  0  0.102892  0.103923  0  1.017377  0
H  H15  1  0.58475067  0.15341170  0.02234630  1  0.055386  0  0.102862  0.103835  0  1.017398  0
H  H16  1  0.16146099  0.71765772  0.61037515  1  0.102978  0  0.100656  0.106543  0  1.050141  0
H  H17  1  0.66146073  0.78234155  0.88962456  1  0.10296  0  0.100663  0.106528  0  1.050237  0
H  H18  1  0.83853921  0.28234318  0.38962409  1  0.102999  0  0.100672  0.106566  0  1.050082  0
H  H19  1  0.33853886  0.21765742  0.11037509  1  0.102981  0  0.100644  0.106519  0  1.050169  0
H  H20  1  0.21474103  0.59633164  0.49791625  1  0.093814  0  0.100034  0.099944  0  1.017095  0
H  H21  1  0.71474056  0.90366672  0.00208267  1  0.093824  0  0.100047  0.099959  0  1.017071  0
H  H22  1  0.78525917  0.40366797  0.50208308  1  0.093829  0  0.100027  0.099902  0  1.017089  0
H  H23  1  0.28525903  0.09633289  0.99791559  1  0.093808  0  0.100037  0.099915  0  1.017102  0
H  H24  1  0.12159588  0.50358707  0.39586595  1  0.047029  0  0.096489  0.09165  0  1.012012  0
H  H25  1  0.62159600  0.99641189  0.10413270  1  0.047063  0  0.096486  0.091659  0  1.012014  0
H  H26  1  0.87840433  0.49641319  0.60413361  1  0.047033  0  0.09649  0.091674  0  1.012001  0
H  H27  1  0.37840482  0.00358773  0.89586610  1  0.047034  0  0.096485  0.091665  0  1.011998  0
H  H28  1  0.90263737  0.35980134  0.23342437  1  0.168469  0  0.142984  0.110566  0  0.986694  0
H  H29  1  0.40263684  0.14019737  0.26657682  1  0.168459  0  0.142975  0.110562  0  0.986703  0
H  H30  1  0.09736345  0.64019957  0.76657540  1  0.168468  0  0.142983  0.110533  0  0.986699  0
H  H31  1  0.59736398  0.85980225  0.73342467  1  0.168484  0  0.142993  0.110547  0  0.986702  0
H  H32  1  0.82603465  0.57182375  0.43011376  1  0.117538  0  0.117553  0.112543  0  1.022136  0
H  H33  1  0.32603509  0.92817661  0.06988684  1  0.117545  0  0.117551  0.112536  0  1.022159  0
H  H34  1  0.17396556  0.42817781  0.56988623  1  0.117542  0  0.117571  0.112584  0  1.022117  0
H  H35  1  0.67396573  0.07182366  0.93011433  1  0.117514  0  0.117544  0.112566  0  1.022129  0
H  H36  1  0.01042862  0.93996058  0.79859037  1  0.193673  0  0.130958  0.104676  0  1.032245  0
H  H37  1  0.51042836  0.56003798  0.70140919  1  0.193639  0  0.130981  0.10475  0  1.032209  0
H  H38  1  0.98956974  0.06003839  0.20140929  1  0.193651  0  0.130985  0.104714  0  1.032188  0
H  H39  1  0.48957062  0.43996164  0.29859014  1  0.193649  0  0.131001  0.104766  0  1.032231  0
H  H40  1  0.86371872  0.76988379  0.61967167  1  0.121617  0  0.117091  0.119592  0  1.021967  0
H  H41  1  0.36371877  0.73011493  0.88032718  1  0.121616  0  0.11711  0.119646  0  1.021933  0
H  H42  1  0.13628087  0.23011389  0.38032701  1  0.121627  0  0.117094  0.11962  0  1.021973  0
H  H43  1  0.63628082  0.26988598  0.11967205  1  0.121623  0  0.117084  0.119592  0  1.021976  0
H  H44  1  0.12917958  0.87900403  0.50237003  1  0.029945  0  0.102066  0.096639  0  1.018764  0
H  H45  1  0.62917912  0.62099329  0.99762958  1  0.029931  0  0.102042  0.096594  0  1.01879  0
H  H46  1  0.87082001  0.12099495  0.49763178  1  0.029944  0  0.102052  0.09662  0  1.018795  0
H  H47  1  0.37082170  0.37900568  0.00236954  1  0.02994  0  0.102044  0.096602  0  1.018826  0
H  H48  1  0.86605832  0.84397191  0.47829678  1  0.042932  0  0.106669  0.113991  0  0.987809  0
H  H49  1  0.36605861  0.65602588  0.02170347  1  0.042927  0  0.106672  0.114006  0  0.987822  0
H  H50  1  0.13394127  0.15602707  0.52170665  1  0.042961  0  0.106663  0.113961  0  0.987819  0
H  H51  1  0.63394159  0.34397180  0.97829575  1  0.042931  0  0.106678  0.113985  0  0.987812  0
H  H52  1  0.88783136  0.71207426  0.36113892  1  0.091188  0  0.105078  0.111061  0  0.997701  0
H  H53  1  0.38783165  0.78792419  0.13886100  1  0.090886  0  0.10505  0.111019  0  0.997714  0
H  H54  1  0.11216823  0.28792601  0.63886387  1  0.091196  0  0.105063  0.111071  0  0.997725  0
H  H55  1  0.61216856  0.21207414  0.86113844  1  0.091202  0  0.105045  0.111015  0  0.997724  0
H  H56  1  0.02839183  0.66139738  0.31572250  1  0.057911  0  0.099702  0.10113  0  1.018673  0
H  H57  1  0.52839239  0.83860154  0.18427619  1  0.057943  0  0.099654  0.101076  0  1.018637  0
H  H58  1  0.97160653  0.33860352  0.68427727  1  0.057878  0  0.099697  0.101113  0  1.018679  0
H  H59  1  0.47160720  0.16139808  0.81572368  1  0.057922  0  0.099669  0.101075  0  1.01876  0
H  H60  1  0.25452148  0.80348252  0.48755343  1  0.116271  0  0.121845  0.127486  0  0.996474  0
H  H61  1  0.75452208  0.69651779  0.01244559  1  0.116241  0  0.121851  0.127497  0  0.996436  0
H  H62  1  0.74547750  0.19651774  0.51244720  1  0.116269  0  0.121857  0.127514  0  0.996439  0
H  H63  1  0.24547874  0.30348182  0.98755375  1  0.116235  0  0.121867  0.127509  0  0.996451  0
H  H64  1  0.31333310  0.63076765  0.26232382  1  0.112516  0  0.134539  0.091279  0  0.988739  0
H  H65  1  0.81333302  0.86923205  0.23767549  1  0.112531  0  0.134536  0.091292  0  0.988744  0
H  H66  1  0.68666588  0.36923261  0.73767627  1  0.112496  0  0.134523  0.091277  0  0.988747  0
H  H67  1  0.18666657  0.13077143  0.76232300  1  0.112541  0  0.134539  0.091286  0  0.988747  0
H  H68  1  0.05379449  0.12707082  0.70339167  1  0.151095  0  0.136098  0.100595  0  1.011007  0
H  H69  1  0.55379375  0.37293058  0.79660571  1  0.151111  0  0.136097  0.100581  0  1.011031  0
H  H70  1  0.94620694  0.87293202  0.29660768  1  0.151172  0  0.136118  0.100645  0  1.010983  0
H  H71  1  0.44620399  0.62706967  0.20339169  1  0.151119  0  0.136085  0.100578  0  1.01101  0
H  H72  1  0.85452165  0.96091318  0.60898158  1  0.170282  0  0.120879  0.133384  0  1.025893  0
H  H73  1  0.35452155  0.53908426  0.89102061  1  0.170308  0  0.120867  0.133342  0  1.02592  0
H  H74  1  0.14547856  0.03908838  0.39102164  1  0.170401  0  0.120893  0.133364  0  1.02589  0
H  H75  1  0.64547926  0.46091665  0.10898078  1  0.170314  0  0.120883  0.133353  0  1.025884  0
H  H76  1  0.60774632  0.18838001  0.70853312  1  0.0911  0  0.103414  0.102638  0  1.038822  0
H  H77  1  0.10774527  0.31162013  0.79146649  1  0.091106  0  0.103421  0.102654  0  1.038855  0
H  H78  1  0.39225327  0.81162025  0.29146751  1  0.091097  0  0.10343  0.102661  0  1.038806  0
H  H79  1  0.89225493  0.68838013  0.20853414  1  0.091104  0  0.103414  0.102647  0  1.038863  0
H  H80  1  0.62706712  0.91253744  0.60589448  1  0.103536  0  0.111023  0.123052  0  1.000007  0
H  H81  1  0.12706644  0.58746310  0.89410568  1  0.103545  0  0.111015  0.123022  0  1.000047  0
H  H82  1  0.37293063  0.08746346  0.39410529  1  0.103656  0  0.111  0.123055  0  0.999965  0
H  H83  1  0.87293315  0.41253716  0.10589441  1  0.103529  0  0.111038  0.123091  0  0.999961  0
H  H84  1  0.39956747  0.03550689  0.58979366  1  0.101775  0  0.108244  0.118329  0  0.994632  0
H  H85  1  0.89956732  0.46449338  0.91020528  1  0.101797  0  0.108253  0.11837  0  0.994606  0
H  H86  1  0.60043089  0.96449659  0.41020699  1  0.101785  0  0.108255  0.118341  0  0.994656  0
H  H87  1  0.10043288  0.53550559  0.08979330  1  0.101795  0  0.108242  0.11833  0  0.994638  0
H  H88  1  0.79449698  0.23050372  0.05581042  1  0.11104  0  0.111788  0.123373  0  1.001781  0
H  H89  1  0.29449761  0.26949429  0.44418953  1  0.110986  0  0.111777  0.123384  0  1.001736  0
H  H90  1  0.20550384  0.76949525  0.94418654  1  0.111045  0  0.111785  0.123385  0  1.001714  0
H  H91  1  0.70550505  0.73050275  0.55581002  1  0.111057  0  0.111774  0.123371  0  1.001772  0
H  H92  1  0.89311585  0.97717055  0.93354013  1  0.12529  0  0.111119  0.117706  0  1.014934  0
H  H93  1  0.39311786  0.52282755  0.56646065  1  0.125372  0  0.111115  0.11774  0  1.014952  0
H  H94  1  0.10688312  0.02282779  0.06646147  1  0.125374  0  0.1111  0.117695  0  1.014977  0
H  H95  1  0.60688357  0.47717078  0.43353879  1  0.125274  0  0.111095  0.117705  0  1.014961  0
H  H96  1  0.84485819  0.06324751  0.17868712  1  0.071357  0  0.104437  0.10322  0  1.02251  0
H  H97  1  0.34485966  0.43675181  0.32131432  1  0.071403  0  0.104428  0.103236  0  1.022539  0
H  H98  1  0.15514201  0.93675533  0.82131385  1  0.071371  0  0.104444  0.103236  0  1.022546  0
H  H99  1  0.65514116  0.56324652  0.67868566  1  0.071368  0  0.104447  0.103247  0  1.022511  0
H  H100  1  0.10576773  0.81945484  0.71164377  1  0.552022  0  0.306266  0.281325  0  0.991491  0
H  H101  1  0.60576748  0.68054440  0.78835543  1  0.552007  0  0.306258  0.281361  0  0.991488  0
H  H102  1  0.89423186  0.18054606  0.28835547  1  0.551992  0  0.306248  0.281329  0  0.991514  0
H  H103  1  0.39423211  0.31945457  0.21164477  1  0.551991  0  0.306239  0.281331  0  0.991511  0
H  H104  1  0.03027676  0.42517684  0.31349626  1  0.491842  0  0.346194  0.298384  0  0.89382  0
H  H105  1  0.53027590  0.07482363  0.18650469  1  0.491859  0  0.346177  0.298371  0  0.893836  0
H  H106  1  0.96972468  0.57482407  0.68650405  1  0.49192  0  0.346191  0.298365  0  0.893832  0
H  H107  1  0.46972430  0.92517728  0.81349616  1  0.491846  0  0.346181  0.298387  0  0.893807  0
H  H108  1  0.16243402  0.66943927  0.26114600  1  0.536951  0  0.311275  0.28923  0  0.994643  0
H  H109  1  0.66243453  0.83055907  0.23885349  1  0.536958  0  0.311285  0.289325  0  0.994669  0
H  H110  1  0.83756434  0.33056035  0.73885441  1  0.536957  0  0.31129  0.289331  0  0.994653  0
H  H111  1  0.33756628  0.16944119  0.76114607  1  0.536951  0  0.311299  0.289308  0  0.994652  0
H  H112  1  0.10616551  0.00384247  0.58196454  1  0.485683  0  0.342927  0.294884  0  0.900764  0
H  H113  1  0.60616475  0.49615703  0.91803379  1  0.485602  0  0.342933  0.294904  0  0.900779  0
H  H114  1  0.89383592  0.99615715  0.41803588  1  0.485469  0  0.342955  0.294899  0  0.900784  0
H  H115  1  0.39383606  0.50384194  0.08196371  1  0.485467  0  0.342953  0.294927  0  0.900776  0
H  H116  1  0.83949060  0.84264039  0.90664315  1  0.663586  0  0.285657  0.40003  0  0.928153  0
H  H117  1  0.33949022  0.65735897  0.59335701  1  0.663594  0  0.285644  0.400023  0  0.928179  0
H  H118  1  0.16050899  0.15735988  0.09335802  1  0.6636  0  0.285629  0.399971  0  0.928236  0
H  H119  1  0.66050876  0.34264000  0.40664211  1  0.663599  0  0.285639  0.400019  0  0.928183  0
H  H120  1  0.77819578  0.78793825  0.83409927  1  0.646198  0  0.283702  0.38287  0  0.951086  0
H  H121  1  0.27819477  0.71206108  0.66590092  1  0.646201  0  0.283708  0.382879  0  0.951078  0
H  H122  1  0.22180442  0.21206137  0.16590222  1  0.646181  0  0.283736  0.382893  0  0.951055  0
H  H123  1  0.72180482  0.28793854  0.33409788  1  0.646201  0  0.283717  0.382871  0  0.951085  0
C  C124  1  0.01069705  0.57223002  0.45202178  1  0.039639  0  -0.011948  0.044546  0  4.092137  0
C  C125  1  0.51069717  0.92777019  0.04797790  1  0.039595  0  -0.011959  0.044513  0  4.092216  0
C  C126  1  0.98930377  0.42777089  0.54797799  1  0.039623  0  -0.011945  0.044576  0  4.092147  0
C  C127  1  0.48930242  0.07223008  0.95202220  1  0.039653  0  -0.01197  0.044525  0  4.0922  0
C  C128  1  0.98107901  0.64107530  0.51682293  1  -0.021046  0  -0.089002  -0.167541  0  3.93065  0
C  C129  1  0.48107845  0.85892476  0.98317738  1  -0.021071  0  -0.089064  -0.167643  0  3.930739  0
C  C130  1  0.01892181  0.35892560  0.48317576  1  -0.021074  0  -0.08902  -0.167612  0  3.930707  0
C  C131  1  0.51892114  0.14107550  0.01682325  1  -0.021059  0  -0.088969  -0.167506  0  3.930595  0
C  C132  1  0.03403201  0.69515719  0.57405380  1  -0.011504  0  -0.01116  0.052175  0  4.070837  0
C  C133  1  0.53403173  0.80484332  0.92594587  1  -0.011473  0  -0.011145  0.052163  0  4.07073  0
C  C134  1  0.96596881  0.30484501  0.42594588  1  -0.011499  0  -0.011223  0.052094  0  4.070861  0
C  C135  1  0.46596786  0.19515630  0.07405400  1  -0.011468  0  -0.011174  0.052212  0  4.070772  0
C  C136  1  0.11886571  0.67804294  0.56621517  1  -0.028586  0  -0.095826  -0.133683  0  3.943401  0
C  C137  1  0.61886667  0.82195631  0.93378402  1  -0.028784  0  -0.095829  -0.133678  0  3.943411  0
C  C138  1  0.88113449  0.32195861  0.43378428  1  -0.028626  0  -0.09579  -0.133675  0  3.943319  0
C  C139  1  0.38113353  0.17804331  0.06621585  1  -0.028808  0  -0.095811  -0.133694  0  3.943402  0
C  C140  1  0.14889923  0.60907634  0.50248801  1  -0.083605  0  -0.089878  -0.056308  0  4.021609  0
C  C141  1  0.64889895  0.89092228  0.99751149  1  -0.083428  0  -0.08985  -0.056258  0  4.02147  0
C  C142  1  0.85110159  0.39092392  0.49751155  1  -0.083712  0  -0.089859  -0.056208  0  4.021609  0
C  C143  1  0.35110064  0.10907733  0.00248731  1  -0.083395  0  -0.089873  -0.056254  0  4.021557  0
C  C144  1  0.09585444  0.55665037  0.44523949  1  -0.052659  0  -0.098557  -0.146022  0  3.988842  0
C  C145  1  0.59585395  0.94334859  0.05475971  1  -0.052655  0  -0.098579  -0.146054  0  3.98881  0
C  C146  1  0.90414638  0.44335054  0.55476029  1  -0.052514  0  -0.098535  -0.146055  0  3.988834  0
C  C147  1  0.40414564  0.05665038  0.94523887  1  -0.052671  0  -0.098529  -0.146015  0  3.988925  0
C  C148  1  0.90380621  0.41523250  0.28772440  1  0.965061  0  0.149767  0.162245  0  3.940732  0
C  C149  1  0.40380568  0.08476620  0.21227679  1  0.964863  0  0.149796  0.162303  0  3.940665  0
C  C150  1  0.09619400  0.58476776  0.71227516  1  0.965075  0  0.149764  0.162331  0  3.940637  0
C  C151  1  0.59619514  0.91523342  0.78772416  1  0.964663  0  0.149818  0.162379  0  3.940606  0
C  C152  1  0.86739967  0.52562480  0.38993468  1  0.440899  0  0.006374  -0.069998  0  3.935382  0
C  C153  1  0.36739950  0.97437493  0.11006568  1  0.440857  0  0.006333  -0.070057  0  3.935448  0
C  C154  1  0.13260053  0.47437546  0.61006434  1  0.440883  0  0.006382  -0.069976  0  3.935205  0
C  C155  1  0.63260132  0.02562534  0.88993603  1  0.440882  0  0.006387  -0.07  0  3.935313  0
C  C156  1  0.95207430  0.51999553  0.39424936  1  0.316322  0  0.088895  0.115097  0  4.004936  0
C  C157  1  0.45207475  0.98000295  0.10575053  1  0.316353  0  0.088915  0.115146  0  4.004898  0
C  C158  1  0.04792590  0.48000538  0.60574988  1  0.316308  0  0.088806  0.114913  0  4.004958  0
C  C159  1  0.54792607  0.01999603  0.89424967  1  0.316327  0  0.088867  0.115028  0  4.004787  0
C  C160  1  0.99172874  0.88545208  0.74701748  1  0.957721  0  0.14287  0.160597  0  3.902679  0
C  C161  1  0.49172820  0.61454606  0.75298109  1  0.957639  0  0.142874  0.160541  0  3.902556  0
C  C162  1  0.00827085  0.11454754  0.25298186  1  0.957722  0  0.142881  0.160579  0  3.902649  0
C  C163  1  0.50827139  0.38545292  0.24701910  1  0.95769  0  0.142925  0.160564  0  3.902719  0
C  C164  1  0.91891077  0.79609089  0.65274026  1  0.404177  0  -0.004931  -0.088885  0  3.970824  0
C  C165  1  0.41891022  0.70390786  0.84725911  1  0.404198  0  -0.005003  -0.089021  0  3.970786  0
C  C166  1  0.08108943  0.20390873  0.34725908  1  0.404192  0  -0.005  -0.089011  0  3.97082  0
C  C167  1  0.58108937  0.29609176  0.15274131  1  0.404205  0  -0.004926  -0.08889  0  3.970769  0
C  C168  1  0.99933386  0.76735586  0.63877115  1  0.352304  0  0.076538  0.095084  0  4.01893  0
C  C169  1  0.49933331  0.73264421  0.86122808  1  0.352718  0  0.076544  0.095164  0  4.018912  0
C  C170  1  0.00066635  0.23264505  0.36122809  1  0.352704  0  0.076547  0.095155  0  4.018868  0
C  C171  1  0.50066567  0.26735670  0.13877277  1  0.35188  0  0.076525  0.095064  0  4.018973  0
C  C172  1  0.08863698  0.76787267  0.40631981  1  -0.002593  0  -0.004355  0.06404  0  4.057622  0
C  C173  1  0.58863631  0.73212564  0.09368026  1  -0.002633  0  -0.004386  0.063939  0  4.057575  0
C  C174  1  0.91136261  0.23212695  0.59368223  1  -0.003039  0  -0.004423  0.06391  0  4.057706  0
C  C175  1  0.41136389  0.26787398  0.90632016  1  -0.002593  0  -0.00437  0.063996  0  4.057489  0
C  C176  1  0.07535352  0.84319188  0.47216627  1  -0.043895  0  -0.090789  -0.172634  0  3.939838  0
C  C177  1  0.57535285  0.65680514  0.02783336  1  -0.043841  0  -0.090758  -0.172548  0  3.939744  0
C  C178  1  0.92464607  0.15680646  0.52783532  1  -0.043917  0  -0.090771  -0.172618  0  3.93975  0
C  C179  1  0.42464674  0.34319448  0.97216759  1  -0.043859  0  -0.090781  -0.172623  0  3.939794  0
C  C180  1  0.99633969  0.87180376  0.49920524  1  0.051701  0  -0.012293  0.047584  0  4.089505  0
C  C181  1  0.49633937  0.62819409  0.00079549  1  0.051698  0  -0.012303  0.047607  0  4.089468  0
C  C182  1  0.00365990  0.12819522  0.50079765  1  0.051724  0  -0.012274  0.047625  0  4.089388  0
C  C183  1  0.50366083  0.37180553  0.99920493  1  0.051728  0  -0.012289  0.047655  0  4.08943  0
C  C184  1  0.92841572  0.82334026  0.45843833  1  -0.008914  0  -0.09349  -0.143148  0  3.974592  0
C  C185  1  0.42841602  0.67665692  0.04156221  1  -0.008989  0  -0.093488  -0.14316  0  3.974665  0
C  C186  1  0.07158387  0.17665937  0.54156532  1  -0.008913  0  -0.093464  -0.143006  0  3.974423  0
C  C187  1  0.57158480  0.32334141  0.95843723  1  -0.008979  0  -0.093496  -0.143159  0  3.974654  0
C  C188  1  0.94077604  0.74909366  0.39236042  1  -0.017145  0  -0.090709  -0.075212  0  4.028589  0
C  C189  1  0.44077571  0.75090352  0.10763904  1  -0.0168  0  -0.090687  -0.075203  0  4.028596  0
C  C190  1  0.05922233  0.25090532  0.60764194  1  -0.017171  0  -0.090687  -0.075336  0  4.028495  0
C  C191  1  0.55922326  0.24909546  0.89236062  1  -0.017144  0  -0.090655  -0.075207  0  4.02865  0
C  C192  1  0.02012890  0.72103028  0.36618686  1  -0.085502  0  -0.093799  -0.133101  0  3.960798  0
C  C193  1  0.52012885  0.77896799  0.13381215  1  -0.085471  0  -0.09372  -0.132971  0  3.960725  0
C  C194  1  0.97986946  0.27896998  0.63381485  1  -0.085648  0  -0.093763  -0.13296  0  3.96081  0
C  C195  1  0.47987074  0.22103034  0.86618729  1  -0.085484  0  -0.093767  -0.13298  0  3.960794  0
C  C196  1  0.24469601  0.76165805  0.42739548  1  0.399656  0  0.007896  -0.069399  0  3.934637  0
C  C197  1  0.74469598  0.73834097  0.07260364  1  0.399654  0  0.007849  -0.069412  0  3.93461  0
C  C198  1  0.75530296  0.23834092  0.57260471  1  0.399751  0  0.007861  -0.069436  0  3.934703  0
C  C199  1  0.25530422  0.26165865  0.92739677  1  0.399639  0  0.007904  -0.069346  0  3.934472  0
C  C200  1  0.27857694  0.67181796  0.31232924  1  1.008882  0  0.146632  0.164799  0  3.955327  0
C  C201  1  0.77857687  0.82818173  0.18767009  1  1.008906  0  0.146608  0.164779  0  3.9554  0
C  C202  1  0.72142204  0.32818231  0.68767085  1  1.008874  0  0.146559  0.164724  0  3.955462  0
C  C203  1  0.22142272  0.17182047  0.81232905  1  1.008309  0  0.146612  0.164818  0  3.955249  0
C  C204  1  0.17291729  0.74051584  0.38424345  1  0.387478  0  0.084376  0.105979  0  4.009245  0
C  C205  1  0.67291724  0.75948316  0.11575625  1  0.387491  0  0.084343  0.105935  0  4.009222  0
C  C206  1  0.82708107  0.25948443  0.61575718  1  0.387636  0  0.084396  0.105979  0  4.00931  0
C  C207  1  0.32708297  0.24051711  0.88424492  1  0.387446  0  0.084341  0.105897  0  4.0092  0
C  C208  1  0.01840079  0.07253186  0.66578621  1  1.001633  0  0.148044  0.161306  0  3.958916  0
C  C209  1  0.51840006  0.42746760  0.83421323  1  1.001921  0  0.147983  0.161288  0  3.958985  0
C  C210  1  0.98160126  0.92746970  0.33421486  1  1.001629  0  0.147978  0.161215  0  3.959101  0
C  C211  1  0.48159892  0.57253266  0.16578578  1  1.001914  0  0.148048  0.161369  0  3.958958  0
C  C212  1  0.91673595  0.98535648  0.61315043  1  0.398605  0  0.002908  -0.077775  0  3.930461  0
C  C213  1  0.41673523  0.51464034  0.88684990  1  0.398483  0  0.002906  -0.07771  0  3.930516  0
C  C214  1  0.08326487  0.01464379  0.38685128  1  0.398426  0  0.002899  -0.077705  0  3.930373  0
C  C215  1  0.58326436  0.48535864  0.11314922  1  0.398489  0  0.002871  -0.077788  0  3.930492  0
C  C216  1  0.98488411  0.95028136  0.56777967  1  0.34806  0  0.082488  0.106276  0  4.010894  0
C  C217  1  0.48488337  0.54971614  0.93222138  1  0.348149  0  0.082485  0.106289  0  4.010832  0
C  C218  1  0.01511610  0.04971762  0.43222268  1  0.348078  0  0.082425  0.106183  0  4.010821  0
C  C219  1  0.51511683  0.45028348  0.06777796  1  0.348115  0  0.082466  0.106324  0  4.010785  0
C  C220  1  0.49809310  0.12111714  0.65174123  1  -0.051925  0  -0.02574  -0.060057  0  4.041856  0
C  C221  1  0.99809171  0.37888447  0.84825755  1  -0.051908  0  -0.025766  -0.060044  0  4.041746  0
C  C222  1  0.50190649  0.87888312  0.34825778  1  -0.051949  0  -0.025725  -0.06001  0  4.041806  0
C  C223  1  0.00190788  0.62111708  0.15174190  1  -0.051958  0  -0.025726  -0.060005  0  4.041842  0
C  C224  1  0.57943196  0.12618517  0.67673907  1  -0.031751  0  -0.074303  -0.098539  0  3.942207  0
C  C225  1  0.07943154  0.37381496  0.82326002  1  -0.031751  0  -0.074278  -0.098553  0  3.942229  0
C  C226  1  0.42056824  0.87381444  0.32325973  1  -0.031743  0  -0.074287  -0.098521  0  3.942065  0
C  C227  1  0.92056927  0.62618531  0.17674115  1  -0.031727  0  -0.074287  -0.098556  0  3.94224  0
C  C228  1  0.62501043  0.05122652  0.66311412  1  -0.034638  0  -0.019898  -0.029906  0  3.975981  0
C  C229  1  0.12501005  0.44877363  0.83688495  1  -0.034616  0  -0.019907  -0.029887  0  3.975932  0
C  C230  1  0.37498977  0.94877503  0.33688533  1  -0.034612  0  -0.019928  -0.029963  0  3.97598  0
C  C231  1  0.87499015  0.55122599  0.16311493  1  -0.034626  0  -0.019895  -0.029926  0  3.975991  0
C  C232  1  0.59074966  0.97104108  0.61949650  1  -0.019839  0  -0.067402  -0.091579  0  3.902587  0
C  C233  1  0.09074896  0.52895945  0.88050314  1  -0.019863  0  -0.067439  -0.091631  0  3.902607  0
C  C234  1  0.40924870  0.02896048  0.38050457  1  -0.019888  0  -0.067391  -0.091582  0  3.902608  0
C  C235  1  0.90925063  0.47104016  0.11949619  1  -0.019874  0  -0.067444  -0.091624  0  3.902605  0
C  C236  1  0.50996359  0.96578253  0.59207217  1  -0.01163  0  -0.017192  -0.026484  0  3.97661  0
C  C237  1  0.00996348  0.53421796  0.90792805  1  -0.011641  0  -0.017173  -0.02642  0  3.976526  0
C  C238  1  0.49003539  0.03421773  0.40792739  1  -0.011818  0  -0.017204  -0.026503  0  3.97664  0
C  C239  1  0.99003672  0.46578295  0.09207388  1  -0.011372  0  -0.017165  -0.026483  0  3.976627  0
C  C240  1  0.46271474  0.04059708  0.61040541  1  0.028281  0  -0.069932  -0.092006  0  3.909064  0
C  C241  1  0.96271399  0.45940323  0.88959457  1  0.028275  0  -0.069964  -0.092089  0  3.909014  0
C  C242  1  0.53728423  0.95940448  0.38959512  1  0.028381  0  -0.069942  -0.092059  0  3.909113  0
C  C243  1  0.03728622  0.54059703  0.11040606  1  0.02827  0  -0.069966  -0.092032  0  3.909046  0
C  C244  1  0.44992022  0.20195201  0.67283596  1  1.524993  0  0.20951  0.581502  0  4.184975  0
C  C245  1  0.94991940  0.29804700  0.82716359  1  1.524975  0  0.209518  0.581434  0  4.185102  0
C  C246  1  0.55007876  0.79804890  0.32716327  1  1.525155  0  0.209521  0.581486  0  4.185098  0
C  C247  1  0.05008019  0.70195326  0.17283758  1  1.525019  0  0.209492  0.581439  0  4.185055  0
C  C248  1  0.71003331  0.05939155  0.69574404  1  1.569997  0  0.202328  0.578874  0  4.21387  0
C  C249  1  0.21003357  0.44060735  0.80425456  1  1.570014  0  0.20235  0.578864  0  4.213834  0
C  C250  1  0.28996628  0.94060807  0.30425584  1  1.57001  0  0.202384  0.578996  0  4.213679  0
C  C251  1  0.78996725  0.55939227  0.19574478  1  1.569976  0  0.202365  0.578961  0  4.213801  0
C  C252  1  0.47506800  0.88093919  0.53995760  1  1.556159  0  0.181456  0.548377  0  4.256949  0
C  C253  1  0.97506757  0.61906088  0.96004272  1  1.555737  0  0.181465  0.548388  0  4.256944  0
C  C254  1  0.52492852  0.11905979  0.46004314  1  1.55581  0  0.181427  0.548404  0  4.256708  0
C  C255  1  0.02493264  0.38094004  0.03995867  1  1.555893  0  0.181412  0.548315  0  4.257021  0
C  C256  1  0.81673430  0.15463884  0.12566802  1  -0.045773  0  -0.024879  -0.051057  0  3.994735  0
C  C257  1  0.31673505  0.34536047  0.37433182  1  -0.045256  0  -0.02486  -0.050932  0  3.994759  0
C  C258  1  0.18326467  0.84536142  0.87432938  1  -0.045359  0  -0.024925  -0.051152  0  3.994903  0
C  C259  1  0.68326577  0.65463786  0.62566816  1  -0.045363  0  -0.024824  -0.050938  0  3.994672  0
C  C260  1  0.81517118  0.16876465  0.05601831  1  0.013372  0  -0.067929  -0.087315  0  3.90174  0
C  C261  1  0.31517370  0.33123272  0.44398142  1  0.01338  0  -0.067939  -0.087384  0  3.901769  0
C  C262  1  0.18482903  0.83123561  0.94398017  1  0.013417  0  -0.067904  -0.087308  0  3.901728  0
C  C263  1  0.68482896  0.66876432  0.55601813  1  0.012952  0  -0.067927  -0.08736  0  3.901751  0
C  C264  1  0.84106882  0.10410574  0.98671862  1  -0.01106  0  -0.018645  -0.036594  0  4.002109  0
C  C265  1  0.34107175  0.39589194  0.51328056  1  -0.011625  0  -0.018695  -0.0366  0  4.002203  0
C  C266  1  0.15893138  0.89589259  0.01327975  1  -0.011518  0  -0.018623  -0.036544  0  4.002187  0
C  C267  1  0.65893276  0.60410510  0.48671791  1  -0.011026  0  -0.01863  -0.036513  0  4.002153  0
C  C268  1  0.87070983  0.02610106  0.98715927  1  -0.093829  0  -0.070771  -0.091511  0  3.914723  0
C  C269  1  0.37071219  0.47389728  0.51284010  1  -0.093674  0  -0.070741  -0.091587  0  3.914701  0
C  C270  1  0.12929037  0.97389792  0.01284039  1  -0.09391  0  -0.070742  -0.091512  0  3.914724  0
C  C271  1  0.62928924  0.52610170  0.48715902  1  -0.09386  0  -0.070753  -0.091541  0  3.914859  0
C  C272  1  0.87293671  0.01158895  0.05625692  1  -0.002043  0  -0.017855  -0.029879  0  3.997412  0
C  C273  1  0.37293996  0.48840974  0.44374321  1  -0.002066  0  -0.017857  -0.029764  0  3.997138  0
C  C274  1  0.12706226  0.98841196  0.94374393  1  -0.002046  0  -0.01786  -0.029894  0  3.997351  0
C  C275  1  0.62706147  0.51158923  0.55625591  1  -0.002038  0  -0.017887  -0.029972  0  3.997308  0
C  C276  1  0.84522490  0.07564623  0.12520550  1  0.001531  0  -0.076953  -0.10758  0  3.944695  0
C  C277  1  0.34522754  0.42435181  0.37479496  1  0.001433  0  -0.076928  -0.107677  0  3.944678  0
C  C278  1  0.15477592  0.92435532  0.87479449  1  0.001492  0  -0.076959  -0.107601  0  3.944727  0
C  C279  1  0.65477389  0.57564588  0.62520480  1  0.001528  0  -0.076992  -0.10766  0  3.944638  0
C  C280  1  0.78836835  0.22481647  0.20009006  1  1.564562  0  0.202556  0.569555  0  4.23272  0
C  C281  1  0.28836850  0.27518476  0.29990990  1  1.564554  0  0.202532  0.569502  0  4.232731  0
C  C282  1  0.21163001  0.77518572  0.79990853  1  1.564515  0  0.202623  0.569811  0  4.232233  0
C  C283  1  0.71163170  0.72481421  0.70008922  1  1.564558  0  0.202583  0.569609  0  4.232625  0
C  C284  1  0.83873671  0.11807672  0.91224992  1  1.517263  0  0.194754  0.559492  0  4.213326  0
C  C285  1  0.33873957  0.38192224  0.58775077  1  1.517078  0  0.194781  0.559424  0  4.213572  0
C  C286  1  0.16126472  0.88192161  0.08774845  1  1.517183  0  0.194754  0.559479  0  4.213471  0
C  C287  1  0.66126494  0.61807608  0.41224867  1  1.517197  0  0.194764  0.559489  0  4.213232  0
C  C288  1  0.90340233  0.92744111  0.05570405  1  1.541413  0  0.193858  0.561299  0  4.228619  0
C  C289  1  0.40340467  0.57255734  0.44429640  1  1.541403  0  0.193876  0.561398  0  4.22835  0
C  C290  1  0.09659726  0.07256044  0.94429756  1  1.5414  0  0.193909  0.561431  0  4.228502  0
C  C291  1  0.59659307  0.42744099  0.55570250  1  1.541381  0  0.19395  0.56155  0  4.228212  0
N  N292  1  0.97296595  0.44940735  0.32821559  1  -1.261574  0  -0.372406  -0.250868  0  3.660203  0
N  N293  1  0.47296667  0.05059203  0.17178525  1  -1.261545  0  -0.37238  -0.250891  0  3.660132  0
N  N294  1  0.02703425  0.55059355  0.67178419  1  -1.261645  0  -0.372364  -0.250777  0  3.660092  0
N  N295  1  0.52703477  0.94940759  0.82821570  1  -1.26152  0  -0.372406  -0.250897  0  3.660098  0
N  N296  1  0.83870698  0.46056445  0.32419579  1  -1.186796  0  -0.349433  -0.29518  0  3.526614  0
N  N297  1  0.33870707  0.03943358  0.17580521  1  -1.186638  0  -0.349423  -0.29516  0  3.526597  0
N  N298  1  0.16129384  0.53943581  0.67580376  1  -1.186806  0  -0.349423  -0.295221  0  3.526493  0
N  N299  1  0.66129437  0.96056604  0.82419682  1  -1.186422  0  -0.349451  -0.295228  0  3.526598  0
N  N300  1  0.04421924  0.82548266  0.69977756  1  -1.294736  0  -0.374022  -0.249469  0  3.615534  0
N  N301  1  0.54421898  0.67451785  0.80022156  1  -1.295074  0  -0.374019  -0.249552  0  3.615601  0
N  N302  1  0.95578035  0.17451889  0.30022135  1  -1.295109  0  -0.374018  -0.249514  0  3.615616  0
N  N303  1  0.45578061  0.32548177  0.19977886  1  -1.294273  0  -0.374009  -0.249486  0  3.615656  0
N  N304  1  0.91518806  0.86898932  0.71960505  1  -1.234097  0  -0.356478  -0.299158  0  3.527575  0
N  N305  1  0.41518690  0.63100943  0.78039378  1  -1.234076  0  -0.356453  -0.299092  0  3.527499  0
N  N306  1  0.08481153  0.13100901  0.28039439  1  -1.234106  0  -0.356452  -0.299097  0  3.527583  0
N  N307  1  0.58481147  0.36899019  0.21960555  1  -1.234118  0  -0.356546  -0.299186  0  3.527605  0
N  N308  1  0.19637388  0.68243946  0.31168262  1  -1.270761  0  -0.377737  -0.255905  0  3.636922  0
N  N309  1  0.69637381  0.81755890  0.18831739  1  -1.270741  0  -0.377718  -0.255936  0  3.636988  0
N  N310  1  0.80362509  0.31756017  0.68831833  1  -1.270376  0  -0.377722  -0.255941  0  3.637019  0
N  N311  1  0.30362701  0.18244136  0.81168325  1  -1.270109  0  -0.377733  -0.255962  0  3.636941  0
N  N312  1  0.30943348  0.71842290  0.38195212  1  -1.217273  0  -0.358879  -0.298048  0  3.562724  0
N  N313  1  0.80943405  0.78157808  0.11804655  1  -1.217277  0  -0.358837  -0.298071  0  3.56279  0
N  N314  1  0.69056550  0.28157801  0.61804712  1  -1.217297  0  -0.358823  -0.298013  0  3.562748  0
N  N315  1  0.19056554  0.21842411  0.88195258  1  -1.217281  0  -0.358909  -0.298127  0  3.562589  0
N  N316  1  0.04837903  0.00710704  0.60308543  1  -1.260618  0  -0.379016  -0.2603  0  3.676601  0
N  N317  1  0.54837767  0.49289179  0.89691486  1  -1.2605  0  -0.378981  -0.260318  0  3.676642  0
N  N318  1  0.95162241  0.99289194  0.39691477  1  -1.260376  0  -0.37898  -0.260234  0  3.676641  0
N  N319  1  0.45162192  0.50710847  0.10308577  1  -1.260385  0  -0.379049  -0.260431  0  3.676745  0
N  N320  1  0.93874880  0.06048968  0.67348168  1  -1.223351  0  -0.353199  -0.291641  0  3.537754  0
N  N321  1  0.43874903  0.43950933  0.82651842  1  -1.22376  0  -0.353144  -0.291623  0  3.537907  0
N  N322  1  0.06125264  0.93951316  0.32651875  1  -1.223294  0  -0.353172  -0.291649  0  3.537856  0
N  N323  1  0.56125117  0.56049158  0.17348081  1  -1.223678  0  -0.353111  -0.291583  0  3.537856  0
O  O324  1  0.37459566  0.20214906  0.69074825  1  -1.161421  0  -0.307526  -0.52799  0  2.22662  0
O  O325  1  0.87459425  0.29785314  0.80925405  1  -1.161467  0  -0.307576  -0.528032  0  2.226669  0
O  O326  1  0.62540331  0.79785184  0.30925152  1  -1.161392  0  -0.307558  -0.528034  0  2.226713  0
O  O327  1  0.12540473  0.70214971  0.19074961  1  -1.16148  0  -0.307517  -0.527946  0  2.226598  0
O  O328  1  0.48603072  0.27189563  0.67646013  1  -1.170926  0  -0.329311  -0.574304  0  2.316474  0
O  O329  1  0.98602863  0.22810662  0.82353996  1  -1.170908  0  -0.329267  -0.574222  0  2.31656  0
O  O330  1  0.51396825  0.72810656  0.32353901  1  -1.171085  0  -0.329303  -0.574271  0  2.316484  0
O  O331  1  0.01396911  0.77189558  0.17646079  1  -1.170938  0  -0.32932  -0.574304  0  2.316491  0
O  O332  1  0.73597683  0.13717406  0.72894603  1  -1.146583  0  -0.336024  -0.548183  0  2.264926  0
O  O333  1  0.23597460  0.36282420  0.77105018  1  -1.146628  0  -0.336005  -0.548156  0  2.264922  0
O  O334  1  0.26402276  0.86282491  0.27105363  1  -1.146614  0  -0.336028  -0.548232  0  2.264886  0
O  O335  1  0.76402560  0.63717541  0.22894862  1  -1.146591  0  -0.336045  -0.548224  0  2.264915  0
O  O336  1  0.75032072  0.99223646  0.68917221  1  -1.196632  0  -0.333815  -0.594992  0  2.266905  0
O  O337  1  0.25032129  0.50776220  0.81082562  1  -1.196639  0  -0.333847  -0.595004  0  2.266971  0
O  O338  1  0.24967764  0.00776186  0.31082508  1  -1.196642  0  -0.333849  -0.595057  0  2.26692  0
O  O339  1  0.74967830  0.49223677  0.18917242  1  -1.196599  0  -0.333815  -0.595007  0  2.266891  0
O  O340  1  0.52627078  0.81806561  0.51198029  1  -1.127661  0  -0.339407  -0.546  0  2.187198  0
O  O341  1  0.02626948  0.68193489  0.98801992  1  -1.127634  0  -0.339379  -0.545979  0  2.187219  0
O  O342  1  0.47372697  0.18193466  0.48802303  1  -1.127408  0  -0.339415  -0.546041  0  2.187009  0
O  O343  1  0.97373134  0.31806538  0.01198126  1  -1.127605  0  -0.33935  -0.545946  0  2.187207  0
O  O344  1  0.39933071  0.87467183  0.52323409  1  -1.178172  0  -0.345351  -0.573934  0  2.124618  0
O  O345  1  0.89932965  0.62532690  0.97676528  1  -1.177779  0  -0.345366  -0.573946  0  2.12455  0
O  O346  1  0.60066581  0.12532908  0.47676784  1  -1.178043  0  -0.345309  -0.5739  0  2.124567  0
O  O347  1  0.10066933  0.37467272  0.02323567  1  -1.178191  0  -0.345352  -0.573911  0  2.124639  0
O  O348  1  0.76253850  0.29324351  0.19319214  1  -1.179034  0  -0.328164  -0.565088  0  2.290519  0
O  O349  1  0.26253921  0.20675642  0.30680632  1  -1.17897  0  -0.328145  -0.565056  0  2.290477  0
O  O350  1  0.23746047  0.70675739  0.80680494  1  -1.178912  0  -0.328147  -0.565164  0  2.290325  0
O  O351  1  0.73745915  0.79324385  0.69319270  1  -1.179001  0  -0.328201  -0.565137  0  2.290439  0
O  O352  1  0.79250624  0.21143801  0.26330694  1  -1.199814  0  -0.33426  -0.587402  0  2.171298  0
O  O353  1  0.29250522  0.28856386  0.23669324  1  -1.19984  0  -0.334255  -0.587418  0  2.171337  0
O  O354  1  0.20749089  0.78856418  0.73669057  1  -1.1999  0  -0.334308  -0.587509  0  2.171082  0
O  O355  1  0.70749499  0.71143576  0.76330610  1  -1.199821  0  -0.334273  -0.587455  0  2.171318  0
O  O356  1  0.81979274  0.19058583  0.91153607  1  -1.138174  0  -0.313925  -0.508575  0  2.136637  0
O  O357  1  0.31979616  0.30941313  0.58846516  1  -1.138082  0  -0.313932  -0.508494  0  2.136712  0
O  O358  1  0.18021115  0.80941379  0.08846327  1  -1.138116  0  -0.313982  -0.508616  0  2.136612  0
O  O359  1  0.68021080  0.69058521  0.41153535  1  -1.138084  0  -0.313971  -0.508612  0  2.1365  0
O  O360  1  0.85898652  0.05365847  0.84894169  1  -1.174437  0  -0.34611  -0.603228  0  2.343738  0
O  O361  1  0.35898875  0.44634114  0.65105758  1  -1.17443  0  -0.346094  -0.603217  0  2.343844  0
O  O362  1  0.14101491  0.94633986  0.15105775  1  -1.174358  0  -0.346099  -0.603216  0  2.343785  0
O  O363  1  0.64101575  0.55365848  0.34894068  1  -1.17447  0  -0.346075  -0.603188  0  2.343767  0
O  O364  1  0.89433069  0.85975506  0.99407925  1  -1.167786  0  -0.323344  -0.563471  0  2.185444  0
O  O365  1  0.39433221  0.64024367  0.50592067  1  -1.167721  0  -0.323393  -0.563577  0  2.185318  0
O  O366  1  0.10566890  0.14024584  0.00592107  1  -1.167811  0  -0.323364  -0.563491  0  2.185429  0
O  O367  1  0.60566492  0.35975466  0.49407877  1  -1.167751  0  -0.323376  -0.563573  0  2.185336  0
O  O368  1  0.93618562  0.92579227  0.11756392  1  -1.164588  0  -0.332434  -0.553845  0  2.178088  0
O  O369  1  0.43618741  0.57420620  0.38243598  1  -1.164614  0  -0.332432  -0.553905  0  2.178017  0
O  O370  1  0.06381458  0.07420864  0.88243694  1  -1.164631  0  -0.33245  -0.553915  0  2.177989  0
O  O371  1  0.56380973  0.42579342  0.61756336  1  -1.164606  0  -0.332439  -0.553906  0  2.177923  0
O  O372  1  0.80957565  0.84184028  0.85981254  1  -1.309973  0  -0.604808  -0.809691  0  2.081237  0
O  O373  1  0.30957584  0.65815907  0.64018763  1  -1.309973  0  -0.604804  -0.80971  0  2.08125  0
O  O374  1  0.19042210  0.15816064  0.14018992  1  -1.309962  0  -0.604811  -0.809652  0  2.081351  0
O  O375  1  0.69042313  0.34183991  0.35981095  1  -1.309977  0  -0.604807  -0.809698  0  2.081271  0
