# generated using pymatgen
data_NdCoH16C12(NO4)3
_symmetry_space_group_name_H-M   'P 1'
_cell_length_a   8.51112418
_cell_length_b   9.70080652
_cell_length_c   12.83720088
_cell_angle_alpha   67.79928094
_cell_angle_beta   81.00507674
_cell_angle_gamma   65.55032554
_symmetry_Int_Tables_number   1
_chemical_formula_structural   NdCoH16C12(NO4)3
_chemical_formula_sum   'Nd2 Co2 H32 C24 N6 O24'
_cell_volume   893.32547113
_cell_formula_units_Z   2
loop_
 _symmetry_equiv_pos_site_id
 _symmetry_equiv_pos_as_xyz
  1  'x, y, z'
loop_
 _atom_site_type_symbol
 _atom_site_label
 _atom_site_symmetry_multiplicity
 _atom_site_fract_x
 _atom_site_fract_y
 _atom_site_fract_z
 _atom_site_occupancy
 _atom_site_hle17_ddec_charge
 _atom_site_hle17_ddec_spin_density
 _atom_site_hle17_ddec_sum_bond_order
 _atom_site_hle17_magmom
 _atom_site_hse06_10hf_ddec_charge
 _atom_site_hse06_10hf_ddec_spin_density
 _atom_site_hse06_10hf_ddec_sum_bond_order
 _atom_site_hse06_10hf_magmom
 _atom_site_hse06_ddec_charge
 _atom_site_hse06_ddec_spin_density
 _atom_site_hse06_ddec_sum_bond_order
 _atom_site_hse06_magmom
 _atom_site_pbe_cm5_charge
 _atom_site_pbe_ddec_charge
 _atom_site_pbe_ddec_spin_density
 _atom_site_pbe_ddec_sum_bond_order
 _atom_site_pbe_magmom
Nd  Nd0  1  0.25001512  0.50706211  0.98578497  1  2.347093  -5.8e-05  1.57206  0.0  2.236153  -4.3e-05  1.920798  -0.001  2.281499  0.000158  1.878595  0.0  1.482671  2.144899  -0.000322  2.058276  -0.001
Nd  Nd1  1  0.74998499  0.49293385  0.01421701  1  2.347084  5.1e-05  1.572084  0.0  2.236148  2.3e-05  1.920829  0.001  2.281496  -0.000152  1.878624  0.0  1.482667  2.144899  0.000323  2.058294  0.001
Co  Co2  1  0.25006209  0.66317507  0.67360681  1  0.911076  -2.869504  2.022573  -2.555  0.872975  -2.854357  2.424465  -2.624  0.960524  -2.901498  2.345323  -2.702  0.63984  0.802142  -2.808138  2.483166  -2.55
Co  Co3  1  0.74993634  0.33682580  0.32639144  1  0.91097  2.86951  2.02272  2.555  0.872888  2.854369  2.424633  2.624  0.960436  2.901478  2.345468  2.702  0.63985  0.802064  2.808127  2.483318  2.55
H  H4  1  0.07746677  0.68976040  0.50469530  1  0.261015  0.000553  0.96072  0.002  0.245999  4.7e-05  1.028519  0.0  0.253243  0.000106  1.023825  0.0  0.286291  0.240844  -3.9e-05  1.031667  0.0
H  H5  1  0.42264303  0.80556817  0.50475697  1  0.260333  0.000552  0.962008  0.002  0.245652  4.5e-05  1.029329  0.0  0.252866  0.000105  1.024656  0.0  0.286238  0.240521  -4.3e-05  1.032438  0.0
H  H6  1  0.92253386  0.31023619  0.49530483  1  0.261005  -0.000552  0.960686  -0.002  0.245986  -4.7e-05  1.028518  0.0  0.253224  -0.000106  1.023827  0.0  0.286271  0.240838  3.8e-05  1.031673  0.0
H  H7  1  0.57735712  0.19443928  0.49524195  1  0.260363  -0.000552  0.961955  -0.002  0.245713  -4.6e-05  1.029264  0.0  0.252925  -0.000105  1.024591  0.0  0.286251  0.240582  4.3e-05  1.032364  0.0
H  H8  1  0.64468188  0.16771596  0.74436120  1  0.296793  3e-06  0.899963  0.0  0.275921  -1.2e-05  0.964727  0.0  0.285136  1e-06  0.957801  0.0  0.306711  0.269313  -2.3e-05  0.969839  0.0
H  H9  1  0.85540866  0.08795886  0.74436062  1  0.296776  2e-06  0.90008  0.0  0.275607  -1.2e-05  0.965284  0.0  0.284808  1e-06  0.958369  0.0  0.306585  0.269024  -2.4e-05  0.970376  0.0
H  H10  1  0.35532044  0.83228037  0.25563799  1  0.2968  -4e-06  0.899976  0.0  0.275961  1.2e-05  0.964688  0.0  0.285178  -1e-06  0.957762  0.0  0.306731  0.269356  2.3e-05  0.969787  0.0
H  H11  1  0.14459401  0.91203935  0.25564154  1  0.296762  -4e-06  0.900151  0.0  0.27559  1.2e-05  0.965355  0.0  0.284791  -1e-06  0.958443  0.0  0.306565  0.269005  2.4e-05  0.970453  0.0
H  H12  1  0.95732125  0.46698695  0.63448696  1  0.09236  -0.000923  0.925529  -0.001  0.106841  -0.000801  0.988765  -0.001  0.109165  -0.000555  0.986744  0.0  0.109385  0.10549  -0.000881  0.989942  -0.001
H  H13  1  0.54269953  0.89853853  0.63462809  1  0.092797  -0.000922  0.927321  -0.001  0.107053  -0.000801  0.990428  -0.001  0.109452  -0.000555  0.988336  0.0  0.109481  0.105707  -0.000875  0.99159  -0.001
H  H14  1  0.04267244  0.53301518  0.36551001  1  0.092374  0.000924  0.925533  0.001  0.106811  0.000802  0.988821  0.001  0.109136  0.000555  0.9868  0.0  0.109398  0.105468  0.000881  0.989983  0.001
H  H15  1  0.45730011  0.10146597  0.36537502  1  0.092807  0.000923  0.927251  0.001  0.107064  0.000801  0.990364  0.001  0.109466  0.000555  0.988274  0.0  0.109479  0.105714  0.000875  0.991526  0.001
H  H16  1  0.87048245  0.67034282  0.62970766  1  0.094996  6.2e-05  0.944361  0.0  0.110754  7.4e-05  1.007845  0.0  0.112148  7e-05  1.007382  0.0  0.118377  0.10954  9.3e-05  1.008768  0.0
H  H17  1  0.62956733  0.69997882  0.62981480  1  0.094659  6.2e-05  0.944876  0.0  0.110925  7.4e-05  1.007707  0.0  0.11221  7e-05  1.007443  0.0  0.118415  0.109745  9e-05  1.008588  0.0
H  H18  1  0.12951972  0.32965786  0.37029323  1  0.094952  -6.2e-05  0.944445  0.0  0.110728  -7.4e-05  1.007908  0.0  0.112121  -7e-05  1.007447  0.0  0.118375  0.10952  -9.3e-05  1.008827  0.0
H  H19  1  0.37042824  0.30002928  0.37018589  1  0.094636  -6.2e-05  0.944859  0.0  0.1109  -7.4e-05  1.007692  0.0  0.112191  -7e-05  1.007433  0.0  0.118385  0.109715  -9e-05  1.008574  0.0
H  H20  1  0.29577134  0.49987075  0.46120612  1  0.11055  4.4e-05  0.928648  0.0  0.125329  4.3e-05  0.988663  0.0  0.128062  1.4e-05  0.986964  0.0  0.117415  0.123373  5.5e-05  0.989981  0.0
H  H21  1  0.20433182  0.03895762  0.46124511  1  0.110449  4.4e-05  0.929232  0.0  0.125833  4.3e-05  0.988813  0.0  0.128583  1.4e-05  0.987134  0.0  0.11787  0.123815  5.3e-05  0.990214  0.0
H  H22  1  0.70422911  0.50012490  0.53879253  1  0.110592  -4.4e-05  0.92863  0.0  0.125381  -4.3e-05  0.988636  0.0  0.128115  -1.3e-05  0.986934  0.0  0.117433  0.123427  -5.5e-05  0.989959  0.0
H  H23  1  0.79566715  0.96105073  0.53875291  1  0.110519  -4.3e-05  0.929198  0.0  0.125804  -4.3e-05  0.98887  0.0  0.128553  -1.3e-05  0.98719  0.0  0.117861  0.123787  -5.3e-05  0.99027  0.0
H  H24  1  0.20752935  0.36359496  0.56090331  1  0.084311  -0.000876  0.934197  -0.001  0.097242  -0.000916  1.001151  -0.001  0.099582  -0.00064  0.998971  -0.001  0.10435  0.095355  -0.001168  1.003062  -0.001
H  H25  1  0.29254239  0.07552307  0.56096390  1  0.084113  -0.000876  0.93464  -0.001  0.097162  -0.000915  1.001853  -0.001  0.09946  -0.000639  0.999771  -0.001  0.104721  0.095315  -0.001166  1.003657  -0.001
H  H26  1  0.79246822  0.63640185  0.43909538  1  0.084295  0.000876  0.934165  0.001  0.097255  0.000916  1.001102  0.001  0.099577  0.00064  0.998938  0.001  0.104356  0.095365  0.001168  1.003014  0.001
H  H27  1  0.70745997  0.92448475  0.43903222  1  0.084095  0.000876  0.934705  0.001  0.097119  0.000916  1.001866  0.001  0.099416  0.000639  0.999784  0.001  0.104719  0.095279  0.001166  1.003667  0.001
H  H28  1  0.68948692  0.90494643  0.81223094  1  0.128726  -5e-05  0.920587  0.0  0.139208  -0.000109  0.981476  0.0  0.14279  -6.4e-05  0.978608  0.0  0.127726  0.136603  -0.000134  0.983549  0.0
H  H29  1  0.81049792  0.28294250  0.81226353  1  0.127759  -5.1e-05  0.921949  0.0  0.138287  -0.000108  0.98264  0.0  0.141803  -6.4e-05  0.979868  0.0  0.127599  0.13573  -0.000135  0.984619  0.0
H  H30  1  0.31051676  0.09504994  0.18777064  1  0.128677  5.3e-05  0.920493  0.0  0.139171  0.000109  0.981422  0.0  0.142768  6.4e-05  0.978534  0.0  0.127713  0.136569  0.000134  0.983488  0.0
H  H31  1  0.18949881  0.71705631  0.18773800  1  0.127782  5.4e-05  0.921936  0.0  0.138301  0.000109  0.982628  0.0  0.141818  6.3e-05  0.979856  0.0  0.127593  0.135748  0.000135  0.984604  0.0
H  H32  1  0.64499663  0.95420647  0.93506703  1  0.132207  4e-06  0.905622  0.0  0.145043  1e-06  0.961712  0.0  0.148036  0.0  0.959926  0.0  0.130363  0.142629  -0.0  0.963728  0.0
H  H33  1  0.85507735  0.11077721  0.93506724  1  0.13205  4e-06  0.906493  0.0  0.144485  1e-06  0.962744  0.0  0.14744  -0.0  0.961002  0.0  0.130634  0.142106  0.0  0.964699  0.0
H  H34  1  0.35500755  0.04578898  0.06493426  1  0.132249  -1e-06  0.90553  0.0  0.145073  -1e-06  0.961691  0.0  0.148067  0.0  0.959906  0.0  0.130387  0.142659  0.0  0.963701  0.0
H  H35  1  0.14492107  0.88922133  0.06493335  1  0.132079  -1e-06  0.906494  0.0  0.14452  -1e-06  0.962727  0.0  0.147475  -0.0  0.960983  0.0  0.130637  0.142141  -0.0  0.964694  0.0
C  C36  1  0.01420931  0.50554821  0.77557537  1  0.74266  0.001224  3.769359  0.002  0.70343  -0.000811  4.061837  -0.001  0.738113  -0.000375  4.052891  0.0  0.242507  0.678884  -0.001163  4.064833  -0.001
C  C37  1  0.48584189  0.71881372  0.77565885  1  0.744564  0.001227  3.768615  0.002  0.705374  -0.000806  4.060772  -0.001  0.740136  -0.000372  4.051743  0.0  0.243464  0.680781  -0.001146  4.06385  -0.001
C  C38  1  0.98579183  0.49444824  0.22442369  1  0.742745  -0.001221  3.769462  -0.002  0.703562  0.00081  4.061853  0.001  0.738245  0.000375  4.052907  0.0  0.242625  0.679019  0.001163  4.064849  0.001
C  C39  1  0.51415891  0.28118536  0.22434121  1  0.744552  -0.001225  3.768528  -0.002  0.705386  0.000805  4.060655  0.001  0.740157  0.000373  4.051619  0.0  0.243487  0.680791  0.001147  4.063726  0.001
C  C40  1  0.42314376  0.37816748  0.61776675  1  0.681333  1.8e-05  3.837189  0.001  0.635754  -0.002494  4.144286  -0.003  0.669194  -0.001618  4.139531  -0.002  0.21476  0.612522  -0.003347  4.146457  -0.004
C  C41  1  0.07693041  0.00406095  0.61778000  1  0.679574  2.6e-05  3.839216  0.001  0.633086  -0.00249  4.148018  -0.003  0.666586  -0.001617  4.143276  -0.002  0.212834  0.609811  -0.003344  4.15016  -0.004
C  C42  1  0.57685770  0.62182555  0.38223211  1  0.681471  -2e-05  3.836986  -0.001  0.635902  0.002492  4.144057  0.003  0.669346  0.001619  4.139295  0.002  0.214789  0.612659  0.003347  4.146242  0.004
C  C43  1  0.92307111  0.99594965  0.38221819  1  0.679501  -2.6e-05  3.839105  -0.001  0.632975  0.002489  4.147949  0.003  0.666476  0.001618  4.143207  0.002  0.212862  0.609693  0.003346  4.150098  0.004
C  C44  1  0.98698143  0.55836122  0.64944528  1  -0.128634  0.001069  3.642381  0.003  -0.187386  -8.2e-05  3.902067  0.001  -0.188  0.000178  3.910126  0.001  -0.067905  -0.187419  -0.000321  3.897332  0.001
C  C45  1  0.51306571  0.79220492  0.64955310  1  -0.128599  0.00107  3.644793  0.003  -0.187408  -8e-05  3.904679  0.001  -0.188132  0.00018  3.912746  0.001  -0.067077  -0.187464  -0.000333  3.90007  0.001
C  C46  1  0.01301683  0.44163716  0.35055305  1  -0.128685  -0.001072  3.642546  -0.003  -0.187418  8.1e-05  3.902206  -0.001  -0.188042  -0.000178  3.910265  -0.001  -0.067948  -0.18744  0.000321  3.897468  -0.001
C  C47  1  0.48693375  0.20780019  0.35044697  1  -0.128537  -0.001071  3.644616  -0.003  -0.187318  7.9e-05  3.904532  -0.001  -0.188068  -0.00018  3.912625  -0.001  -0.067035  -0.187361  0.000333  3.8999  -0.001
C  C48  1  0.25748447  0.45641657  0.54984426  1  -0.142151  0.000459  3.658382  0.002  -0.198034  -0.000605  3.918934  0.001  -0.199129  -0.000266  3.926998  0.001  -0.075647  -0.197636  -0.000946  3.913892  0.001
C  C49  1  0.24260115  0.99376305  0.54988562  1  -0.140585  0.00046  3.655943  0.002  -0.1973  -0.000606  3.918443  0.001  -0.198487  -0.000267  3.926558  0.001  -0.075807  -0.196855  -0.00095  3.913344  0.001
C  C50  1  0.74251310  0.54358101  0.45015365  1  -0.142255  -0.000458  3.658402  -0.002  -0.198156  0.000605  3.918941  -0.001  -0.19925  0.000266  3.927014  -0.001  -0.075656  -0.197747  0.000945  3.913906  -0.001
C  C51  1  0.75739969  0.00624598  0.45011293  1  -0.14068  -0.00046  3.656227  -0.002  -0.197177  0.000606  3.918632  -0.001  -0.19836  0.000268  3.926742  -0.001  -0.075779  -0.196738  0.00095  3.913531  -0.001
C  C52  1  0.91002186  0.80686891  0.91490188  1  0.719251  4e-05  3.856409  0.0  0.673545  6e-05  4.16586  0.0  0.707119  6.5e-05  4.155849  0.0  0.22119  0.650933  3.7e-05  4.165752  0.0
C  C53  1  0.59004422  0.27820727  0.91493421  1  0.719828  3.8e-05  3.850369  0.0  0.67304  6.1e-05  4.161495  0.0  0.706629  6.6e-05  4.151414  0.0  0.220242  0.650413  4.7e-05  4.16145  0.0
C  C54  1  0.08998131  0.19312916  0.08509921  1  0.719117  -3.3e-05  3.856465  0.0  0.673439  -6.1e-05  4.16594  0.0  0.707012  -6.7e-05  4.155935  0.0  0.221162  0.650825  -3.7e-05  4.165834  0.0
C  C55  1  0.40995469  0.72178725  0.08506921  1  0.719854  -3.4e-05  3.850333  0.0  0.673046  -6.1e-05  4.161495  0.0  0.706635  -6.7e-05  4.151411  0.0  0.220223  0.650432  -4.7e-05  4.161428  0.0
C  C56  1  0.73933185  0.94150696  0.86688312  1  -0.129936  -7.1e-05  3.53422  0.0  -0.187283  -0.0001  3.783799  0.0  -0.18855  -5.9e-05  3.787993  0.0  -0.052702  -0.186588  -0.000143  3.781674  0.0
C  C57  1  0.76072135  0.19165230  0.86689635  1  -0.128599  -7.2e-05  3.534469  0.0  -0.184804  -0.0001  3.783401  0.0  -0.186008  -5.9e-05  3.787567  0.0  -0.052118  -0.184123  -0.000142  3.781239  0.0
C  C58  1  0.26066945  0.05849042  0.13311743  1  -0.129815  5.6e-05  3.534034  0.0  -0.187273  0.000101  3.783827  0.0  -0.188554  6.1e-05  3.788026  0.0  -0.052716  -0.186575  0.000143  3.781684  0.0
C  C59  1  0.23927657  0.80834794  0.13310374  1  -0.128699  5.2e-05  3.53443  0.0  -0.1849  0.0001  3.783366  0.0  -0.186103  6.1e-05  3.787528  0.0  -0.052105  -0.184227  0.000142  3.781218  0.0
N  N60  1  0.12725771  0.59404243  0.57795544  1  -0.375823  -0.037213  3.31945  -0.063  -0.33062  -0.026725  3.59274  -0.042  -0.354636  -0.021787  3.60396  -0.034  -0.487118  -0.312418  -0.031059  3.584542  -0.048
N  N61  1  0.37283182  0.82802589  0.57801079  1  -0.376408  -0.037183  3.31783  -0.063  -0.33155  -0.026716  3.592228  -0.042  -0.355336  -0.02178  3.603218  -0.034  -0.488429  -0.313413  -0.031028  3.58414  -0.048
N  N62  1  0.87274393  0.40595309  0.42204334  1  -0.375679  0.037216  3.319302  0.063  -0.330516  0.026729  3.592621  0.042  -0.354504  0.021791  3.6038  0.034  -0.487105  -0.312346  0.031062  3.58445  0.048
N  N63  1  0.62716952  0.17198144  0.42198825  1  -0.376423  0.037181  3.317853  0.063  -0.331698  0.026716  3.592329  0.042  -0.355481  0.021781  3.603314  0.034  -0.488495  -0.313564  0.03103  3.584238  0.048
N  N64  1  0.75004873  0.09952637  0.80099362  1  -0.242012  5.6e-05  3.377182  0.0  -0.181828  -3.1e-05  3.596894  0.0  -0.194764  -1e-05  3.605095  0.0  -0.477488  -0.173123  -2.3e-05  3.592271  0.0
N  N65  1  0.24995088  0.90047361  0.19900553  1  -0.242064  -4.2e-05  3.377294  0.0  -0.181851  3e-05  3.596994  0.0  -0.194789  8e-06  3.605199  0.0  -0.477514  -0.173143  2.3e-05  3.592367  0.0
O  O66  1  0.13676342  0.52774722  0.80492159  1  -0.695787  -0.031763  2.161112  -0.051  -0.652187  -0.026601  2.428712  -0.039  -0.686778  -0.022382  2.417626  -0.033  -0.350736  -0.620292  -0.030289  2.436069  -0.045
O  O67  1  0.36345562  0.66705847  0.80498010  1  -0.695717  -0.031752  2.163309  -0.051  -0.652026  -0.026606  2.43067  -0.039  -0.686652  -0.022389  2.41956  -0.033  -0.350639  -0.62011  -0.030305  2.438013  -0.045
O  O68  1  0.86323482  0.47224884  0.19507908  1  -0.695763  0.031764  2.161157  0.051  -0.652179  0.026604  2.428731  0.039  -0.686773  0.022385  2.417641  0.033  -0.350764  -0.620282  0.03029  2.436088  0.045
O  O69  1  0.63654620  0.33293877  0.19501938  1  -0.695657  0.03175  2.163188  0.051  -0.651986  0.026606  2.430566  0.039  -0.686616  0.022389  2.419451  0.033  -0.350645  -0.620068  0.030305  2.4379  0.045
O  O70  1  0.91002153  0.45121315  0.84005045  1  -0.684103  -0.002986  2.026613  -0.005  -0.643818  -0.002747  2.268492  -0.004  -0.668001  -0.001842  2.259125  -0.003  -0.357925  -0.620375  -0.003706  2.276353  -0.006
O  O71  1  0.58991163  0.70878074  0.84016564  1  -0.685815  -0.002983  2.025344  -0.005  -0.645245  -0.002744  2.267  -0.004  -0.669477  -0.001839  2.257652  -0.003  -0.359047  -0.621787  -0.003712  2.274889  -0.006
O  O72  1  0.08997890  0.54877940  0.15995132  1  -0.68419  0.002985  2.026727  0.005  -0.643912  0.002747  2.26857  0.004  -0.668093  0.001841  2.259203  0.003  -0.357976  -0.620465  0.003706  2.276433  0.006
O  O73  1  0.41008967  0.29121665  0.15983491  1  -0.68584  0.002983  2.025361  0.005  -0.645273  0.002745  2.267  0.004  -0.669508  0.001839  2.257648  0.003  -0.359063  -0.621817  0.003712  2.274889  0.006
O  O74  1  0.45933625  0.46618046  0.65537073  1  -0.612469  -0.038833  2.027393  -0.063  -0.573569  -0.030783  2.290417  -0.046  -0.610435  -0.024654  2.281858  -0.037  -0.315614  -0.545344  -0.037138  2.29505  -0.056
O  O75  1  0.04081934  0.87839810  0.65543250  1  -0.611427  -0.038813  2.029517  -0.063  -0.572477  -0.03076  2.29352  -0.046  -0.609378  -0.024637  2.284934  -0.037  -0.3142  -0.544154  -0.037103  2.298032  -0.056
O  O76  1  0.54066420  0.53381596  0.34462714  1  -0.612533  0.038834  2.027444  0.063  -0.573667  0.030783  2.290538  0.046  -0.610532  0.024654  2.281971  0.037  -0.315685  -0.545433  0.037139  2.29516  0.056
O  O77  1  0.95918185  0.12161281  0.34456902  1  -0.61137  0.038816  2.029403  0.063  -0.572395  0.030763  2.293421  0.046  -0.609289  0.024639  2.284825  0.037  -0.314284  -0.544107  0.037104  2.298016  0.056
O  O78  1  0.51872827  0.23269915  0.62952328  1  -0.611532  -0.004851  1.937711  -0.007  -0.560131  -0.004435  2.153161  -0.006  -0.584092  -0.003053  2.143382  -0.004  -0.31957  -0.542998  -0.006171  2.158852  -0.009
O  O79  1  0.98127905  0.13778728  0.62948840  1  -0.610864  -0.004841  1.938408  -0.007  -0.558715  -0.004425  2.15421  -0.006  -0.582638  -0.003044  2.144399  -0.004  -0.319226  -0.541599  -0.006158  2.159902  -0.009
O  O80  1  0.48127319  0.76729543  0.37047401  1  -0.611577  0.004851  1.937419  0.007  -0.560173  0.004436  2.152855  0.006  -0.58414  0.003053  2.143074  0.004  -0.319552  -0.543034  0.006172  2.158549  0.009
O  O81  1  0.01872197  0.86222580  0.37050851  1  -0.610768  0.004842  1.938356  0.007  -0.558619  0.004426  2.154159  0.006  -0.582549  0.003046  2.144352  0.004  -0.319141  -0.541496  0.006159  2.159854  0.009
O  O82  1  0.90808424  0.66472739  0.95468692  1  -0.828429  8e-05  2.19063  0.0  -0.783476  0.000121  2.45634  0.0  -0.807981  0.000115  2.443943  0.0  -0.444737  -0.753517  0.000118  2.464022  0.0
O  O83  1  0.59203834  0.38050140  0.95475499  1  -0.82897  8e-05  2.18802  0.0  -0.783271  0.000121  2.453535  0.0  -0.807731  0.000115  2.440993  0.0  -0.444554  -0.753297  0.000124  2.461186  0.0
O  O84  1  0.09191080  0.33527323  0.04531400  1  -0.828367  -8.1e-05  2.190648  0.0  -0.783397  -0.00012  2.456337  0.0  -0.807899  -0.000115  2.443939  0.0  -0.444711  -0.753432  -0.000118  2.464014  0.0
O  O85  1  0.40795939  0.61949247  0.04524908  1  -0.828954  -8.1e-05  2.187974  0.0  -0.783249  -0.00012  2.453497  0.0  -0.80772  -0.000115  2.440979  0.0  -0.444583  -0.753283  -0.000124  2.461153  0.0
O  O86  1  0.04497297  0.82981197  0.91468305  1  -0.643834  0.000119  1.897351  0.0  -0.606718  0.000159  2.121698  0.0  -0.629102  0.000173  2.113218  0.0  -0.329726  -0.586458  0.000141  2.127851  0.0
O  O87  1  0.45509620  0.25548141  0.91470694  1  -0.643618  0.00012  1.894725  0.0  -0.606889  0.000159  2.120563  0.0  -0.629304  0.000174  2.112119  0.0  -0.329394  -0.586563  0.000136  2.12665  0.0
O  O88  1  0.95502883  0.17018217  0.08531955  1  -0.643784  -0.00012  1.897258  0.0  -0.606681  -0.000159  2.121634  0.0  -0.629069  -0.000173  2.113157  0.0  -0.329721  -0.586422  -0.000141  2.127791  0.0
O  O89  1  0.54490323  0.74451298  0.08529541  1  -0.643607  -0.000119  1.89482  0.0  -0.606848  -0.000158  2.120649  0.0  -0.629262  -0.000173  2.112206  0.0  -0.329352  -0.586539  -0.000136  2.126754  0.0
