# generated using pymatgen
data_CuH2C3SN2
_symmetry_space_group_name_H-M   'P 1'
_cell_length_a   5.90647659
_cell_length_b   6.32151646
_cell_length_c   14.14737758
_cell_angle_alpha   90.00173413
_cell_angle_beta   90.00482635
_cell_angle_gamma   119.15250162
_symmetry_Int_Tables_number   1
_chemical_formula_structural   CuH2C3SN2
_chemical_formula_sum   'Cu4 H8 C12 S4 N8'
_cell_volume   461.31990902
_cell_formula_units_Z   4
loop_
 _symmetry_equiv_pos_site_id
 _symmetry_equiv_pos_as_xyz
  1  'x, y, z'
loop_
 _atom_site_type_symbol
 _atom_site_label
 _atom_site_symmetry_multiplicity
 _atom_site_fract_x
 _atom_site_fract_y
 _atom_site_fract_z
 _atom_site_occupancy
 _atom_site_pbe_bader_spin_density
 _atom_site_pbe_cm5_charge
 _atom_site_pbe_ddec_charge
 _atom_site_pbe_ddec_spin_density
 _atom_site_pbe_ddec_sum_bond_order
 _atom_site_pbe_magmom
Cu  Cu0  1  0.62811632  0.60459471  0.82867080  1  0  0.493739  0.366405  0  2.762942  0
Cu  Cu1  1  0.62815691  0.10460995  0.67131081  1  0  0.493674  0.366379  0  2.76283  0
Cu  Cu2  1  0.37184744  0.39541527  0.17132643  1  0  0.493693  0.366309  0  2.763017  0
Cu  Cu3  1  0.37184805  0.89537413  0.32869490  1  0  0.493713  0.366411  0  2.762853  0
H  H4  1  0.46925563  0.68686406  0.49837845  1  0  0.111452  0.086064  0  1.036766  0
H  H5  1  0.46928258  0.18684649  0.00160998  1  0  0.11139  0.086034  0  1.036764  0
H  H6  1  0.53073311  0.31312143  0.50162443  1  0  0.111439  0.086047  0  1.036807  0
H  H7  1  0.53074929  0.81315073  0.99838937  1  0  0.1114  0.086024  0  1.036651  0
H  H8  1  0.79327907  0.60373691  0.37327457  1  0  0.116931  0.102689  0  1.010029  0
H  H9  1  0.79339014  0.10380091  0.12674116  1  0  0.116899  0.102722  0  1.00991  0
H  H10  1  0.20669949  0.39625193  0.62673115  1  0  0.116891  0.102635  0  1.010024  0
H  H11  1  0.20665353  0.89621985  0.87325960  1  0  0.11693  0.102688  0  1.009984  0
C  C12  1  0.03873193  0.91039439  0.66904814  1  0  0.144502  0.279165  0  4.196712  0
C  C13  1  0.03872657  0.41039859  0.83094379  1  0  0.144691  0.279424  0  4.196673  0
C  C14  1  0.96127002  0.08960394  0.33095827  1  0  0.1445  0.279192  0  4.196867  0
C  C15  1  0.96125693  0.58958319  0.16904212  1  0  0.144536  0.279218  0  4.197057  0
C  C16  1  0.25863314  0.60152351  0.49871938  1  0  0.043252  0.04506  0  3.931052  0
C  C17  1  0.25865820  0.10150579  0.00128365  1  0  0.043364  0.0452  0  3.931021  0
C  C18  1  0.74135581  0.39849958  0.50129269  1  0  0.043294  0.045109  0  3.931025  0
C  C19  1  0.74137499  0.89850757  0.99871287  1  0  0.04337  0.045253  0  3.930753  0
C  C20  1  0.88641737  0.55823116  0.43009927  1  0  0.047352  0.055237  0  3.878546  0
C  C21  1  0.88647800  0.05826042  0.06990947  1  0  0.047321  0.054887  0  3.878753  0
C  C22  1  0.11357047  0.44178296  0.56990927  1  0  0.047313  0.055156  0  3.878366  0
C  C23  1  0.11355196  0.94176003  0.93008494  1  0  0.047201  0.054828  0  3.878535  0
S  S24  1  0.72293760  0.29155500  0.81976375  1  0  -0.182752  -0.320443  0  3.288789  0
S  S25  1  0.72294589  0.79156862  0.68022278  1  0  -0.182696  -0.320302  0  3.288757  0
S  S26  1  0.27701183  0.70840274  0.18023560  1  0  -0.182783  -0.320346  0  3.289316  0
S  S27  1  0.27704627  0.20841695  0.31977728  1  0  -0.182664  -0.320318  0  3.28883  0
N  N28  1  0.26486979  0.98885371  0.66087397  1  0  -0.429469  -0.436821  0  3.425983  0
N  N29  1  0.26487231  0.48886419  0.83910904  1  0  -0.429673  -0.437046  0  3.426392  0
N  N30  1  0.73512792  0.01114630  0.33912679  1  0  -0.429494  -0.436871  0  3.426137  0
N  N31  1  0.73511642  0.51112129  0.16087051  1  0  -0.429474  -0.43687  0  3.425943  0
N  N32  1  0.14738697  0.66174577  0.42819181  1  0  -0.344983  -0.177433  0  3.637005  0
N  N33  1  0.14745082  0.16176316  0.07180766  1  0  -0.344991  -0.177157  0  3.637074  0
N  N34  1  0.85259976  0.33825937  0.57181460  1  0  -0.344947  -0.177359  0  3.636687  0
N  N35  1  0.85257984  0.83825194  0.92818533  1  0  -0.344923  -0.177172  0  3.636596  0
