# generated using pymatgen
data_KH16(C3N)4
_symmetry_space_group_name_H-M   'P 1'
_cell_length_a   8.79212883
_cell_length_b   9.56349480
_cell_length_c   15.16181674
_cell_angle_alpha   89.99983617
_cell_angle_beta   89.99955951
_cell_angle_gamma   103.76855498
_symmetry_Int_Tables_number   1
_chemical_formula_structural   KH16(C3N)4
_chemical_formula_sum   'K4 H64 C48 N16'
_cell_volume   1238.22529450
_cell_formula_units_Z   4
loop_
 _symmetry_equiv_pos_site_id
 _symmetry_equiv_pos_as_xyz
  1  'x, y, z'
loop_
 _atom_site_type_symbol
 _atom_site_label
 _atom_site_symmetry_multiplicity
 _atom_site_fract_x
 _atom_site_fract_y
 _atom_site_fract_z
 _atom_site_occupancy
 _atom_site_pbe_bader_spin_density
 _atom_site_pbe_cm5_charge
 _atom_site_pbe_ddec_charge
 _atom_site_pbe_ddec_spin_density
 _atom_site_pbe_ddec_sum_bond_order
 _atom_site_pbe_magmom
K  K0  1  0.82893806  0.02407515  0.45193539  1  0  0.805963  0.741686  0  0.793656  0
K  K1  1  0.67105594  0.97591419  0.95193569  1  0  0.805983  0.741669  0  0.793733  0
K  K2  1  0.17104627  0.97592232  0.54805843  1  0  0.805981  0.741661  0  0.793709  0
K  K3  1  0.32894456  0.02409293  0.04807066  1  0  0.805933  0.741682  0  0.793648  0
H  H4  1  0.84584533  0.66187202  0.42868495  1  0  0.102901  0.05456  0  1.033329  0
H  H5  1  0.65415267  0.33813581  0.92869302  1  0  0.102822  0.054518  0  1.03324  0
H  H6  1  0.15415008  0.33812434  0.57131942  1  0  0.10291  0.054566  0  1.033415  0
H  H7  1  0.34584389  0.66186055  0.07132059  1  0  0.102837  0.054444  0  1.033223  0
H  H8  1  0.92766216  0.48739904  0.32788895  1  0  0.087137  0.078825  0  1.101807  0
H  H9  1  0.57236494  0.51261063  0.82788719  1  0  0.087076  0.078748  0  1.101725  0
H  H10  1  0.07234520  0.51259515  0.67211740  1  0  0.087088  0.078768  0  1.10196  0
H  H11  1  0.42765801  0.48739537  0.17212378  1  0  0.087147  0.078843  0  1.101683  0
H  H12  1  0.16300816  0.58020666  0.22800677  1  0  0.093502  0.086406  0  1.033469  0
H  H13  1  0.33703990  0.41980161  0.72800003  1  0  0.093549  0.086526  0  1.033538  0
H  H14  1  0.83699575  0.41980045  0.77199760  1  0  0.093532  0.086453  0  1.033292  0
H  H15  1  0.66299668  0.58020867  0.27200566  1  0  0.093551  0.086469  0  1.03335  0
H  H16  1  0.29224101  0.83717077  0.22997832  1  0  0.097213  0.094081  0  1.068562  0
H  H17  1  0.20782007  0.16284824  0.72996733  1  0  0.097215  0.094028  0  1.068766  0
H  H18  1  0.70775382  0.16283206  0.77002077  1  0  0.097138  0.093952  0  1.068498  0
H  H19  1  0.79221733  0.83717389  0.27003309  1  0  0.097206  0.094063  0  1.068721  0
H  H20  1  0.41317646  0.04353655  0.25104349  1  0  0.098969  0.097381  0  1.060416  0
H  H21  1  0.08684395  0.95648022  0.75102904  1  0  0.098972  0.097366  0  1.060434  0
H  H22  1  0.58682150  0.95646520  0.74896088  1  0  0.099013  0.097498  0  1.060579  0
H  H23  1  0.91317358  0.04353549  0.24896742  1  0  0.098959  0.097446  0  1.06037  0
H  H24  1  0.51007553  0.30492229  0.24723941  1  0  0.093014  0.084789  0  1.059635  0
H  H25  1  0.98992323  0.69509241  0.74723152  1  0  0.092936  0.084569  0  1.059694  0
H  H26  1  0.48991388  0.69508594  0.75275968  1  0  0.09295  0.084619  0  1.059783  0
H  H27  1  0.01008380  0.30491793  0.25276032  1  0  0.092928  0.084571  0  1.05979  0
H  H28  1  0.35738985  0.46309006  0.32809998  1  0  0.090705  0.097274  0  1.062916  0
H  H29  1  0.14260067  0.53692937  0.82809985  1  0  0.090646  0.09723  0  1.063136  0
H  H30  1  0.64259702  0.53691278  0.67190043  1  0  0.090642  0.097228  0  1.062874  0
H  H31  1  0.85739982  0.46308206  0.17190452  1  0  0.090718  0.097323  0  1.063071  0
H  H32  1  0.12698728  0.34055017  0.41727462  1  0  0.101487  0.050304  0  1.030857  0
H  H33  1  0.37300675  0.65945237  0.91727654  1  0  0.101419  0.050249  0  1.03085  0
H  H34  1  0.87300358  0.65945051  0.58272712  1  0  0.101424  0.050255  0  1.030822  0
H  H35  1  0.62699631  0.34055152  0.08272981  1  0  0.101413  0.050264  0  1.030862  0
H  H36  1  0.82963737  0.34204517  0.42318592  1  0  0.277887  0.255707  0  1.003641  0
H  H37  1  0.67036587  0.65794762  0.92318348  1  0  0.277913  0.255759  0  1.003626  0
H  H38  1  0.17035238  0.65794259  0.57680790  1  0  0.27793  0.255773  0  1.003762  0
H  H39  1  0.32963067  0.34205305  0.07681562  1  0  0.277882  0.25565  0  1.003655  0
H  H40  1  0.65340441  0.27375966  0.38492776  1  0  0.277642  0.260072  0  1.00068  0
H  H41  1  0.84659825  0.72624206  0.88492771  1  0  0.27766  0.260094  0  1.000723  0
H  H42  1  0.34658421  0.72622810  0.61506539  1  0  0.277654  0.260029  0  1.000772  0
H  H43  1  0.15339857  0.27375969  0.11507072  1  0  0.277649  0.260076  0  1.000693  0
H  H44  1  0.64368217  0.46711298  0.48882612  1  0  0.084815  0.041652  0  1.023254  0
H  H45  1  0.85632601  0.53288465  0.98882108  1  0  0.084817  0.041636  0  1.023175  0
H  H46  1  0.35630587  0.53287694  0.51116572  1  0  0.084839  0.041641  0  1.02322  0
H  H47  1  0.14366457  0.46711065  0.01117670  1  0  0.08484  0.04168  0  1.023221  0
H  H48  1  0.73505240  0.37427771  0.56664253  1  0  0.09703  0.072128  0  1.011525  0
H  H49  1  0.76494948  0.62570936  0.06663950  1  0  0.097009  0.072078  0  1.011537  0
H  H50  1  0.26493620  0.62571436  0.43335063  1  0  0.09701  0.07206  0  1.011498  0
H  H51  1  0.23504565  0.37428592  0.93335696  1  0  0.097012  0.072102  0  1.011506  0
H  H52  1  0.44118365  0.33522536  0.58366559  1  0  0.099213  0.062464  0  1.013083  0
H  H53  1  0.05881976  0.66477449  0.08366408  1  0  0.099212  0.062474  0  1.013065  0
H  H54  1  0.55880069  0.66476779  0.41632757  1  0  0.099188  0.062384  0  1.013036  0
H  H55  1  0.94116971  0.33521650  0.91633634  1  0  0.09919  0.06237  0  1.013094  0
H  H56  1  0.41794491  0.25545564  0.47806688  1  0  0.095064  0.060548  0  1.028413  0
H  H57  1  0.08205813  0.74454962  0.97806799  1  0  0.095076  0.060561  0  1.028423  0
H  H58  1  0.58204342  0.74453104  0.52192562  1  0  0.095089  0.060538  0  1.028292  0
H  H59  1  0.91794327  0.25543919  0.02193111  1  0  0.095058  0.060525  0  1.028396  0
H  H60  1  0.56385290  0.08336638  0.54598600  1  0  0.277159  0.249103  0  1.019365  0
H  H61  1  0.93613933  0.91662627  0.04598435  1  0  0.277153  0.249104  0  1.019464  0
H  H62  1  0.43613684  0.91662569  0.45401111  1  0  0.277171  0.249122  0  1.019481  0
H  H63  1  0.06386348  0.08336792  0.95400947  1  0  0.277188  0.249109  0  1.019412  0
H  H64  1  0.52574939  0.14535501  0.64145019  1  0  0.279301  0.264041  0  1.001537  0
H  H65  1  0.97423060  0.85463473  0.14145309  1  0  0.27925  0.263959  0  1.001701  0
H  H66  1  0.47423921  0.85464137  0.35854495  1  0  0.279287  0.264025  0  1.001735  0
H  H67  1  0.02575857  0.14535949  0.85854403  1  0  0.279349  0.264071  0  1.001714  0
C  C68  1  0.94462889  0.69876037  0.38347310  1  0  0.023752  0.095997  0  4.090464  0
C  C69  1  0.55538231  0.30124349  0.88346716  1  0  0.023761  0.095907  0  4.090233  0
C  C70  1  0.05537392  0.30123382  0.61652930  1  0  0.023765  0.095976  0  4.09088  0
C  C71  1  0.44462842  0.69876361  0.11653985  1  0  0.023762  0.096119  0  4.090387  0
C  C72  1  0.99090553  0.59988089  0.32848165  1  0  -0.133962  -0.216784  0  4.057425  0
C  C73  1  0.50911163  0.40012126  0.82846586  1  0  -0.133908  -0.216743  0  4.057355  0
C  C74  1  0.00911487  0.40012404  0.67152404  1  0  -0.13396  -0.216812  0  4.057173  0
C  C75  1  0.49090480  0.59988153  0.17153522  1  0  -0.134089  -0.217116  0  4.057359  0
C  C76  1  0.12032377  0.65256035  0.27210575  1  0  -0.099536  -0.062293  0  4.046707  0
C  C77  1  0.37970685  0.34744868  0.77209102  1  0  -0.099575  -0.062371  0  4.046759  0
C  C78  1  0.87968501  0.34743491  0.72789665  1  0  -0.099675  -0.062386  0  4.046714  0
C  C79  1  0.62032374  0.65256915  0.22791005  1  0  -0.099548  -0.06209  0  4.04673  0
C  C80  1  0.19332622  0.79718581  0.27383612  1  0  -0.101116  -0.179114  0  3.999104  0
C  C81  1  0.30670437  0.20282321  0.77382065  1  0  -0.101238  -0.179086  0  3.999175  0
C  C82  1  0.80669019  0.20282128  0.72616363  1  0  -0.101067  -0.179048  0  3.99897  0
C  C83  1  0.69331431  0.79718818  0.22617778  1  0  -0.101205  -0.179267  0  3.999613  0
C  C84  1  0.13704371  0.89353073  0.33024629  1  0  0.060194  0.107417  0  4.059804  0
C  C85  1  0.36297750  0.10647570  0.83023337  1  0  0.060269  0.107554  0  4.059493  0
C  C86  1  0.86295572  0.10645055  0.66975478  1  0  0.060242  0.107443  0  4.059537  0
C  C87  1  0.63704003  0.89354001  0.16976968  1  0  0.060259  0.107458  0  4.059685  0
C  C88  1  0.20609469  0.04647907  0.33156728  1  0  0.057652  0.10327  0  4.054578  0
C  C89  1  0.29391312  0.95353706  0.83155916  1  0  0.057533  0.102877  0  4.054318  0
C  C90  1  0.79390670  0.95351405  0.66843511  1  0  0.057528  0.10312  0  4.054721  0
C  C91  1  0.70609192  0.04647436  0.16844191  1  0  0.057522  0.103158  0  4.054331  0
C  C92  1  0.34657391  0.11022637  0.28479943  1  0  -0.101408  -0.176843  0  3.98727  0
C  C93  1  0.15342528  0.88977185  0.78478809  1  0  -0.101352  -0.176656  0  3.987324  0
C  C94  1  0.65341750  0.88977646  0.71520758  1  0  -0.101337  -0.176787  0  3.987353  0
C  C95  1  0.84657947  0.11023850  0.21521430  1  0  -0.101443  -0.176991  0  3.986955  0
C  C96  1  0.40219672  0.25797118  0.28291220  1  0  -0.102927  -0.074513  0  4.05624  0
C  C97  1  0.09780873  0.74203781  0.78290994  1  0  -0.102938  -0.074359  0  4.05636  0
C  C98  1  0.59779725  0.74203703  0.71709415  1  0  -0.102952  -0.074394  0  4.056191  0
C  C99  1  0.90219231  0.25798008  0.21709047  1  0  -0.102817  -0.074162  0  4.056288  0
C  C100  1  0.31954430  0.34614663  0.32861264  1  0  -0.133994  -0.218397  0  4.040472  0
C  C101  1  0.18045110  0.65385233  0.82861148  1  0  -0.133903  -0.218301  0  4.040383  0
C  C102  1  0.68044541  0.65385837  0.67138843  1  0  -0.133872  -0.218375  0  4.040181  0
C  C103  1  0.81955281  0.34615479  0.17138366  1  0  -0.134057  -0.218569  0  4.040671  0
C  C104  1  0.18932557  0.27623615  0.37746004  1  0  0.022814  0.088354  0  4.120931  0
C  C105  1  0.31067192  0.72376456  0.87745686  1  0  0.022837  0.088332  0  4.120842  0
C  C106  1  0.81066328  0.72376993  0.62254037  1  0  0.022849  0.088409  0  4.120792  0
C  C107  1  0.68932889  0.27623503  0.12254422  1  0  0.022845  0.088389  0  4.120912  0
C  C108  1  0.65515696  0.35915442  0.50971155  1  0  -0.082428  0.001453  0  3.957721  0
C  C109  1  0.84484435  0.64084066  0.00970682  1  0  -0.082408  0.001579  0  3.957597  0
C  C110  1  0.34483222  0.64083550  0.49028095  1  0  -0.082411  0.001653  0  3.95738  0
C  C111  1  0.15515390  0.35915785  0.99029096  1  0  -0.082447  0.001405  0  3.957682  0
C  C112  1  0.49323618  0.27167144  0.53707612  1  0  -0.08299  0.006306  0  3.954496  0
C  C113  1  0.00676708  0.72832987  0.03707671  1  0  -0.083005  0.006187  0  3.95451  0
C  C114  1  0.50675100  0.72831956  0.46291770  1  0  -0.08307  0.006292  0  3.954309  0
C  C115  1  0.99322949  0.27166218  0.96292106  1  0  -0.082921  0.006488  0  3.95435  0
N  N116  1  0.01049475  0.84030755  0.38560938  1  0  -0.484608  -0.426959  0  3.426422  0
N  N117  1  0.48952764  0.15968441  0.88561163  1  0  -0.484585  -0.426897  0  3.42567  0
N  N118  1  0.98950603  0.15970065  0.61439235  1  0  -0.484565  -0.426905  0  3.426745  0
N  N119  1  0.51048654  0.84030976  0.11439802  1  0  -0.484527  -0.426881  0  3.425925  0
N  N120  1  0.13200406  0.13341234  0.38126590  1  0  -0.47779  -0.425732  0  3.421187  0
N  N121  1  0.36800218  0.86658724  0.88126552  1  0  -0.477722  -0.425665  0  3.420831  0
N  N122  1  0.86799019  0.86659265  0.61873451  1  0  -0.477819  -0.425744  0  3.421247  0
N  N123  1  0.63199976  0.13341234  0.11873688  1  0  -0.477756  -0.425791  0  3.420983  0
N  N124  1  0.72110048  0.28281567  0.44061618  1  0  -0.708074  -0.632232  0  3.243233  0
N  N125  1  0.77889992  0.71718021  0.94061645  1  0  -0.708096  -0.63226  0  3.243361  0
N  N126  1  0.27888728  0.71717317  0.55937698  1  0  -0.7081  -0.632276  0  3.243427  0
N  N127  1  0.22109690  0.28282154  0.05938199  1  0  -0.708061  -0.63211  0  3.243311  0
N  N128  1  0.48685026  0.13091666  0.57782071  1  0  -0.714423  -0.640771  0  3.237211  0
N  N129  1  0.01313989  0.86908003  0.07782433  1  0  -0.71436  -0.640662  0  3.237456  0
N  N130  1  0.51313835  0.86907541  0.42217574  1  0  -0.714407  -0.640781  0  3.237465  0
N  N131  1  0.98686065  0.13091417  0.92217344  1  0  -0.714544  -0.640871  0  3.237567  0
