# generated using pymatgen
data_GdH9C11O7
_symmetry_space_group_name_H-M   'P 1'
_cell_length_a   10.37262122
_cell_length_b   10.37266410
_cell_length_c   14.05700000
_cell_angle_alpha   90.00000000
_cell_angle_beta   90.00000000
_cell_angle_gamma   90.00000000
_symmetry_Int_Tables_number   1
_chemical_formula_structural   GdH9C11O7
_chemical_formula_sum   'Gd4 H36 C44 O28'
_cell_volume   1512.41674730
_cell_formula_units_Z   4
loop_
 _symmetry_equiv_pos_site_id
 _symmetry_equiv_pos_as_xyz
  1  'x, y, z'
loop_
 _atom_site_type_symbol
 _atom_site_label
 _atom_site_symmetry_multiplicity
 _atom_site_fract_x
 _atom_site_fract_y
 _atom_site_fract_z
 _atom_site_occupancy
 _atom_site_hle17_bader_spin_density
 _atom_site_hle17_ddec_charge
 _atom_site_hle17_ddec_spin_density
 _atom_site_hle17_ddec_sum_bond_order
 _atom_site_hle17_magmom
 _atom_site_hse06_10hf_bader_spin_density
 _atom_site_hse06_10hf_ddec_charge
 _atom_site_hse06_10hf_ddec_spin_density
 _atom_site_hse06_10hf_ddec_sum_bond_order
 _atom_site_hse06_10hf_magmom
 _atom_site_hse06_bader_spin_density
 _atom_site_hse06_ddec_charge
 _atom_site_hse06_ddec_spin_density
 _atom_site_hse06_ddec_sum_bond_order
 _atom_site_hse06_magmom
 _atom_site_pbe_bader_charge
 _atom_site_pbe_bader_spin_density
 _atom_site_pbe_cm5_charge
 _atom_site_pbe_ddec_charge
 _atom_site_pbe_ddec_spin_density
 _atom_site_pbe_ddec_sum_bond_order
 _atom_site_pbe_magmom
Gd  Gd0  1  0.13020045  0.12848387  0.16505086  1  0  2.237477  0  1.763167  0  0  2.148267  0  2.12412  0  0  2.202898  0  2.067498  0  2.209978  0  1.485635  2.102241  0  2.175014  0
Gd  Gd1  1  0.86979943  0.87151574  0.66505086  1  0  2.237467  0  1.763209  0  0  2.14824  0  2.124195  0  0  2.202888  0  2.067538  0  2.209974  0  1.485638  2.102212  0  2.175087  0
Gd  Gd2  1  0.87151645  0.13020184  0.91505158  1  0  2.237437  0  1.763226  0  0  2.148207  0  2.124232  0  0  2.202864  0  2.067573  0  2.209905  0  1.485617  2.102228  0  2.175042  0
Gd  Gd3  1  0.12848343  0.86979872  0.41505086  1  0  2.237453  0  1.763239  0  0  2.148209  0  2.124273  0  0  2.202879  0  2.067584  0  2.209944  0  1.485614  2.102211  0  2.175113  0
H  H4  1  0.23682828  0.36483202  0.08657537  1  0  0.387742  0  0.847503  0  0  0.374789  0  0.896757  0  0  0.383184  0  0.88787  0  0.625246  0  0.331074  0.368844  0  0.902919  0
H  H5  1  0.76317257  0.63516758  0.58657537  1  0  0.387737  0  0.847479  0  0  0.374785  0  0.896734  0  0  0.383181  0  0.887847  0  0.625241  0  0.331086  0.368841  0  0.902895  0
H  H6  1  0.63516732  0.23682730  0.83657537  1  0  0.387728  0  0.847576  0  0  0.374771  0  0.896837  0  0  0.383168  0  0.88795  0  0.625258  0  0.33108  0.368826  0  0.903  0
H  H7  1  0.36483353  0.76317327  0.33657537  1  0  0.387742  0  0.847549  0  0  0.374802  0  0.896792  0  0  0.3832  0  0.887901  0  0.625222  0  0.331071  0.368854  0  0.902961  0
H  H8  1  0.89665667  0.00774054  0.30032795  1  0  0.102294  0  0.993103  0  0  0.104007  0  1.071184  0  0  0.108419  0  1.067029  0  0.085365  0  0.11609  0.101206  0  1.073436  0
H  H9  1  0.10334418  0.99225907  0.80032795  1  0  0.102291  0  0.993103  0  0  0.104009  0  1.071175  0  0  0.108418  0  1.067022  0  0.085379  0  0.116085  0.101207  0  1.073427  0
H  H10  1  0.99226028  0.89665586  0.05032866  1  0  0.102293  0  0.993118  0  0  0.104003  0  1.071213  0  0  0.108415  0  1.067057  0  0.085385  0  0.116083  0.101202  0  1.073465  0
H  H11  1  0.00773961  0.10334375  0.55032866  1  0  0.102305  0  0.993094  0  0  0.10402  0  1.071172  0  0  0.108432  0  1.067018  0  0.085389  0  0.116088  0.101219  0  1.073425  0
H  H12  1  0.53773197  0.07803878  0.15690617  1  0  0.112532  0  0.951678  0  0  0.120282  0  1.017347  0  0  0.124245  0  1.013674  0  0.133505  0  0.114198  0.117158  0  1.020398  0
H  H13  1  0.46226888  0.92196083  0.65690617  1  0  0.112556  0  0.951621  0  0  0.120308  0  1.01728  0  0  0.124275  0  1.013608  0  0.133507  0  0.11423  0.117184  0  1.02033  0
H  H14  1  0.92196079  0.53773360  0.90690546  1  0  0.112546  0  0.951687  0  0  0.120305  0  1.017343  0  0  0.124272  0  1.013669  0  0.133505  0  0.114192  0.11718  0  1.020397  0
H  H15  1  0.07803910  0.46226601  0.40690546  1  0  0.112532  0  0.951688  0  0  0.120287  0  1.017347  0  0  0.124254  0  1.013676  0  0.133505  0  0.114198  0.117162  0  1.0204  0
H  H16  1  0.53957432  0.98637051  0.45545138  1  0  0.118042  0  0.936257  0  0  0.125258  0  1.00125  0  0  0.12977  0  0.996776  0  0.124579  0  0.114615  0.12179  0  1.004942  0
H  H17  1  0.46042557  0.01362909  0.95545209  1  0  0.118024  0  0.936222  0  0  0.125237  0  1.00122  0  0  0.129749  0  0.996746  0  0.124575  0  0.114601  0.121769  0  1.004913  0
H  H18  1  0.01362722  0.53957401  0.20545067  1  0  0.118033  0  0.936208  0  0  0.125252  0  1.001197  0  0  0.129764  0  0.996724  0  0.124543  0  0.114622  0.121784  0  1.00489  0
H  H19  1  0.98637170  0.46042656  0.70544995  1  0  0.118062  0  0.936207  0  0  0.125263  0  1.001214  0  0  0.129775  0  0.996739  0  0.124564  0  0.114611  0.121795  0  1.004905  0
H  H20  1  0.40570844  0.32131668  0.98404496  1  0  0.031253  0  0.910965  0  0  0.048716  0  0.96893  0  0  0.048721  0  0.96858  0  0.026725  0  0.098232  0.04859  0  0.969319  0
H  H21  1  0.59429144  0.67868389  0.48404567  1  0  0.031234  0  0.911036  0  0  0.048689  0  0.968984  0  0  0.048695  0  0.968633  0  0.02674  0  0.098221  0.048565  0  0.969373  0
H  H22  1  0.67868380  0.40570869  0.73404567  1  0  0.031236  0  0.911024  0  0  0.048687  0  0.968975  0  0  0.048693  0  0.968624  0  0.026739  0  0.09822  0.048562  0  0.969363  0
H  H23  1  0.32131608  0.59429188  0.23404567  1  0  0.031227  0  0.911044  0  0  0.048678  0  0.96899  0  0  0.048683  0  0.968641  0  0.026736  0  0.098226  0.048553  0  0.969379  0
H  H24  1  0.44542261  0.18926092  0.05840151  1  0  0.056289  0  0.933239  0  0  0.069808  0  1.000176  0  0  0.069613  0  0.999788  0  0.080336  0  0.110236  0.069774  0  1.000736  0
H  H25  1  0.55457824  0.81073868  0.55840151  1  0  0.056319  0  0.933239  0  0  0.069801  0  1.0002  0  0  0.069606  0  0.999811  0  0.080421  0  0.110232  0.069767  0  1.00076  0
H  H26  1  0.81074010  0.44542077  0.80840222  1  0  0.056314  0  0.933203  0  0  0.069795  0  1.000165  0  0  0.069601  0  0.999774  0  0.080402  0  0.110226  0.069761  0  1.000725  0
H  H27  1  0.18926074  0.55457980  0.30840222  1  0  0.056302  0  0.933268  0  0  0.069789  0  1.00021  0  0  0.069594  0  0.999822  0  0.080418  0  0.11022  0.069754  0  1.00077  0
H  H28  1  0.60455982  0.36407522  0.08355695  1  0  0.119289  0  0.942072  0  0  0.140357  0  1.000225  0  0  0.141727  0  1.000616  0  0.043751  0  0.099048  0.139666  0  0.999545  0
H  H29  1  0.39544006  0.63592438  0.58355695  1  0  0.119266  0  0.94203  0  0  0.140335  0  1.000187  0  0  0.141704  0  1.000578  0  0.043753  0  0.099039  0.139643  0  0.999507  0
H  H30  1  0.63592508  0.60455828  0.83355695  1  0  0.11926  0  0.942012  0  0  0.140322  0  1.000184  0  0  0.141693  0  1.000574  0  0.043772  0  0.099033  0.139631  0  0.999504  0
H  H31  1  0.36407576  0.39544132  0.33355695  1  0  0.119284  0  0.942028  0  0  0.14035  0  1.000187  0  0  0.14172  0  1.000577  0  0.043766  0  0.099043  0.139658  0  0.999507  0
H  H32  1  0.51097113  0.34305362  0.18877854  1  0  0.110643  0  0.949957  0  0  0.131261  0  1.009836  0  0  0.132331  0  1.010704  0  0.065672  0  0.093088  0.130457  0  1.009301  0
H  H33  1  0.48902779  0.65694502  0.68877854  1  0  0.110679  0  0.949998  0  0  0.1313  0  1.009864  0  0  0.13237  0  1.010731  0  0.065671  0  0.093115  0.130496  0  1.009328  0
H  H34  1  0.65694581  0.51097191  0.93877854  1  0  0.110642  0  0.949966  0  0  0.131259  0  1.009845  0  0  0.13233  0  1.010714  0  0.065671  0  0.093094  0.130455  0  1.00931  0
H  H35  1  0.34305504  0.48902866  0.43877854  1  0  0.110652  0  0.94995  0  0  0.131268  0  1.009829  0  0  0.132339  0  1.010697  0  0.06568  0  0.093091  0.130464  0  1.009294  0
H  H36  1  0.47986135  0.47604453  0.11128761  1  0  0.093362  0  0.950408  0  0  0.113322  0  1.011357  0  0  0.114454  0  1.011856  0  -0.009832  0  0.085653  0.112504  0  1.011112  0
H  H37  1  0.52013853  0.52395508  0.61128761  1  0  0.093343  0  0.950417  0  0  0.113299  0  1.011375  0  0  0.114432  0  1.011874  0  -0.009838  0  0.085646  0.112482  0  1.01113  0
H  H38  1  0.52395435  0.47986129  0.86128761  1  0  0.093353  0  0.950408  0  0  0.113302  0  1.011367  0  0  0.114435  0  1.011866  0  -0.009842  0  0.085642  0.112485  0  1.011122  0
H  H39  1  0.47604553  0.52013928  0.36128761  1  0  0.093358  0  0.950405  0  0  0.113309  0  1.011362  0  0  0.114442  0  1.011861  0  -0.009851  0  0.085643  0.112491  0  1.011117  0
C  C40  1  0.79618448  0.95976790  0.47686846  1  0  0.68632  0  3.878835  0  0  0.641595  0  4.173885  0  0  0.676332  0  4.164936  0  1.530374  0  0.215668  0.618084  0  4.178566  0
C  C41  1  0.20381541  0.04023267  0.97686846  1  0  0.686319  0  3.878854  0  0  0.641596  0  4.173904  0  0  0.676334  0  4.164954  0  1.530369  0  0.21568  0.618086  0  4.178585  0
C  C42  1  0.04023380  0.79618504  0.22686704  1  0  0.686259  0  3.878944  0  0  0.641524  0  4.174011  0  0  0.676263  0  4.165064  0  1.530355  0  0.215685  0.618014  0  4.178692  0
C  C43  1  0.95976704  0.20381456  0.72686704  1  0  0.68629  0  3.878948  0  0  0.641561  0  4.174005  0  0  0.676299  0  4.16506  0  1.530361  0  0.2157  0.61805  0  4.17869  0
C  C44  1  0.72647114  0.99339282  0.38755495  1  0  -0.064882  0  3.748418  0  0  -0.035758  0  3.979005  0  0  -0.046645  0  4.002363  0  0.01193  0  -0.012014  -0.028928  0  3.96374  0
C  C45  1  0.27352874  0.00660679  0.88755567  1  0  -0.064905  0  3.74845  0  0  -0.035783  0  3.979033  0  0  -0.04667  0  4.002391  0  0.011971  0  -0.012048  -0.028952  0  3.963766  0
C  C46  1  0.00660874  0.72647200  0.13755495  1  0  -0.064829  0  3.748378  0  0  -0.03569  0  3.978953  0  0  -0.046579  0  4.002314  0  0.011623  0  -0.01201  -0.028863  0  3.963692  0
C  C47  1  0.99339114  0.27352954  0.63755495  1  0  -0.064832  0  3.748345  0  0  -0.035709  0  3.978927  0  0  -0.046596  0  4.002286  0  0.011735  0  -0.012021  -0.028881  0  3.963664  0
C  C48  1  0.79226358  0.01504917  0.30255816  1  0  -0.036336  0  3.659735  0  0  -0.076597  0  3.904167  0  0  -0.071818  0  3.922119  0  -0.017235  0  -0.061219  -0.079963  0  3.892288  0
C  C49  1  0.20773534  0.98495043  0.80255744  1  0  -0.036325  0  3.659756  0  0  -0.076587  0  3.904182  0  0  -0.071805  0  3.922135  0  -0.017246  0  -0.061193  -0.079952  0  3.892302  0
C  C50  1  0.98495161  0.79226416  0.05255744  1  0  -0.036392  0  3.659764  0  0  -0.076658  0  3.904199  0  0  -0.071878  0  3.92215  0  -0.017251  0  -0.061226  -0.080023  0  3.892322  0
C  C51  1  0.01504923  0.20773641  0.55255744  1  0  -0.036381  0  3.659744  0  0  -0.076643  0  3.904177  0  0  -0.071865  0  3.922129  0  -0.017385  0  -0.061238  -0.080008  0  3.8923  0
C  C52  1  0.72494790  0.04849863  0.22000285  1  0  -0.078008  0  3.754752  0  0  -0.049195  0  3.983727  0  0  -0.060572  0  4.007364  0  0.03386  0  -0.013753  -0.042149  0  3.968282  0
C  C53  1  0.27505294  0.95150097  0.72000285  1  0  -0.077982  0  3.754772  0  0  -0.049168  0  3.983753  0  0  -0.060543  0  4.007389  0  0.033848  0  -0.013748  -0.042123  0  3.968306  0
C  C54  1  0.95150009  0.72494876  0.97000213  1  0  -0.077957  0  3.754871  0  0  -0.0492  0  3.983854  0  0  -0.060577  0  4.00749  0  0.033839  0  -0.013773  -0.042157  0  3.968406  0
C  C55  1  0.04849979  0.27505084  0.47000213  1  0  -0.077962  0  3.754854  0  0  -0.049191  0  3.983803  0  0  -0.060566  0  4.007438  0  0.033838  0  -0.013754  -0.042146  0  3.968356  0
C  C56  1  0.59049201  0.05602129  0.22175642  1  0  -0.040129  0  3.67512  0  0  -0.07893  0  3.917832  0  0  -0.073924  0  3.93527  0  -0.048934  0  -0.061957  -0.081676  0  3.906394  0
C  C57  1  0.40950690  0.94397832  0.72175642  1  0  -0.040186  0  3.675114  0  0  -0.078969  0  3.91783  0  0  -0.073967  0  3.935271  0  -0.049042  0  -0.061996  -0.081713  0  3.906392  0
C  C58  1  0.94397547  0.59049439  0.97175571  1  0  -0.04012  0  3.675177  0  0  -0.078927  0  3.917907  0  0  -0.073923  0  3.935346  0  -0.049041  0  -0.0619  -0.081671  0  3.90647  0
C  C59  1  0.05602441  0.40950618  0.47175571  1  0  -0.040098  0  3.67513  0  0  -0.078887  0  3.917856  0  0  -0.073886  0  3.935297  0  -0.048934  0  -0.061946  -0.081631  0  3.90642  0
C  C60  1  0.52386083  0.03185778  0.30623390  1  0  -0.083761  0  3.768126  0  0  -0.056025  0  4.00108  0  0  -0.066325  0  4.023375  0  -0.068447  0  -0.016452  -0.049986  0  3.986358  0
C  C61  1  0.47613808  0.96814183  0.80623390  1  0  -0.083725  0  3.768106  0  0  -0.056029  0  4.001099  0  0  -0.066329  0  4.023395  0  -0.068342  0  -0.016458  -0.049995  0  3.986385  0
C  C62  1  0.96813812  0.52386252  0.05623390  1  0  -0.083637  0  3.768062  0  0  -0.055961  0  4.000986  0  0  -0.066262  0  4.023285  0  -0.06832  0  -0.016469  -0.049927  0  3.986268  0
C  C63  1  0.03186080  0.47613804  0.55623319  1  0  -0.083649  0  3.768086  0  0  -0.055999  0  4.001082  0  0  -0.066299  0  4.02338  0  -0.068452  0  -0.016454  -0.049966  0  3.986368  0
C  C64  1  0.59184076  0.00267144  0.38936188  1  0  -0.047488  0  3.668718  0  0  -0.08767  0  3.914301  0  0  -0.082698  0  3.93095  0  -0.011454  0  -0.064569  -0.090902  0  3.903645  0
C  C65  1  0.40815913  0.99732816  0.88936188  1  0  -0.047482  0  3.668691  0  0  -0.087651  0  3.914284  0  0  -0.082678  0  3.930934  0  -0.01148  0  -0.064548  -0.090882  0  3.903629  0
C  C66  1  0.99732553  0.59184217  0.13936188  1  0  -0.047487  0  3.668599  0  0  -0.087674  0  3.914197  0  0  -0.082701  0  3.930848  0  -0.011104  0  -0.064581  -0.090903  0  3.903542  0
C  C67  1  0.00267435  0.40815937  0.63936117  1  0  -0.04752  0  3.668633  0  0  -0.087669  0  3.914231  0  0  -0.082695  0  3.93088  0  -0.011074  0  -0.064544  -0.090898  0  3.903576  0
C  C68  1  0.79849344  0.07426443  0.13085794  1  0  0.716865  0  3.872511  0  0  0.672677  0  4.161359  0  0  0.707858  0  4.151405  0  1.54267  0  0.233653  0.648819  0  4.166543  0
C  C69  1  0.20150644  0.92573614  0.63085722  1  0  0.716888  0  3.872487  0  0  0.672687  0  4.161359  0  0  0.707869  0  4.151405  0  1.542687  0  0.233654  0.648832  0  4.166538  0
C  C70  1  0.92573611  0.79849207  0.88085580  1  0  0.716609  0  3.872951  0  0  0.672554  0  4.161612  0  0  0.707737  0  4.151654  0  1.543236  0  0.233558  0.648704  0  4.166781  0
C  C71  1  0.07426281  0.20150754  0.38085580  1  0  0.716602  0  3.872981  0  0  0.67254  0  4.161653  0  0  0.707723  0  4.151696  0  1.543237  0  0.233574  0.648686  0  4.166828  0
C  C72  1  0.37950099  0.03091780  0.30705271  1  0  0.728452  0  3.858973  0  0  0.683747  0  4.147454  0  0  0.719281  0  4.136608  0  1.583248  0  0.241771  0.660258  0  4.152724  0
C  C73  1  0.62049889  0.96908276  0.80705271  1  0  0.728489  0  3.858895  0  0  0.683795  0  4.147377  0  0  0.719327  0  4.13653  0  1.583261  0  0.241786  0.660307  0  4.152647  0
C  C74  1  0.96908773  0.37950135  0.05705769  1  0  0.728195  0  3.8593  0  0  0.683684  0  4.147492  0  0  0.719215  0  4.136649  0  1.583189  0  0.241784  0.660197  0  4.15276  0
C  C75  1  0.03091408  0.62049922  0.55705556  1  0  0.728189  0  3.859341  0  0  0.683605  0  4.147662  0  0  0.719135  0  4.13682  0  1.583223  0  0.241735  0.660118  0  4.15293  0
C  C76  1  0.41381247  0.29001710  0.05876289  1  0  0.218269  0  3.615763  0  0  0.164434  0  3.89569  0  0  0.172967  0  3.902779  0  0.418284  0  -0.063221  0.158655  0  3.890578  0
C  C77  1  0.58618838  0.70998250  0.55876361  1  0  0.218211  0  3.61589  0  0  0.164433  0  3.895748  0  0  0.172966  0  3.902836  0  0.418151  0  -0.063218  0.158654  0  3.890636  0
C  C78  1  0.70998351  0.41381172  0.80876361  1  0  0.218227  0  3.615807  0  0  0.164469  0  3.895637  0  0  0.173001  0  3.902727  0  0.418231  0  -0.063198  0.158691  0  3.890524  0
C  C79  1  0.29001734  0.58618885  0.30876361  1  0  0.218263  0  3.615895  0  0  0.164507  0  3.89572  0  0  0.173042  0  3.902806  0  0.418175  0  -0.063196  0.158729  0  3.890605  0
C  C80  1  0.50740598  0.37369474  0.11405207  1  0  -0.341043  0  3.719204  0  0  -0.415764  0  3.963383  0  0  -0.41955  0  3.97383  0  -0.056881  0  -0.246433  -0.41312  0  3.956088  0
C  C81  1  0.49259391  0.62630487  0.61405279  1  0  -0.340996  0  3.719224  0  0  -0.415725  0  3.963383  0  0  -0.419511  0  3.973829  0  -0.05683  0  -0.246422  -0.413081  0  3.956088  0
C  C82  1  0.62630456  0.50740484  0.86405279  1  0  -0.34098  0  3.719129  0  0  -0.415701  0  3.963288  0  0  -0.41949  0  3.973736  0  -0.056893  0  -0.246407  -0.413056  0  3.955992  0
C  C83  1  0.37369532  0.49259476  0.36405207  1  0  -0.341038  0  3.719157  0  0  -0.415763  0  3.963315  0  0  -0.41955  0  3.97376  0  -0.056884  0  -0.246424  -0.413118  0  3.95602  0
O  O84  1  0.74119934  0.98667709  0.55539802  1  0  -0.684638  0  1.970835  0  0  -0.647782  0  2.203851  0  0  -0.672269  0  2.194117  0  -1.169416  0  -0.38811  -0.630005  0  2.210131  0
O  O85  1  0.25880151  0.01332252  0.05539802  1  0  -0.68465  0  1.970774  0  0  -0.64779  0  2.203779  0  0  -0.672277  0  2.194049  0  -1.169422  0  -0.388123  -0.630013  0  2.21006  0
O  O86  1  0.01332354  0.74119628  0.30539731  1  0  -0.684634  0  1.970822  0  0  -0.647766  0  2.203831  0  0  -0.67226  0  2.194103  0  -1.16939  0  -0.388121  -0.629993  0  2.21011  0
O  O87  1  0.98667731  0.25880333  0.80539731  1  0  -0.684652  0  1.970832  0  0  -0.647788  0  2.20384  0  0  -0.672281  0  2.194111  0  -1.169391  0  -0.388129  -0.630017  0  2.210118  0
O  O88  1  0.90599279  0.90214143  0.47486590  1  0  -0.785639  0  2.066775  0  0  -0.747371  0  2.322707  0  0  -0.773243  0  2.310415  0  -1.211559  0  -0.385008  -0.727881  0  2.33026  0
O  O89  1  0.09400710  0.09785818  0.97486661  1  0  -0.785619  0  2.066807  0  0  -0.747365  0  2.322763  0  0  -0.77323  0  2.310459  0  -1.211561  0  -0.385004  -0.727879  0  2.330315  0
O  O90  1  0.09785762  0.90599386  0.22486804  1  0  -0.785585  0  2.066784  0  0  -0.747323  0  2.322735  0  0  -0.773186  0  2.31043  0  -1.211601  0  -0.385001  -0.727833  0  2.33029  0
O  O91  1  0.90214227  0.09400671  0.72486804  1  0  -0.785618  0  2.066829  0  0  -0.747353  0  2.322772  0  0  -0.773216  0  2.310466  0  -1.211592  0  -0.385007  -0.727866  0  2.330331  0
O  O92  1  0.92123676  0.07927954  0.13724763  1  0  -0.800243  0  2.179124  0  0  -0.756691  0  2.445232  0  0  -0.783951  0  2.432618  0  -1.200966  0  -0.42634  -0.736143  0  2.452254  0
O  O93  1  0.07876312  0.92072007  0.63724763  1  0  -0.800249  0  2.179165  0  0  -0.756695  0  2.445288  0  0  -0.783958  0  2.432674  0  -1.200965  0  -0.426333  -0.736146  0  2.452308  0
O  O94  1  0.92071905  0.92124163  0.88724692  1  0  -0.80016  0  2.179209  0  0  -0.756637  0  2.445226  0  0  -0.783901  0  2.432608  0  -1.20096  0  -0.426316  -0.736095  0  2.452238  0
O  O95  1  0.07927986  0.07875797  0.38724692  1  0  -0.800174  0  2.17924  0  0  -0.756643  0  2.44525  0  0  -0.783911  0  2.432635  0  -1.200971  0  -0.426327  -0.736097  0  2.452266  0
O  O96  1  0.73923744  0.08849607  0.05270968  1  0  -0.68096  0  1.963896  0  0  -0.644522  0  2.201219  0  0  -0.668427  0  2.189557  0  -1.179589  0  -0.370858  -0.627246  0  2.208607  0
O  O97  1  0.26076244  0.91150643  0.55270897  1  0  -0.680993  0  1.963883  0  0  -0.644558  0  2.201227  0  0  -0.668466  0  2.189562  0  -1.179603  0  -0.370868  -0.62728  0  2.208613  0
O  O98  1  0.91150441  0.73924210  0.80271039  1  0  -0.680858  0  1.964197  0  0  -0.64446  0  2.201446  0  0  -0.668363  0  2.189786  0  -1.180184  0  -0.370804  -0.627179  0  2.208829  0
O  O99  1  0.08849547  0.26075847  0.30271039  1  0  -0.68085  0  1.964201  0  0  -0.644456  0  2.201458  0  0  -0.668356  0  2.189796  0  -1.180181  0  -0.370806  -0.627174  0  2.208842  0
O  O100  1  0.32063062  0.10322420  0.24897560  1  0  -0.713705  0  2.049911  0  0  -0.675773  0  2.302271  0  0  -0.701607  0  2.290363  0  -1.192707  0  -0.395288  -0.656611  0  2.30905  0
O  O101  1  0.67937022  0.89677636  0.74897560  1  0  -0.713725  0  2.049902  0  0  -0.675782  0  2.302252  0  0  -0.701622  0  2.290349  0  -1.1927  0  -0.395291  -0.65662  0  2.30903  0
O  O102  1  0.89677332  0.32063219  0.99897560  1  0  -0.713662  0  2.049763  0  0  -0.675795  0  2.302031  0  0  -0.701639  0  2.290135  0  -1.192503  0  -0.395304  -0.656639  0  2.308806  0
O  O103  1  0.10322656  0.67936742  0.49897347  1  0  -0.713655  0  2.049846  0  0  -0.675744  0  2.302136  0  0  -0.701588  0  2.290238  0  -1.192592  0  -0.39526  -0.656585  0  2.308911  0
O  O104  1  0.32724419  0.95404613  0.36605748  1  0  -0.731215  0  2.104334  0  0  -0.687947  0  2.354303  0  0  -0.71419  0  2.342273  0  -1.197465  0  -0.389984  -0.668569  0  2.361163  0
O  O105  1  0.67275570  0.04595348  0.86605819  1  0  -0.731233  0  2.104325  0  0  -0.687964  0  2.354286  0  0  -0.714204  0  2.342257  0  -1.197482  0  -0.389993  -0.66859  0  2.361145  0
O  O106  1  0.04595174  0.32724573  0.11605819  1  0  -0.731116  0  2.104788  0  0  -0.687918  0  2.354671  0  0  -0.714151  0  2.34264  0  -1.197567  0  -0.38997  -0.66854  0  2.361532  0
O  O107  1  0.95404814  0.67275581  0.61605606  1  0  -0.731118  0  2.104756  0  0  -0.687892  0  2.354669  0  0  -0.714127  0  2.342639  0  -1.197549  0  -0.389975  -0.668513  0  2.36153  0
O  O108  1  0.28673369  0.28753944  0.10089208  1  0  -0.63075  0  2.165222  0  0  -0.578452  0  2.399855  0  0  -0.59656  0  2.388351  0  -1.150999  0  -0.443737  -0.564837  0  2.4073  0
O  O109  1  0.71326619  0.71246017  0.60089279  1  0  -0.630734  0  2.165202  0  0  -0.578445  0  2.399817  0  0  -0.596556  0  2.388314  0  -1.15101  0  -0.443765  -0.564831  0  2.407263  0
O  O110  1  0.71246022  0.28673251  0.85089066  1  0  -0.630732  0  2.165318  0  0  -0.578444  0  2.399923  0  0  -0.596555  0  2.388423  0  -1.151024  0  -0.443766  -0.564835  0  2.407366  0
O  O111  1  0.28753966  0.71326806  0.35089137  1  0  -0.630744  0  2.165282  0  0  -0.578476  0  2.399864  0  0  -0.59659  0  2.388361  0  -1.150973  0  -0.443747  -0.564864  0  2.407307  0
