# generated using pymatgen
data_U2CdH30C32(N2O11)2
_symmetry_space_group_name_H-M   'P 1'
_cell_length_a   7.68752503
_cell_length_b   10.85344291
_cell_length_c   13.82256841
_cell_angle_alpha   78.79959856
_cell_angle_beta   81.63395356
_cell_angle_gamma   86.25851813
_symmetry_Int_Tables_number   1
_chemical_formula_structural   U2CdH30C32(N2O11)2
_chemical_formula_sum   'U2 Cd1 H30 C32 N4 O22'
_cell_volume   1118.48311228
_cell_formula_units_Z   1
loop_
 _symmetry_equiv_pos_site_id
 _symmetry_equiv_pos_as_xyz
  1  'x, y, z'
loop_
 _atom_site_type_symbol
 _atom_site_label
 _atom_site_symmetry_multiplicity
 _atom_site_fract_x
 _atom_site_fract_y
 _atom_site_fract_z
 _atom_site_occupancy
 _atom_site_hle17_bader_spin_density
 _atom_site_hle17_ddec_charge
 _atom_site_hle17_ddec_spin_density
 _atom_site_hle17_ddec_sum_bond_order
 _atom_site_hle17_magmom
 _atom_site_hse06_10hf_bader_spin_density
 _atom_site_hse06_10hf_ddec_charge
 _atom_site_hse06_10hf_ddec_spin_density
 _atom_site_hse06_10hf_ddec_sum_bond_order
 _atom_site_hse06_10hf_magmom
 _atom_site_hse06_bader_spin_density
 _atom_site_hse06_ddec_charge
 _atom_site_hse06_ddec_spin_density
 _atom_site_hse06_ddec_sum_bond_order
 _atom_site_hse06_magmom
 _atom_site_pbe_bader_spin_density
 _atom_site_pbe_cm5_charge
 _atom_site_pbe_ddec_charge
 _atom_site_pbe_ddec_spin_density
 _atom_site_pbe_ddec_sum_bond_order
 _atom_site_pbe_magmom
U  U0  1  0.20905123  0.39993118  0.64007063  1  0  2.49547  0  4.137614  0  0  2.558005  0  4.789127  0  0  2.66913  0  4.751026  0  0  2.163532  2.479566  0  4.816142  0
U  U1  1  0.79094497  0.60005723  0.35992867  1  0  2.495214  0  4.137815  0  0  2.55772  0  4.789348  0  0  2.668801  0  4.751327  0  0  2.163343  2.479244  0  4.816409  0
Cd  Cd2  1  0.49999681  0.00000431  0.50000204  1  0  1.143567  0  1.623663  0  0  0.951282  0  2.060624  0  0  1.008548  0  2.007717  0  0  0.77994  0.909957  0  2.097287  0
H  H3  1  0.84848567  0.98977057  0.50859440  1  0  0.410247  0  0.855425  0  0  0.385694  0  0.925971  0  0  0.394801  0  0.915233  0  0  0.302078  0.379157  0  0.933684  0
H  H4  1  0.15149969  0.01021993  0.49141331  1  0  0.410277  0  0.855276  0  0  0.385739  0  0.925796  0  0  0.394843  0  0.915066  0  0  0.302136  0.379206  0  0.933505  0
H  H5  1  0.84600534  0.86165136  0.46923288  1  0  0.427025  0  0.87328  0  0  0.394974  0  0.938867  0  0  0.406521  0  0.921999  0  0  0.292825  0.386707  0  0.950905  0
H  H6  1  0.15398003  0.13833914  0.53077483  1  0  0.426983  0  0.873329  0  0  0.394956  0  0.938871  0  0  0.406502  0  0.922002  0  0  0.292865  0.38669  0  0.95091  0
H  H7  1  0.14383528  0.76813606  0.58202652  1  0  0.169573  0  0.918551  0  0  0.182763  0  0.974295  0  0  0.186175  0  0.972938  0  0  0.124759  0.180362  0  0.975409  0
H  H8  1  0.85615689  0.23185333  0.41797436  1  0  0.169632  0  0.918503  0  0  0.18278  0  0.974289  0  0  0.186193  0  0.972933  0  0  0.124763  0.180377  0  0.975404  0
H  H9  1  0.93488606  0.80920866  0.63963778  1  0  0.139551  0  0.936382  0  0  0.151391  0  0.994617  0  0  0.154881  0  0.993508  0  0  0.109614  0.148898  0  0.995629  0
H  H10  1  0.06511156  0.19077606  0.36036493  1  0  0.139521  0  0.936354  0  0  0.15134  0  0.994623  0  0  0.154831  0  0.993512  0  0  0.10959  0.148816  0  0.995666  0
H  H11  1  0.72100989  0.36080999  0.63326034  1  0  0.170649  0  0.910133  0  0  0.182305  0  0.969064  0  0  0.186194  0  0.966368  0  0  0.129632  0.179774  0  0.970859  0
H  H12  1  0.27899618  0.63919878  0.36672256  1  0  0.170602  0  0.909896  0  0  0.182318  0  0.968787  0  0  0.18621  0  0.966091  0  0  0.129607  0.179784  0  0.970575  0
H  H13  1  0.78970021  0.21035988  0.69537232  1  0  0.160242  0  0.919869  0  0  0.170986  0  0.974638  0  0  0.174919  0  0.971593  0  0  0.115555  0.168375  0  0.97672  0
H  H14  1  0.21031833  0.78965573  0.30462085  1  0  0.160161  0  0.9199  0  0  0.17091  0  0.97469  0  0  0.174843  0  0.971646  0  0  0.11556  0.168298  0  0.97677  0
H  H15  1  0.14051343  0.65000301  0.89366833  1  0  0.302174  0  0.930171  0  0  0.275846  0  0.999378  0  0  0.287482  0  0.990305  0  0  0.299898  0.267669  0  1.005719  0
H  H16  1  0.85948570  0.35000518  0.10632965  1  0  0.302149  0  0.930214  0  0  0.27582  0  0.999458  0  0  0.287451  0  0.990394  0  0  0.299906  0.267644  0  1.005798  0
H  H17  1  0.51685841  0.29259786  0.41450425  1  0  0.096266  0  0.953072  0  0  0.102777  0  1.019564  0  0  0.10524  0  1.017093  0  0  0.128278  0.100957  0  1.021483  0
H  H18  1  0.48313469  0.70739906  0.58549604  1  0  0.096258  0  0.953039  0  0  0.102775  0  1.019528  0  0  0.10524  0  1.017054  0  0  0.128275  0.10096  0  1.021437  0
H  H19  1  0.43246526  0.45503982  0.27660337  1  0  0.123351  0  0.968084  0  0  0.133383  0  1.028069  0  0  0.136883  0  1.027062  0  0  0.12  0.130893  0  1.028835  0
H  H20  1  0.56753408  0.54496277  0.72339769  1  0  0.123349  0  0.967991  0  0  0.133383  0  1.027959  0  0  0.136882  0  1.02695  0  0  0.119989  0.130894  0  1.028727  0
H  H21  1  0.32005621  0.15564669  0.13095688  1  0  0.123297  0  0.921274  0  0  0.138533  0  0.968515  0  0  0.141891  0  0.967388  0  0  0.123036  0.136099  0  0.969526  0
H  H22  1  0.67993656  0.84435862  0.86903914  1  0  0.123287  0  0.921379  0  0  0.138581  0  0.968547  0  0  0.14194  0  0.967419  0  0  0.123049  0.136146  0  0.969556  0
H  H23  1  0.41745199  0.00486172  0.27321676  1  0  0.085515  0  0.941333  0  0  0.098079  0  0.996198  0  0  0.099512  0  0.995407  0  0  0.123724  0.097085  0  0.996626  0
H  H24  1  0.58252641  0.99514084  0.72678222  1  0  0.085473  0  0.941362  0  0  0.098142  0  0.996125  0  0  0.099577  0  0.995333  0  0  0.123707  0.097139  0  0.996562  0
H  H25  1  0.18251301  0.54541053  0.20227435  1  0  0.129525  0  0.943599  0  0  0.136338  0  1.005608  0  0  0.139204  0  1.004889  0  0  0.12663  0.134194  0  1.006469  0
H  H26  1  0.81748084  0.45459588  0.79772792  1  0  0.129476  0  0.943495  0  0  0.136244  0  1.005585  0  0  0.139111  0  1.004861  0  0  0.126625  0.134102  0  1.00645  0
H  H27  1  0.08603754  0.69761834  0.05972531  1  0  0.115683  0  0.889587  0  0  0.129914  0  0.936963  0  0  0.132325  0  0.934918  0  0  0.149684  0.128082  0  0.938611  0
H  H28  1  0.91395650  0.30238520  0.94027598  1  0  0.115691  0  0.889586  0  0  0.129925  0  0.936949  0  0  0.132337  0  0.934901  0  0  0.149684  0.128093  0  0.938596  0
H  H29  1  0.29613228  0.46792981  0.85908174  1  0  0.117139  0  0.996342  0  0  0.120221  0  1.06449  0  0  0.125228  0  1.059416  0  0  0.132883  0.116466  0  1.068285  0
H  H30  1  0.70387445  0.53208129  0.14092027  1  0  0.117046  0  0.996438  0  0  0.120133  0  1.064576  0  0  0.125133  0  1.059502  0  0  0.13283  0.11638  0  1.068366  0
H  H31  1  0.40874162  0.30906995  0.99084399  1  0  0.13482  0  0.948897  0  0  0.139903  0  1.011929  0  0  0.144716  0  1.008933  0  0  0.116756  0.136415  0  1.014211  0
H  H32  1  0.59126280  0.69093549  0.00915769  1  0  0.134828  0  0.948907  0  0  0.139902  0  1.011927  0  0  0.144713  0  1.008931  0  0  0.116733  0.136414  0  1.014207  0
C  C33  1  0.94949825  0.64398629  0.57270914  1  0  0.764102  0  3.792493  0  0  0.725244  0  4.094002  0  0  0.764276  0  4.081282  0  0  0.243837  0.698441  0  4.101818  0
C  C34  1  0.05049391  0.35600040  0.42729725  1  0  0.764269  0  3.792233  0  0  0.725141  0  4.094091  0  0  0.764168  0  4.081385  0  0  0.243853  0.698339  0  4.101902  0
C  C35  1  0.02558541  0.72872844  0.63059278  1  0  -0.457608  0  3.640561  0  0  -0.493038  0  3.870663  0  0  -0.504967  0  3.871532  0  0  -0.160751  -0.484942  0  3.870159  0
C  C36  1  0.97441203  0.27126004  0.36940932  1  0  -0.457645  0  3.640474  0  0  -0.492884  0  3.870561  0  0  -0.504811  0  3.87143  0  0  -0.160699  -0.484763  0  3.870075  0
C  C37  1  0.08240100  0.66831916  0.73027513  1  0  0.742818  0  3.811518  0  0  0.703462  0  4.112753  0  0  0.739654  0  4.10283  0  0  0.222436  0.678702  0  4.118631  0
C  C38  1  0.91760410  0.33167399  0.26972563  1  0  0.742716  0  3.811714  0  0  0.703276  0  4.113047  0  0  0.739467  0  4.103143  0  0  0.222344  0.678517  0  4.118919  0
C  C39  1  0.55182615  0.29202713  0.76781661  1  0  0.731923  0  3.834406  0  0  0.698192  0  4.138239  0  0  0.73348  0  4.129174  0  0  0.218939  0.674014  0  4.143277  0
C  C40  1  0.44819346  0.70799319  0.23217642  1  0  0.732006  0  3.834139  0  0  0.698344  0  4.137892  0  0  0.73363  0  4.128823  0  0  0.219007  0.674161  0  4.14293  0
C  C41  1  0.67449302  0.26903950  0.67536649  1  0  -0.457714  0  3.636421  0  0  -0.497578  0  3.876553  0  0  -0.509245  0  3.87711  0  0  -0.16018  -0.489429  0  3.875488  0
C  C42  1  0.32552476  0.73096934  0.32461989  1  0  -0.457413  0  3.636154  0  0  -0.497398  0  3.876471  0  0  -0.509073  0  3.877045  0  0  -0.160058  -0.489226  0  3.875377  0
C  C43  1  0.58219679  0.21326973  0.60559828  1  0  0.761413  0  3.802952  0  0  0.719795  0  4.103643  0  0  0.758205  0  4.091451  0  0  0.231642  0.69335  0  4.110973  0
C  C44  1  0.41781493  0.78672517  0.39439665  1  0  0.761352  0  3.802492  0  0  0.719686  0  4.103318  0  0  0.7581  0  4.091117  0  0  0.231563  0.693229  0  4.110651  0
C  C45  1  0.47438925  0.26528293  0.35013429  1  0  0.144108  0  3.674996  0  0  0.110863  0  3.93181  0  0  0.117941  0  3.950238  0  0  0.057308  0.106209  0  3.919294  0
C  C46  1  0.52560510  0.73471495  0.64986647  1  0  0.144187  0  3.674941  0  0  0.110929  0  3.931732  0  0  0.11801  0  3.950155  0  0  0.057372  0.106277  0  3.91921  0
C  C47  1  0.42301862  0.35649869  0.27303826  1  0  -0.136055  0  3.647876  0  0  -0.155577  0  3.895073  0  0  -0.162446  0  3.914931  0  0  -0.070748  -0.151185  0  3.88184  0
C  C48  1  0.57697415  0.64350302  0.72696488  1  0  -0.136091  0  3.647919  0  0  -0.155613  0  3.895027  0  0  -0.162484  0  3.914881  0  0  -0.070753  -0.151224  0  3.8818  0
C  C49  1  0.36504329  0.31957551  0.19188655  1  0  0.086649  0  3.755537  0  0  0.099234  0  3.989519  0  0  0.102143  0  4.01137  0  0  0.014797  0.09744  0  3.974599  0
C  C50  1  0.63494685  0.68042710  0.80811518  1  0  0.086514  0  3.75593  0  0  0.099238  0  3.989739  0  0  0.102153  0  4.011591  0  0  0.014736  0.097444  0  3.974819  0
C  C51  1  0.36621570  0.19046329  0.19111053  1  0  -0.134841  0  3.682664  0  0  -0.154969  0  3.926718  0  0  -0.161171  0  3.946243  0  0  -0.067933  -0.150994  0  3.913682  0
C  C52  1  0.63377845  0.80954016  0.80888643  1  0  -0.134731  0  3.68283  0  0  -0.154931  0  3.926868  0  0  -0.161138  0  3.9464  0  0  -0.067898  -0.150954  0  3.913824  0
C  C53  1  0.41931317  0.10547264  0.27114552  1  0  0.133977  0  3.71007  0  0  0.104967  0  3.957886  0  0  0.111658  0  3.977596  0  0  0.053554  0.100565  0  3.944371  0
C  C54  1  0.58067188  0.89452804  0.72885400  1  0  0.133884  0  3.709961  0  0  0.104745  0  3.957865  0  0  0.111437  0  3.977575  0  0  0.053457  0.100343  0  3.944351  0
C  C55  1  0.30369336  0.41270110  0.10996452  1  0  0.112083  0  3.731674  0  0  0.118014  0  3.969036  0  0  0.123276  0  3.990067  0  0  0.026395  0.114705  0  3.954706  0
C  C56  1  0.69629798  0.58730341  0.89003753  1  0  0.112082  0  3.731773  0  0  0.117883  0  3.969181  0  0  0.123139  0  3.990221  0  0  0.026351  0.114576  0  3.954851  0
C  C57  1  0.21350768  0.52468524  0.12768688  1  0  -0.123834  0  3.644261  0  0  -0.143841  0  3.902208  0  0  -0.15108  0  3.921942  0  0  -0.058242  -0.139479  0  3.889364  0
C  C58  1  0.78648876  0.47532028  0.87231825  1  0  -0.12379  0  3.644293  0  0  -0.143747  0  3.902237  0  0  -0.150982  0  3.921967  0  0  -0.058283  -0.139391  0  3.8894  0
C  C59  1  0.15688201  0.61005119  0.04921994  1  0  0.162884  0  3.593395  0  0  0.119223  0  3.850226  0  0  0.128605  0  3.864312  0  0  0.082491  0.113202  0  3.840624  0
C  C60  1  0.84311824  0.38995805  0.95078285  1  0  0.162821  0  3.593359  0  0  0.119226  0  3.850225  0  0  0.128609  0  3.864305  0  0  0.082493  0.113207  0  3.840623  0
C  C61  1  0.27589821  0.47993871  0.93636076  1  0  0.13671  0  3.619558  0  0  0.094662  0  3.875726  0  0  0.103048  0  3.890078  0  0  0.063231  0.089293  0  3.866111  0
C  C62  1  0.72410598  0.52007143  0.06364015  1  0  0.136771  0  3.619738  0  0  0.094794  0  3.875913  0  0  0.103184  0  3.890265  0  0  0.063232  0.089428  0  3.866293  0
C  C63  1  0.33490555  0.39142489  0.01182680  1  0  -0.155263  0  3.675636  0  0  -0.173865  0  3.92946  0  0  -0.182839  0  3.949743  0  0  -0.071207  -0.168123  0  3.915945  0
C  C64  1  0.66510383  0.60858619  0.98817430  1  0  -0.15525  0  3.675651  0  0  -0.17379  0  3.929452  0  0  -0.182762  0  3.949738  0  0  -0.071042  -0.168044  0  3.915926  0
N  N65  1  0.47054771  0.14150593  0.35028419  1  0  -0.34079  0  3.241391  0  0  -0.26201  0  3.50431  0  0  -0.282917  0  3.524066  0  0  -0.32342  -0.247642  0  3.490603  0
N  N66  1  0.52943348  0.85849288  0.64971592  1  0  -0.340712  0  3.241273  0  0  -0.261928  0  3.504228  0  0  -0.282832  0  3.523983  0  0  -0.323393  -0.247559  0  3.490516  0
N  N67  1  0.18840394  0.58605676  0.95609575  1  0  -0.220821  0  3.443709  0  0  -0.144689  0  3.667642  0  0  -0.161242  0  3.684085  0  0  -0.32938  -0.133716  0  3.656443  0
N  N68  1  0.81159511  0.41395059  0.04390672  1  0  -0.220673  0  3.443676  0  0  -0.144729  0  3.667804  0  0  -0.161279  0  3.684252  0  0  -0.329359  -0.133757  0  3.656603  0
O  O69  1  0.95075268  0.52532891  0.60236884  1  0  -0.678748  0  2.06369  0  0  -0.665789  0  2.345286  0  0  -0.700067  0  2.340068  0  0  -0.355982  -0.640767  0  2.34729  0
O  O70  1  0.04924863  0.47465871  0.39763747  1  0  -0.678825  0  2.063567  0  0  -0.665741  0  2.345235  0  0  -0.700021  0  2.340031  0  0  -0.355958  -0.640718  0  2.347245  0
O  O71  1  0.88715861  0.69812699  0.49403999  1  0  -0.674358  0  2.036613  0  0  -0.635902  0  2.286776  0  0  -0.667454  0  2.277987  0  0  -0.329057  -0.613416  0  2.292089  0
O  O72  1  0.11283367  0.30185689  0.50596759  1  0  -0.674497  0  2.03662  0  0  -0.63596  0  2.286907  0  0  -0.667517  0  2.278123  0  0  -0.329163  -0.613484  0  2.292223  0
O  O73  1  0.14704462  0.55511537  0.74022521  1  0  -0.707592  0  2.101607  0  0  -0.687975  0  2.381957  0  0  -0.72328  0  2.378201  0  0  -0.386306  -0.662443  0  2.383166  0
O  O74  1  0.85295937  0.44487401  0.25977554  1  0  -0.707502  0  2.101749  0  0  -0.6879  0  2.382223  0  0  -0.72315  0  2.378362  0  0  -0.38625  -0.66235  0  2.383401  0
O  O75  1  0.06850784  0.73128109  0.79890481  1  0  -0.583108  0  1.879421  0  0  -0.5442  0  2.083979  0  0  -0.567447  0  2.075308  0  0  -0.316222  -0.52778  0  2.089343  0
O  O76  1  0.93149448  0.26871670  0.20109249  1  0  -0.583098  0  1.879375  0  0  -0.544136  0  2.08395  0  0  -0.567392  0  2.075296  0  0  -0.316207  -0.527718  0  2.089314  0
O  O77  1  0.41526131  0.36702812  0.74882585  1  0  -0.720251  0  2.075579  0  0  -0.707995  0  2.357874  0  0  -0.745793  0  2.351917  0  0  -0.413789  -0.680207  0  2.36007  0
O  O78  1  0.58474967  0.63298273  0.25116504  1  0  -0.720315  0  2.075499  0  0  -0.708058  0  2.357757  0  0  -0.745858  0  2.351819  0  0  -0.41378  -0.68027  0  2.359967  0
O  O79  1  0.58441591  0.24557382  0.85264871  1  0  -0.577333  0  1.836321  0  0  -0.5502  0  2.03781  0  0  -0.572405  0  2.029923  0  0  -0.319289  -0.533936  0  2.042344  0
O  O80  1  0.41561462  0.75446527  0.14734042  1  0  -0.577451  0  1.836053  0  0  -0.550333  0  2.037487  0  0  -0.572536  0  2.029595  0  0  -0.319422  -0.534075  0  2.042031  0
O  O81  1  0.42091568  0.24367480  0.59686950  1  0  -0.690105  0  2.055502  0  0  -0.671163  0  2.329811  0  0  -0.706839  0  2.32292  0  0  -0.374215  -0.645123  0  2.333051  0
O  O82  1  0.57910173  0.75630892  0.40313121  1  0  -0.690073  0  2.055221  0  0  -0.671104  0  2.329572  0  0  -0.706773  0  2.322673  0  0  -0.374182  -0.64508  0  2.332879  0
O  O83  1  0.66826609  0.13466305  0.55808883  1  0  -0.651263  0  1.989978  0  0  -0.586588  0  2.237041  0  0  -0.616631  0  2.224286  0  0  -0.319757  -0.565198  0  2.244951  0
O  O84  1  0.33175200  0.86533291  0.44191125  1  0  -0.651187  0  1.989691  0  0  -0.586503  0  2.2368  0  0  -0.616542  0  2.22404  0  0  -0.319749  -0.565139  0  2.244769  0
O  O85  1  0.32944183  0.52055962  0.55115424  1  0  -0.710894  0  1.564419  0  0  -0.716249  0  1.857728  0  0  -0.73813  0  1.845033  0  0  -0.757225  -0.703336  0  1.867268  0
O  O86  1  0.67054514  0.47943333  0.44883774  1  0  -0.710711  0  1.5645  0  0  -0.716068  0  1.857838  0  0  -0.737935  0  1.845144  0  0  -0.757227  -0.703153  0  1.867391  0
O  O87  1  0.07071513  0.28829510  0.72777205  1  0  -0.718774  0  1.485357  0  0  -0.723526  0  1.746946  0  0  -0.742322  0  1.731769  0  0  -0.768936  -0.712984  0  1.758417  0
O  O88  1  0.92931669  0.71168592  0.27223458  1  0  -0.718771  0  1.485403  0  0  -0.723527  0  1.747009  0  0  -0.742319  0  1.731849  0  0  -0.768799  -0.712977  0  1.758487  0
O  O89  1  0.81304803  0.95306867  0.45569815  1  0  -0.809623  0  1.819094  0  0  -0.755237  0  2.000697  0  0  -0.775383  0  1.970802  0  0  -0.580786  -0.740849  0  2.021823  0
O  O90  1  0.18694387  0.04692276  0.54430893  1  0  -0.809596  0  1.818974  0  0  -0.755237  0  2.000582  0  0  -0.775379  0  1.970694  0  0  -0.580884  -0.740853  0  2.021702  0
