# generated using pymatgen
data_Co3H12C15N6O7
_symmetry_space_group_name_H-M   'P 1'
_cell_length_a   10.97388839
_cell_length_b   10.62774121
_cell_length_c   10.96129612
_cell_angle_alpha   85.31352529
_cell_angle_beta   83.88265660
_cell_angle_gamma   83.39603136
_symmetry_Int_Tables_number   1
_chemical_formula_structural   Co3H12C15N6O7
_chemical_formula_sum   'Co6 H24 C30 N12 O14'
_cell_volume   1259.55154333
_cell_formula_units_Z   2
loop_
 _symmetry_equiv_pos_site_id
 _symmetry_equiv_pos_as_xyz
  1  'x, y, z'
loop_
 _atom_site_type_symbol
 _atom_site_label
 _atom_site_symmetry_multiplicity
 _atom_site_fract_x
 _atom_site_fract_y
 _atom_site_fract_z
 _atom_site_occupancy
 _atom_site_pbe_bader_charge
 _atom_site_pbe_bader_spin_density
 _atom_site_pbe_cm5_charge
 _atom_site_pbe_ddec_charge
 _atom_site_pbe_ddec_spin_density
 _atom_site_pbe_ddec_sum_bond_order
 _atom_site_pbe_magmom
Co  Co0  1  0.90939035  0.25146865  0.08051661  1  1.339084  2.668077  0.695652  0.918766  2.909601  2.651949  2.652
Co  Co1  1  0.09059172  0.74854246  0.91949649  1  1.339122  2.668004  0.695577  0.918522  2.909481  2.651967  2.652
Co  Co2  1  0.84166905  0.00897405  0.97655696  1  1.210314  2.55317  0.6751  0.833554  2.723662  2.569877  2.503
Co  Co3  1  0.15830804  0.99101901  0.02343728  1  1.210657  2.553126  0.675084  0.833513  2.723611  2.569675  2.503
Co  Co4  1  0.99508420  0.49902742  0.84482451  1  1.226617  2.568715  0.666536  0.846769  2.749477  2.54466  2.531
Co  Co5  1  0.00487381  0.50098171  0.15517365  1  1.226638  2.568734  0.666451  0.846725  2.749622  2.544881  2.531
H  H6  1  0.83290854  0.99587489  0.65103106  1  0.10213  0.000665  0.110858  0.123623  0.000225  0.987273  0.0
H  H7  1  0.16706232  0.00412098  0.34898384  1  0.102443  0.000665  0.110892  0.123719  0.000225  0.987267  0.0
H  H8  1  0.84849197  0.09358527  0.43408036  1  0.095405  0.000337  0.103983  0.111681  9e-05  1.006616  0.0
H  H9  1  0.15144375  0.90642852  0.56592854  1  0.09524  0.000337  0.103993  0.111751  9e-05  1.006677  0.0
H  H10  1  0.94225232  0.44507811  0.55209004  1  0.099861  0.000939  0.107195  0.126537  0.000316  1.037537  0.0
H  H11  1  0.05775413  0.55490935  0.44791541  1  0.099882  0.000939  0.107221  0.1266  0.000316  1.037556  0.0
H  H12  1  0.32393939  0.51198459  0.16593600  1  0.089604  0.000617  0.109676  0.124985  0.00014  0.989615  0.0
H  H13  1  0.67605923  0.48804086  0.83402632  1  0.088948  0.000617  0.109701  0.124948  0.00014  0.989744  0.0
H  H14  1  0.54644416  0.42248968  0.13313287  1  0.083049  0.000288  0.10038  0.102299  8.1e-05  1.041215  0.0
H  H15  1  0.45354747  0.57753668  0.86684854  1  0.083206  0.000288  0.100412  0.102325  8.1e-05  1.041168  0.0
H  H16  1  0.44507983  0.06215848  0.04522029  1  0.121503  0.000844  0.110688  0.130979  0.000194  1.041935  0.0
H  H17  1  0.55488259  0.93786396  0.95478990  1  0.159297  0.000831  0.110594  0.130831  0.000194  1.041869  0.0
H  H18  1  0.92104026  0.03255423  0.18410170  1  0.577755  0.005043  0.307349  0.391598  0.003268  0.900839  0.006
H  H19  1  0.07895302  0.96745691  0.81591906  1  0.577421  0.005033  0.307381  0.391546  0.003264  0.900819  0.006
H  H20  1  0.81358370  0.47542562  0.05063026  1  0.608659  0.003972  0.303371  0.384231  0.002746  0.920116  0.005
H  H21  1  0.18637533  0.52457306  0.94936405  1  0.608789  0.003972  0.303439  0.384243  0.002747  0.920057  0.005
H  H22  1  0.16795279  0.34884591  0.71265454  1  0.606793  -0.000335  0.314818  0.341798  -0.000395  0.919211  0.0
H  H23  1  0.83209160  0.65118063  0.28734278  1  0.608925  -0.000334  0.314938  0.341879  -0.000397  0.918736  0.0
H  H24  1  0.38817812  0.32901055  0.71510096  1  0.048387  0.001609  0.093612  0.088226  0.000637  0.983594  0.001
H  H25  1  0.61191122  0.67096965  0.28484223  1  0.048413  0.001614  0.093604  0.088174  0.000639  0.983459  0.001
H  H26  1  0.31069380  0.48527357  0.73693471  1  0.07485  0.000358  0.093625  0.090445  -4.2e-05  1.004261  0.0
H  H27  1  0.68937754  0.51469136  0.26303306  1  0.074967  0.00036  0.093551  0.090501  -4.1e-05  1.004213  0.0
H  H28  1  0.35337650  0.38138436  0.86638746  1  0.055341  -1.1e-05  0.095755  0.094986  -0.000144  1.02063  0.0
H  H29  1  0.64672465  0.61857402  0.13356782  1  0.055696  -1.1e-05  0.095592  0.09478  -0.000144  1.020788  0.0
C  C30  1  0.91187887  0.29374937  0.69408948  1  0.414677  0.009305  0.089998  0.120493  0.005089  4.054035  0.009
C  C31  1  0.08814322  0.70623814  0.30591666  1  0.415426  0.009294  0.089986  0.120489  0.005083  4.054337  0.009
C  C32  1  0.87931775  0.16829930  0.72189688  1  0.388745  0.00664  0.097414  0.135369  0.003942  4.062793  0.007
C  C33  1  0.12068684  0.83169004  0.27811596  1  0.388073  0.006644  0.09753  0.135419  0.003944  4.062522  0.007
C  C34  1  0.85571983  0.09283287  0.62933923  1  -0.037411  0.000575  -0.089483  -0.15756  -0.000166  4.003245  0.001
C  C35  1  0.14426441  0.90716779  0.37067991  1  -0.03794  0.00057  -0.089642  -0.157669  -0.000171  4.003071  0.001
C  C36  1  0.86461662  0.14714605  0.51022274  1  0.016384  -0.002231  -0.089365  -0.097768  -0.00299  4.00058  -0.001
C  C37  1  0.13535949  0.85285173  0.48978949  1  0.017162  -0.002227  -0.089378  -0.097927  -0.002986  4.000963  -0.001
C  C38  1  0.89523920  0.27363630  0.48157676  1  -0.047536  0.008034  -0.025073  -0.04311  0.0038  3.983603  0.007
C  C39  1  0.10475396  0.72635775  0.51843993  1  -0.048182  0.008025  -0.025022  -0.042908  0.003794  3.983847  0.007
C  C40  1  0.91879274  0.34851897  0.57320388  1  -0.018244  -0.003349  -0.084425  -0.166133  -0.004772  3.936853  -0.002
C  C41  1  0.08122663  0.65146948  0.42680802  1  -0.01838  -0.003344  -0.084544  -0.166403  -0.004766  3.937302  -0.002
C  C42  1  0.90489819  0.32354068  0.34940529  1  1.53514  -0.001905  0.214065  0.590493  -0.003474  4.161592  -0.001
C  C43  1  0.09511160  0.67645248  0.65061113  1  1.535838  -0.001899  0.214261  0.590576  -0.003471  4.161363  -0.001
C  C44  1  0.29574514  0.20867501  0.08790477  1  0.372058  0.011978  0.095637  0.134803  0.006673  4.039067  0.011
C  C45  1  0.70423399  0.79134369  0.91209624  1  0.371583  0.011994  0.095426  0.134686  0.006681  4.038676  0.011
C  C46  1  0.26181363  0.33426741  0.12355995  1  0.402803  0.00625  0.095998  0.126801  0.003721  4.066469  0.007
C  C47  1  0.73817409  0.66575228  0.87642069  1  0.402751  0.006251  0.096247  0.126916  0.003719  4.066786  0.007
C  C48  1  0.35070471  0.41467637  0.14109394  1  0.031588  0.001995  -0.09338  -0.1651  0.000739  3.999634  0.001
C  C49  1  0.64928515  0.58533288  0.85889092  1  0.0324  0.001998  -0.093353  -0.16499  0.00074  4.00012  0.001
C  C50  1  0.47284522  0.36493300  0.12267300  1  -0.102776  -0.002349  -0.089534  -0.099344  -0.003159  3.996223  -0.001
C  C51  1  0.52715489  0.63507534  0.87731425  1  -0.103115  -0.00235  -0.089578  -0.099299  -0.00316  3.996241  -0.001
C  C52  1  0.50770582  0.23826474  0.08882532  1  -0.000311  0.010751  -0.022469  -0.041086  0.005427  3.977837  0.009
C  C53  1  0.49227620  0.76173687  0.91118218  1  -0.001151  0.010751  -0.022499  -0.041097  0.005427  3.977959  0.009
C  C54  1  0.41957670  0.15860309  0.07163843  1  0.018038  -0.004269  -0.077448  -0.155044  -0.005852  3.913886  -0.002
C  C55  1  0.58039945  0.84140990  0.92836617  1  -0.018939  -0.004258  -0.077317  -0.154981  -0.005854  3.913822  -0.002
C  C56  1  0.64224424  0.19253335  0.06962888  1  1.556492  -0.002213  0.215641  0.59122  -0.003648  4.159589  -0.001
C  C57  1  0.35774000  0.80746921  0.93039832  1  1.556577  -0.002215  0.215615  0.591148  -0.003651  4.159883  -0.001
C  C58  1  0.31987065  0.38581840  0.77508186  1  0.337096  0.000753  -0.151864  -0.121303  0.000248  3.951997  0.0
C  C59  1  0.68023021  0.61414284  0.22487414  1  0.336012  0.000757  -0.151461  -0.120893  0.000249  3.952093  0.0
N  N60  1  0.88001169  0.14440657  0.84588003  1  -0.713925  0.065995  -0.245785  -0.2345  0.033876  3.577375  0.05
N  N61  1  0.11997117  0.85557889  0.15412958  1  -0.714627  0.065974  -0.245756  -0.234458  0.033862  3.577007  0.05
N  N62  1  0.91286727  0.24672431  0.89095529  1  -0.158105  0.045981  -0.111464  -0.026812  0.024302  3.553379  0.043
N  N63  1  0.08712900  0.75326311  0.10904693  1  -0.157042  0.045966  -0.111521  -0.026847  0.024301  3.553564  0.043
N  N64  1  0.93201403  0.33923447  0.80352439  1  -0.693202  0.049982  -0.242584  -0.246579  0.026774  3.536693  0.033
N  N65  1  0.06799876  0.66075301  0.19647749  1  -0.693535  0.049989  -0.242643  -0.246714  0.026782  3.537019  0.033
N  N66  1  0.18811253  0.15887300  0.07342726  1  -0.694701  0.05358  -0.245227  -0.249142  0.027905  3.548312  0.031
N  N67  1  0.81188132  0.84113815  0.92657883  1  -0.694664  0.053591  -0.24523  -0.249016  0.027911  3.548021  0.031
N  N68  1  0.09597627  0.24946479  0.09850543  1  -0.171894  0.051295  -0.110001  -0.023682  0.027143  3.558213  0.047
N  N69  1  0.90401157  0.75054349  0.90150624  1  -0.171052  0.051282  -0.110026  -0.023713  0.027133  3.558453  0.047
N  N70  1  0.13636612  0.35426666  0.13017946  1  -0.701174  0.073309  -0.2415  -0.231284  0.038038  3.55681  0.058
N  N71  1  0.86361784  0.64575017  0.86982290  1  -0.701522  0.073339  -0.241649  -0.231437  0.038053  3.557752  0.058
O  O72  1  0.94043277  0.05845306  0.09761454  1  -1.149758  0.236434  -0.55274  -0.83276  0.124937  2.344357  0.193
O  O73  1  0.05950256  0.94158352  0.90240169  1  -1.149924  0.23639  -0.552832  -0.832779  0.124891  2.344461  0.192
O  O74  1  0.90038802  0.44263169  0.04351753  1  -1.166802  0.239874  -0.554302  -0.8318  0.127852  2.380526  0.199
O  O75  1  0.09957977  0.55739648  0.95647415  1  -1.166829  0.239895  -0.554326  -0.831661  0.127871  2.380311  0.199
O  O76  1  0.93451165  0.43733344  0.32419567  1  -1.170237  0.08444  -0.324579  -0.581016  0.043375  2.375839  0.07
O  O77  1  0.06550821  0.56264837  0.67580757  1  -1.170517  0.084439  -0.32471  -0.5811  0.043374  2.37557  0.07
O  O78  1  0.88355984  0.24930645  0.27120203  1  -1.154203  0.069486  -0.307493  -0.549465  0.036044  2.37303  0.062
O  O79  1  0.11643522  0.75070376  0.72881218  1  -1.154458  0.069505  -0.307452  -0.549323  0.036057  2.372699  0.062
O  O80  1  0.67158891  0.07767236  0.03964975  1  -1.15265  0.089956  -0.319541  -0.554224  0.045627  2.358565  0.073
O  O81  1  0.32839010  0.92232351  0.96039784  1  -1.152439  0.089949  -0.319589  -0.554252  0.045629  2.358769  0.073
O  O82  1  0.71790673  0.27073465  0.08386412  1  -1.16906  0.070712  -0.309619  -0.552456  0.036455  2.370568  0.063
O  O83  1  0.28209216  0.72926323  0.91614056  1  -1.169457  0.070683  -0.309556  -0.552363  0.036439  2.370599  0.063
O  O84  1  0.20328273  0.33459243  0.79110906  1  -1.110188  0.02473  -0.409383  -0.449395  0.012254  2.308857  0.019
O  O85  1  0.79680874  0.66534786  0.20886081  1  -1.11189  0.024803  -0.409505  -0.449556  0.012283  2.309234  0.019
