# generated using pymatgen
data_MgH5C8O3
_symmetry_space_group_name_H-M   'P 1'
_cell_length_a   6.82558972
_cell_length_b   26.01497936
_cell_length_c   26.02412646
_cell_angle_alpha   119.22887515
_cell_angle_beta   94.94240231
_cell_angle_gamma   95.03520383
_symmetry_Int_Tables_number   1
_chemical_formula_structural   MgH5C8O3
_chemical_formula_sum   'Mg6 H30 C48 O18'
_cell_volume   3972.62599692
_cell_formula_units_Z   6
loop_
 _symmetry_equiv_pos_site_id
 _symmetry_equiv_pos_as_xyz
  1  'x, y, z'
loop_
 _atom_site_type_symbol
 _atom_site_label
 _atom_site_symmetry_multiplicity
 _atom_site_fract_x
 _atom_site_fract_y
 _atom_site_fract_z
 _atom_site_occupancy
 _atom_site_pbe_bader_charge
 _atom_site_pbe_bader_spin_density
 _atom_site_pbe_cm5_charge
 _atom_site_pbe_ddec_charge
 _atom_site_pbe_ddec_spin_density
 _atom_site_pbe_ddec_sum_bond_order
 _atom_site_pbe_magmom
Mg  Mg0  1  0.16651517  0.66683257  0.29282174  1  1.682868  0  0.906826  1.409573  0  1.33111  0
Mg  Mg1  1  0.87325067  0.70701763  0.37386178  1  1.681905  0  0.906587  1.408625  0  1.332966  0
Mg  Mg2  1  0.49945803  0.62596746  0.33304289  1  1.682739  0  0.906743  1.409563  0  1.331127  0
Mg  Mg3  1  0.83349534  0.33316357  0.70717593  1  1.682888  0  0.906879  1.409574  0  1.331083  0
Mg  Mg4  1  0.12676399  0.29298386  0.62613629  1  1.681915  0  0.906597  1.408593  0  1.333012  0
Mg  Mg5  1  0.50055455  0.37403580  0.66696061  1  1.682741  0  0.90676  1.409567  0  1.331094  0
H  H6  1  0.66397846  0.87408808  0.43918563  1  0.067788  0  0.100982  0.105936  0  1.021471  0
H  H7  1  0.22493650  0.56073450  0.43485476  1  0.088642  0  0.101114  0.106078  0  1.021408  0
H  H8  1  0.79131915  0.56501015  0.12583525  1  0.074822  0  0.101185  0.10592  0  1.021008  0
H  H9  1  0.50351783  0.00103826  0.44167104  1  0.035452  0  0.092923  0.092696  0  0.972131  0
H  H10  1  0.05941821  0.55832140  0.55938233  1  -0.005988  0  0.093032  0.09293  0  0.972471  0
H  H11  1  0.50347287  0.44067238  0.99899128  1  0.034017  0  0.0929  0.093038  0  0.971695  0
H  H12  1  0.68730926  0.97685834  0.47318567  1  -0.000808  0  0.090713  0.085752  0  0.99341  0
H  H13  1  0.21417830  0.52720701  0.50427414  1  0.004557  0  0.090728  0.085618  0  0.993919  0
H  H14  1  0.71112857  0.49643234  0.02273700  1  0.015269  0  0.090622  0.085872  0  0.993423  0
H  H15  1  0.49645747  0.99896100  0.55832889  1  0.035429  0  0.093008  0.09282  0  0.972114  0
H  H16  1  0.94057547  0.44167341  0.44061239  1  -0.006082  0  0.093037  0.092899  0  0.972376  0
H  H17  1  0.49652013  0.55932109  0.00100584  1  0.034211  0  0.092926  0.093035  0  0.97171  0
H  H18  1  0.31266782  0.02314448  0.52681527  1  -0.001019  0  0.090679  0.085773  0  0.993405  0
H  H19  1  0.78581311  0.47278913  0.49572041  1  0.004493  0  0.090688  0.085606  0  0.993835  0
H  H20  1  0.28885791  0.50356870  0.97726444  1  0.015201  0  0.090646  0.08589  0  0.993553  0
H  H21  1  0.33601797  0.12591518  0.56081482  1  0.067731  0  0.101011  0.105988  0  1.021479  0
H  H22  1  0.77506625  0.43926966  0.56514665  1  0.088606  0  0.10108  0.106042  0  1.02139  0
H  H23  1  0.20867033  0.43498510  0.87415997  1  0.075136  0  0.101158  0.105898  0  1.021266  0
H  H24  1  0.06360566  0.15674103  0.62249664  1  0.062692  0  0.104271  0.120717  0  1.00785  0
H  H25  1  0.44140187  0.37758500  0.53430742  1  0.092842  0  0.104451  0.120845  0  1.007579  0
H  H26  1  0.90578072  0.46588377  0.84321722  1  0.090372  0  0.104356  0.120306  0  1.00686  0
H  H27  1  0.87460402  0.05460055  0.57074296  1  0.04809  0  0.100252  0.097105  0  0.996099  0
H  H28  1  0.30401200  0.42925865  0.48384299  1  0.047266  0  0.10021  0.097111  0  0.994811  0
H  H29  1  0.81853408  0.51611802  0.94532108  1  0.056521  0  0.100364  0.097356  0  0.994397  0
H  H30  1  0.12537413  0.94539559  0.42925781  1  0.048411  0  0.100239  0.097053  0  0.99596  0
H  H31  1  0.69599089  0.57074284  0.51615597  1  0.047343  0  0.100203  0.097056  0  0.99477  0
H  H32  1  0.18144178  0.48387946  0.05468337  1  0.056287  0  0.100325  0.097305  0  0.994491  0
H  H33  1  0.93638838  0.84325155  0.37749661  1  0.061832  0  0.104285  0.120665  0  1.007738  0
H  H34  1  0.55860698  0.62241961  0.46569588  1  0.092965  0  0.104422  0.120802  0  1.007547  0
H  H35  1  0.09420779  0.53411549  0.15678800  1  0.090266  0  0.104392  0.120458  0  1.006839  0
C  C36  1  0.19048127  0.80017634  0.37728761  1  0.602021  0  0.091672  0.363554  0  4.080421  0
C  C37  1  0.81301909  0.62253203  0.42274724  1  0.559218  0  0.092281  0.363924  0  4.081044  0
C  C38  1  0.39119457  0.57705646  0.19978190  1  0.611927  0  0.092123  0.362897  0  4.082967  0
C  C39  1  0.40044131  0.80986361  0.39573629  1  -0.04548  0  -0.043259  -0.203492  0  3.974408  0
C  C40  1  0.00461127  0.60407429  0.41398095  1  -0.038418  0  -0.043823  -0.204173  0  3.974711  0
C  C41  1  0.59155416  0.58585500  0.19005245  1  -0.056877  0  -0.043849  -0.203685  0  3.974349  0
C  C42  1  0.50414513  0.86849620  0.42569247  1  -0.027069  0  -0.090057  -0.134554  0  3.985065  0
C  C43  1  0.07843754  0.57418271  0.44270602  1  -0.054595  0  -0.089966  -0.133983  0  3.984275  0
C  C44  1  0.63698407  0.55713779  0.13144159  1  -0.064227  0  -0.089669  -0.133977  0  3.98414  0
C  C45  1  0.41129672  0.91780410  0.43785561  1  0.041102  0  -0.02644  0.084534  0  4.013677  0
C  C46  1  0.97345402  0.56214091  0.47994829  1  0.027264  0  -0.026558  0.084038  0  4.014863  0
C  C47  1  0.49499226  0.52000952  0.08218856  1  0.079405  0  -0.026116  0.085559  0  4.012712  0
C  C48  1  0.52736549  0.97975951  0.46892754  1  -0.010789  0  -0.157265  -0.183668  0  3.975858  0
C  C49  1  0.05797943  0.53115488  0.51095166  1  0.04451  0  -0.157835  -0.184053  0  3.97779  0
C  C50  1  0.54843371  0.48920877  0.02016688  1  -0.00888  0  -0.157402  -0.184799  0  3.975429  0
C  C51  1  0.47260539  0.02023975  0.53107536  1  0.006761  0  -0.157308  -0.183734  0  3.975819  0
C  C52  1  0.94201696  0.46883948  0.48904328  1  0.062032  0  -0.157742  -0.183924  0  3.977545  0
C  C53  1  0.45154613  0.51078782  0.97983338  1  0.013455  0  -0.157467  -0.184702  0  3.975668  0
C  C54  1  0.58868953  0.08219650  0.56214714  1  0.041344  0  -0.026385  0.084529  0  4.013935  0
C  C55  1  0.02654606  0.43785790  0.52005045  1  0.027329  0  -0.026505  0.084112  0  4.014862  0
C  C56  1  0.50498665  0.47999108  0.91781248  1  0.0796  0  -0.026075  0.085636  0  4.012672  0
C  C57  1  0.49585312  0.13150484  0.57430616  1  -0.026707  0  -0.090127  -0.134716  0  3.985666  0
C  C58  1  0.92156623  0.42582056  0.55729536  1  -0.054412  0  -0.089949  -0.133972  0  3.984137  0
C  C59  1  0.36299920  0.44285390  0.86855751  1  -0.065263  0  -0.089629  -0.13406  0  3.98418  0
C  C60  1  0.59955855  0.19013476  0.60426030  1  -0.045976  0  -0.043271  -0.20347  0  3.974531  0
C  C61  1  0.99540920  0.39593298  0.58602546  1  -0.038609  0  -0.043933  -0.204355  0  3.974794  0
C  C62  1  0.40844436  0.41414069  0.80994549  1  -0.057275  0  -0.043834  -0.203664  0  3.974441  0
C  C63  1  0.80952184  0.19982559  0.62271348  1  0.602451  0  0.091729  0.363604  0  4.080207  0
C  C64  1  0.18698490  0.37747168  0.57725744  1  0.558891  0  0.092331  0.364074  0  4.080928  0
C  C65  1  0.60880973  0.42293611  0.80021889  1  0.612183  0  0.092098  0.362782  0  4.083063  0
C  C66  1  0.90334924  0.14925866  0.60884865  1  -0.075255  0  -0.108953  -0.216459  0  3.990212  0
C  C67  1  0.29472769  0.39127981  0.54049596  1  -0.042476  0  -0.109103  -0.21624  0  3.993272  0
C  C68  1  0.75292901  0.45966900  0.85073087  1  -0.071929  0  -0.109257  -0.215596  0  3.991179  0
C  C69  1  0.79600943  0.09230398  0.57970769  1  -0.032903  0  -0.086669  -0.102343  0  4.003235  0
C  C70  1  0.21646068  0.42033542  0.51264019  1  -0.056473  0  -0.086109  -0.10214  0  4.005935  0
C  C71  1  0.70227690  0.48745415  0.90763778  1  -0.112013  0  -0.086988  -0.103309  0  4.002889  0
C  C72  1  0.48413813  0.23892757  0.61515813  1  1.511782  0  0.237553  0.677604  0  4.121534  0
C  C73  1  0.86905213  0.38505644  0.62394489  1  1.500833  0  0.236814  0.676322  0  4.120839  0
C  C74  1  0.24450326  0.37619364  0.76117984  1  1.514461  0  0.236644  0.676021  0  4.122196  0
C  C75  1  0.20397687  0.90769082  0.42029108  1  -0.03312  0  -0.086567  -0.102255  0  4.00309  0
C  C76  1  0.78354448  0.57966473  0.48735893  1  -0.056672  0  -0.086059  -0.102034  0  4.005823  0
C  C77  1  0.29770556  0.51253887  0.09236311  1  -0.111577  0  -0.086915  -0.103158  0  4.002859  0
C  C78  1  0.09666502  0.85073614  0.39114845  1  -0.074104  0  -0.108946  -0.216335  0  3.990595  0
C  C79  1  0.70528433  0.60872524  0.45950687  1  -0.042985  0  -0.109144  -0.216232  0  3.993273  0
C  C80  1  0.24706257  0.54032758  0.14927427  1  -0.071967  0  -0.109291  -0.215845  0  3.991166  0
C  C81  1  0.51586860  0.76107570  0.38483909  1  1.511635  0  0.237489  0.677492  0  4.121434  0
C  C82  1  0.13097017  0.61494861  0.37606201  1  1.500909  0  0.236862  0.676394  0  4.120695  0
C  C83  1  0.75550443  0.62379983  0.23882030  1  1.513477  0  0.236611  0.675907  0  4.122425  0
O  O84  1  0.69956938  0.77168845  0.40594994  1  -1.248684  0  -0.357217  -0.645224  0  2.149065  0
O  O85  1  0.29369457  0.59383890  0.36558091  1  -1.246436  0  -0.357872  -0.645529  0  2.147271  0
O  O86  1  0.92869642  0.63434556  0.22819633  1  -1.245823  0  -0.357391  -0.645074  0  2.1479  0
O  O87  1  0.42630285  0.70675151  0.35230476  1  -1.306499  0  -0.403062  -0.768823  0  2.413827  0
O  O88  1  0.07382598  0.64744765  0.35423776  1  -1.295997  0  -0.401986  -0.767274  0  2.41425  0
O  O89  1  0.71986312  0.64561046  0.29311400  1  -1.300808  0  -0.402138  -0.767586  0  2.415842  0
O  O90  1  0.07876391  0.74610367  0.34748088  1  -1.313343  0  -0.452103  -0.782623  0  2.31379  0
O  O91  1  0.73100027  0.65231277  0.39846045  1  -1.314152  0  -0.452117  -0.782676  0  2.314088  0
O  O92  1  0.33310256  0.60138016  0.25380937  1  -1.310018  0  -0.452223  -0.782256  0  2.315135  0
O  O93  1  0.30044742  0.22831437  0.59404845  1  -1.248566  0  -0.357247  -0.645289  0  2.149318  0
O  O94  1  0.70634008  0.40617327  0.63443398  1  -1.246305  0  -0.357732  -0.645387  0  2.147196  0
O  O95  1  0.07130630  0.36564969  0.77180034  1  -1.245997  0  -0.357469  -0.645116  0  2.14788  0
O  O96  1  0.57371219  0.29324775  0.64768762  1  -1.306768  0  -0.403101  -0.768797  0  2.413811  0
O  O97  1  0.92618705  0.35255651  0.64576734  1  -1.296073  0  -0.401978  -0.767222  0  2.414296  0
O  O98  1  0.28014989  0.35438479  0.70688367  1  -1.30092  0  -0.402189  -0.767678  0  2.41563  0
O  O99  1  0.92124934  0.25389203  0.65251164  1  -1.313463  0  -0.452105  -0.782596  0  2.314072  0
O  O100  1  0.26901079  0.34769629  0.60154699  1  -1.314115  0  -0.452211  -0.782788  0  2.314173  0
O  O101  1  0.66691337  0.39861509  0.74619144  1  -1.309974  0  -0.452192  -0.782184  0  2.315084  0
