# generated using pymatgen
data_CuH28C20(N5O4)2
_symmetry_space_group_name_H-M   'P 1'
_cell_length_a   8.62806938
_cell_length_b   8.81108349
_cell_length_c   10.32172097
_cell_angle_alpha   83.31341183
_cell_angle_beta   65.88857154
_cell_angle_gamma   60.62891098
_symmetry_Int_Tables_number   1
_chemical_formula_structural   CuH28C20(N5O4)2
_chemical_formula_sum   'Cu1 H28 C20 N10 O8'
_cell_volume   620.67695381
_cell_formula_units_Z   1
loop_
 _symmetry_equiv_pos_site_id
 _symmetry_equiv_pos_as_xyz
  1  'x, y, z'
loop_
 _atom_site_type_symbol
 _atom_site_label
 _atom_site_symmetry_multiplicity
 _atom_site_fract_x
 _atom_site_fract_y
 _atom_site_fract_z
 _atom_site_occupancy
 _atom_site_hle17_ddec_charge
 _atom_site_hle17_ddec_spin_density
 _atom_site_hle17_ddec_sum_bond_order
 _atom_site_hle17_magmom
 _atom_site_hse06_10hf_ddec_charge
 _atom_site_hse06_10hf_ddec_spin_density
 _atom_site_hse06_10hf_ddec_sum_bond_order
 _atom_site_hse06_10hf_magmom
 _atom_site_hse06_ddec_charge
 _atom_site_hse06_ddec_spin_density
 _atom_site_hse06_ddec_sum_bond_order
 _atom_site_hse06_magmom
 _atom_site_pbe_cm5_charge
 _atom_site_pbe_ddec_charge
 _atom_site_pbe_ddec_spin_density
 _atom_site_pbe_ddec_sum_bond_order
 _atom_site_pbe_magmom
Cu  Cu0  1  0.99999902  0.49999924  0.49999977  1  0.796228  -0.699994  1.892001  -0.529  0.754996  -0.771529  2.27098  -0.623  0.827866  -0.827927  2.220378  -0.694  0.78588  0.710351  -0.733883  2.30682  -0.578
H  H1  1  0.83454969  0.92012574  0.56312802  1  0.11483  1.7e-05  0.963475  0.0  0.118763  -4.2e-05  1.035313  0.0  0.120883  2e-06  1.031841  0.0  0.137354  0.116909  -8.3e-05  1.038267  0.0
H  H2  1  0.16545235  0.07986852  0.43687295  1  0.114821  1.7e-05  0.963464  0.0  0.118765  -4.2e-05  1.035293  0.0  0.120887  2e-06  1.031819  0.0  0.137343  0.116912  -8.3e-05  1.038249  0.0
H  H3  1  0.54725589  0.62132191  0.65066867  1  0.117586  -0.000153  0.944156  0.0  0.125906  -0.000326  1.002339  -0.001  0.127855  -0.000223  1.001526  0.0  0.12079  0.124389  -0.000416  1.003029  -0.001
H  H4  1  0.45274133  0.37867891  0.34933134  1  0.117583  -0.00015  0.944153  0.0  0.125911  -0.000326  1.002326  -0.001  0.127863  -0.000223  1.001512  0.0  0.120798  0.124394  -0.000416  1.003017  -0.001
H  H5  1  0.27109804  0.97436270  0.72087637  1  0.119552  -0.000534  0.961625  -0.001  0.12419  -0.000434  1.031948  -0.001  0.127045  -0.000316  1.030111  0.0  0.120957  0.122028  -0.000537  1.033489  -0.001
H  H6  1  0.72889919  0.02563812  0.27912558  1  0.119556  -0.000534  0.961661  -0.001  0.124187  -0.000434  1.031997  -0.001  0.127043  -0.000315  1.030157  0.0  0.12096  0.122023  -0.000537  1.033537  -0.001
H  H7  1  0.31174902  0.25669465  0.65936348  1  0.095338  -4.5e-05  0.950194  0.0  0.108554  -4.5e-05  1.014199  0.0  0.108687  -3e-06  1.01552  0.0  0.114314  0.108323  -8.8e-05  1.013323  0.0
H  H8  1  0.68825344  0.74330353  0.34063500  1  0.095311  -4.8e-05  0.950204  0.0  0.108524  -4.5e-05  1.01421  0.0  0.108656  -2e-06  1.015529  0.0  0.114284  0.10829  -8.8e-05  1.013333  0.0
H  H9  1  0.55031499  0.22623494  0.59819586  1  0.101267  6e-05  0.923626  0.0  0.112737  1e-05  0.987406  0.0  0.113277  6e-06  0.987587  0.0  0.118192  0.11216  1.3e-05  0.987615  0.0
H  H10  1  0.44968818  0.77376194  0.40180348  1  0.101232  5.8e-05  0.923671  0.0  0.112722  1e-05  0.987424  0.0  0.113262  6e-06  0.987602  0.0  0.118195  0.112146  1.3e-05  0.987633  0.0
H  H11  1  0.34124705  0.38522520  0.84105526  1  0.055104  -5.5e-05  0.942655  0.0  0.068768  -3.8e-05  1.010014  0.0  0.069233  -2.6e-05  1.009221  0.0  0.099812  0.068279  -5e-05  1.010697  0.0
H  H12  1  0.65875201  0.61477691  0.15894205  1  0.055084  -5.5e-05  0.942743  0.0  0.068726  -3.8e-05  1.010099  0.0  0.069191  -2.6e-05  1.009307  0.0  0.099797  0.068237  -5e-05  1.010781  0.0
H  H13  1  0.30558340  0.20288044  0.90812148  1  0.042942  -1.8e-05  0.927055  0.0  0.057546  -7e-06  0.993328  0.0  0.05796  -9e-06  0.993312  0.0  0.093402  0.056791  -5e-06  0.993943  0.0
H  H14  1  0.69441822  0.79712167  0.09187979  1  0.042966  -1.8e-05  0.92707  0.0  0.057554  -7e-06  0.993323  0.0  0.057969  -9e-06  0.993308  0.0  0.093406  0.056797  -5e-06  0.993939  0.0
H  H15  1  0.52816323  0.11485783  0.05025354  1  0.055537  -2.9e-05  0.933247  0.0  0.06874  -9e-06  0.999056  0.0  0.069386  -3e-06  0.998801  0.0  0.097697  0.068148  -1.7e-05  0.999446  0.0
H  H16  1  0.47183259  0.88514560  0.94974669  1  0.055518  -2.8e-05  0.933282  0.0  0.068727  -1e-05  0.999096  0.0  0.069382  -3e-06  0.998831  0.0  0.097702  0.068135  -1.7e-05  0.999487  0.0
H  H17  1  0.49139917  0.32909708  0.00914780  1  0.048816  -4e-06  0.93332  0.0  0.060893  1.2e-05  1.002362  0.0  0.061361  9e-06  1.002485  0.0  0.095787  0.060569  1.2e-05  1.002133  0.0
H  H18  1  0.50860047  0.67090635  0.99085208  1  0.048795  -3e-06  0.933293  0.0  0.060874  1.2e-05  1.002338  0.0  0.061342  9e-06  1.002463  0.0  0.095788  0.060551  1.2e-05  1.002108  0.0
H  H19  1  0.80409487  0.12795038  0.04761948  1  0.087486  -0.000242  0.940662  0.0  0.10157  -0.000171  1.007363  0.0  0.101826  -0.000118  1.007995  0.0  0.115274  0.101301  -0.00022  1.006979  0.0
H  H20  1  0.19590619  0.87205043  0.95238309  1  0.087514  -0.000243  0.940713  0.0  0.101586  -0.000171  1.00742  0.0  0.101841  -0.000118  1.008052  0.0  0.11528  0.101316  -0.00022  1.007036  0.0
H  H21  1  0.89091359  0.99597650  0.88783053  1  0.096772  0.000139  0.943314  0.0  0.104826  6.2e-05  1.015303  0.0  0.107025  5.8e-05  1.012564  0.0  0.110784  0.10305  6.5e-05  1.017472  0.0
H  H22  1  0.10908491  0.00402430  0.11216712  1  0.096792  0.000136  0.943303  0.0  0.104829  6.2e-05  1.015317  0.0  0.107032  5.9e-05  1.01257  0.0  0.110769  0.103051  6.5e-05  1.017488  0.0
H  H23  1  0.87253381  0.20629965  0.65518742  1  0.11646  -8.5e-05  0.954692  -0.001  0.114186  -0.000134  1.035235  0.0  0.118022  -7.4e-05  1.0289  0.0  0.137092  0.110698  -0.000175  1.040749  -0.001
H  H24  1  0.12746540  0.79369986  0.34481301  1  0.116439  -8.1e-05  0.954716  -0.001  0.114182  -0.000134  1.035216  0.0  0.11801  -7.5e-05  1.028909  0.0  0.137093  0.110694  -0.000175  1.040732  -0.001
H  H25  1  0.98465646  0.55370476  0.80476574  1  0.11035  -0.000166  0.981774  -0.001  0.112276  -0.000314  1.051589  -0.001  0.11478  -0.000209  1.049935  0.0  0.114699  0.110275  -0.000405  1.053143  -0.001
H  H26  1  0.01534855  0.44629342  0.19523380  1  0.110259  -0.000164  0.981861  -0.001  0.112228  -0.000314  1.051631  -0.001  0.11473  -0.000209  1.049981  0.0  0.114672  0.110225  -0.000405  1.053184  -0.001
H  H27  1  0.88561373  0.35676311  0.02446604  1  0.128543  -0.000532  0.997166  -0.001  0.136488  -0.000413  1.061553  -0.001  0.139691  -0.000305  1.05865  0.0  0.120388  0.13368  -0.000497  1.064406  -0.001
H  H28  1  0.11438661  0.64323899  0.97553277  1  0.128486  -0.00053  0.997284  -0.001  0.136452  -0.000412  1.061641  -0.001  0.139653  -0.000305  1.058739  0.0  0.12037  0.133645  -0.000497  1.064493  -0.001
C  C29  1  0.72216040  0.88325011  0.59573364  1  0.167647  0.009083  3.609846  0.005  0.105327  0.002438  3.888238  0.001  0.121522  0.003947  3.900357  0.002  0.141686  0.094969  0.0014  3.880047  0.0
C  C30  1  0.27784022  0.11674677  0.40426561  1  0.167731  0.009088  3.60999  0.005  0.10536  0.002438  3.888381  0.001  0.121555  0.003947  3.900502  0.002  0.141736  0.094999  0.001399  3.880192  0.0
C  C31  1  0.56575955  0.73515030  0.64586028  1  0.004584  0.002161  3.719517  0.001  -0.026042  0.000139  3.992641  0.0  -0.022677  0.001196  4.013417  0.0  -0.00336  -0.027995  -0.000627  3.978304  -0.001
C  C32  1  0.43423500  0.26485314  0.35414039  1  0.004702  0.002146  3.719416  0.001  -0.025958  0.00014  3.992502  0.0  -0.022596  0.001198  4.013282  0.0  -0.003308  -0.027913  -0.000627  3.978165  -0.001
C  C33  1  0.42815692  0.90926004  0.68232873  1  -0.072258  -0.004491  3.668744  -0.005  -0.113358  -0.002278  3.935011  -0.003  -0.112086  -0.001926  3.953483  -0.002  -0.002615  -0.114046  -0.002602  3.922593  -0.003
C  C34  1  0.57184101  0.09073946  0.31767118  1  -0.072217  -0.004488  3.668679  -0.005  -0.113326  -0.002278  3.934972  -0.003  -0.112051  -0.001926  3.953442  -0.002  -0.002626  -0.114012  -0.002603  3.922544  -0.003
C  C35  1  0.44603832  0.18930071  0.67666649  1  -0.042847  -0.000979  3.635551  -0.001  -0.105697  -0.000707  3.890871  -0.001  -0.102586  -0.000519  3.902479  -0.001  -0.056859  -0.107572  -0.000874  3.883056  -0.001
C  C36  1  0.55396413  0.81069747  0.32333199  1  -0.042739  -0.00097  3.635539  -0.001  -0.10558  -0.000707  3.89075  -0.001  -0.102466  -0.00052  3.902356  -0.001  -0.056822  -0.107455  -0.000874  3.88293  -0.001
C  C37  1  0.40756749  0.24151812  0.82609715  1  0.071979  0.000181  3.670721  0.0  0.010878  8.4e-05  3.944588  0.0  0.017131  8.3e-05  3.951426  0.0  -0.070107  0.006705  8.3e-05  3.94014  0.0
C  C38  1  0.59243357  0.75848268  0.17390252  1  0.071931  0.000182  3.670937  0.0  0.010898  8.5e-05  3.944687  0.0  0.01715  8.6e-05  3.951527  0.0  -0.070101  0.006731  8.3e-05  3.940236  0.0
C  C39  1  0.58592408  0.18860855  0.96909751  1  0.069115  0.000269  3.673075  0.0  0.009666  0.000116  3.948737  0.0  0.015773  0.000111  3.955334  0.0  -0.070811  0.00575  0.000119  3.94386  0.0
C  C40  1  0.41407627  0.81139356  0.03090323  1  0.06919  0.000259  3.67305  0.0  0.009741  0.000118  3.948708  0.0  0.015841  0.000111  3.955307  0.0  -0.070818  0.00583  0.000119  3.943832  0.0
C  C41  1  0.79420684  0.12858445  0.94498524  1  -0.043637  -0.001167  3.629259  -0.001  -0.10943  -0.000853  3.889121  -0.001  -0.10623  -0.000646  3.899757  -0.001  -0.057935  -0.111223  -0.001033  3.88165  -0.001
C  C42  1  0.20579280  0.87141897  0.05501465  1  -0.043723  -0.00116  3.629312  -0.001  -0.10951  -0.000853  3.889166  -0.001  -0.106311  -0.000647  3.899805  -0.001  -0.057923  -0.1113  -0.001034  3.881692  -0.001
C  C43  1  0.88986402  0.27563266  0.72388385  1  0.164707  0.009764  3.601801  0.005  0.104973  0.002587  3.877174  0.001  0.121232  0.004168  3.887301  0.002  0.142549  0.094543  0.00151  3.870851  0.0
C  C44  1  0.11014043  0.72436420  0.27611506  1  0.164779  0.009735  3.601886  0.005  0.105023  0.002588  3.877256  0.001  0.121279  0.004169  3.887382  0.002  0.142585  0.09459  0.001509  3.870933  0.0
C  C45  1  0.94335332  0.45491462  0.80731785  1  -0.010501  0.002338  3.755363  0.001  -0.038675  0.000342  4.027024  0.0  -0.035475  0.001436  4.047142  0.001  -0.010088  -0.040601  -0.00045  4.013356  -0.001
C  C46  1  0.05664575  0.54508750  0.19268139  1  -0.010402  0.00234  3.755501  0.001  -0.038636  0.000341  4.027167  0.0  -0.035435  0.001439  4.047285  0.001  -0.01007  -0.040562  -0.00045  4.013494  -0.001
C  C47  1  0.89623252  0.35871486  0.91592660  1  -0.093139  -0.004242  3.683166  -0.005  -0.131327  -0.002217  3.934285  -0.003  -0.130478  -0.001884  3.952632  -0.002  -0.007767  -0.131335  -0.002516  3.921891  -0.003
C  C48  1  0.10377050  0.64128462  0.08407156  1  -0.093086  -0.004248  3.68334  -0.005  -0.131296  -0.002216  3.934469  -0.003  -0.130444  -0.001884  3.952816  -0.002  -0.007736  -0.131306  -0.002515  3.922075  -0.003
N  N49  1  0.74814207  0.72135449  0.59108176  1  -0.351018  -0.080307  3.331843  -0.106  -0.309315  -0.055564  3.646646  -0.077  -0.340007  -0.045496  3.668765  -0.068  -0.37666  -0.289945  -0.062012  3.632297  -0.082
N  N50  1  0.25185403  0.27864372  0.40891892  1  -0.351207  -0.080308  3.33208  -0.106  -0.309406  -0.055565  3.646806  -0.077  -0.3401  -0.045497  3.668931  -0.068  -0.376745  -0.290035  -0.062014  3.632458  -0.082
N  N51  1  0.52942976  0.00062983  0.64982498  1  -0.053331  -0.001575  3.572029  -0.003  0.040099  -0.001271  3.788162  -0.002  0.025809  -0.000789  3.813639  -0.002  -0.243653  0.049526  -0.001645  3.770775  -0.003
N  N52  1  0.47057087  0.99936706  0.35017620  1  -0.053439  -0.001577  3.572043  -0.003  0.039973  -0.001273  3.788209  -0.002  0.025682  -0.00079  3.813685  -0.002  -0.243664  0.049402  -0.001645  3.770818  -0.003
N  N53  1  0.86260359  0.24647546  0.86188964  1  -0.049945  -0.00156  3.547876  -0.003  0.046513  -0.001311  3.761321  -0.002  0.031939  -0.000824  3.787129  -0.002  -0.242476  0.056012  -0.001708  3.743565  -0.003
N  N54  1  0.13739944  0.75352403  0.13811045  1  -0.049964  -0.001555  3.547904  -0.003  0.046513  -0.001312  3.761351  -0.002  0.031939  -0.000825  3.787158  -0.002  -0.242485  0.05601  -0.001708  3.743592  -0.003
N  N55  1  0.93960652  0.40098160  0.68855207  1  -0.345178  -0.079674  3.343609  -0.106  -0.304618  -0.056063  3.657216  -0.078  -0.334385  -0.045921  3.678711  -0.068  -0.372563  -0.285881  -0.062381  3.643636  -0.083
N  N56  1  0.06039722  0.59901658  0.31144791  1  -0.345231  -0.079664  3.343676  -0.106  -0.30462  -0.05606  3.657253  -0.078  -0.334385  -0.045919  3.678743  -0.068  -0.372584  -0.285882  -0.062379  3.643668  -0.083
N  N57  1  0.15444406  0.72732508  0.64179137  1  0.692478  0.000481  4.160697  0.0  0.73087  0.000513  4.448095  0.0  0.758332  0.000394  4.453605  0.0  0.094796  0.712239  0.000628  4.443766  0.001
N  N58  1  0.84555106  0.27267967  0.35821284  1  0.692469  0.00049  4.16062  0.0  0.730845  0.000514  4.448049  0.0  0.758305  0.000391  4.453557  0.0  0.094705  0.712199  0.000628  4.443745  0.001
O  O59  1  0.20635817  0.58919048  0.57166187  1  -0.495177  0.001131  1.764542  0.0  -0.494115  0.001243  1.99794  0.0  -0.50812  0.00136  1.988222  0.0  -0.20726  -0.484293  0.001055  2.0047  0.0
O  O60  1  0.79364575  0.41080512  0.42834896  1  -0.495112  0.001146  1.764465  0.0  -0.494062  0.001237  1.997905  0.0  -0.508077  0.001378  1.98821  0.0  -0.207208  -0.484238  0.001055  2.00467  0.0
O  O61  1  0.11434919  0.87005709  0.58593109  1  -0.48001  5.2e-05  1.756679  0.0  -0.471808  0.000144  1.979116  0.0  -0.485324  0.00019  1.972506  0.0  -0.197567  -0.461811  9.2e-05  1.983782  0.0
O  O62  1  0.88566231  0.12993843  0.41406067  1  -0.480045  3.7e-05  1.756664  0.0  -0.471831  0.000148  1.979081  0.0  -0.485349  0.000179  1.972476  0.0  -0.197534  -0.461823  9.2e-05  1.983737  0.0
O  O63  1  0.14214303  0.72218196  0.76956713  1  -0.510812  0.000187  1.740355  0.0  -0.498433  0.00025  1.954084  0.0  -0.510967  0.000266  1.945491  0.0  -0.218253  -0.489516  0.0003  1.960201  0.0
O  O64  1  0.85783232  0.27783595  0.23044351  1  -0.510849  0.000173  1.74034  0.0  -0.498426  0.000252  1.954029  0.0  -0.51096  0.000257  1.945443  0.0  -0.218253  -0.489504  0.0003  1.960149  0.0
O  O65  1  0.59115481  0.15631830  0.83525429  1  -0.311319  3e-06  2.288117  0.0  -0.238451  1.9e-05  2.543901  0.0  -0.254362  2.8e-05  2.546113  0.0  -0.230543  -0.227302  7e-06  2.542077  0.0
O  O66  1  0.40884681  0.84368380  0.16474408  1  -0.311295  4e-06  2.288182  0.0  -0.238463  1.7e-05  2.54395  0.0  -0.254376  2.7e-05  2.546168  0.0  -0.230546  -0.227322  7e-06  2.542131  0.0
