# generated using pymatgen
data_CuH10C8SN3
_symmetry_space_group_name_H-M   'P 1'
_cell_length_a   5.71051698
_cell_length_b   9.04109054
_cell_length_c   9.64368811
_cell_angle_alpha   71.98316726
_cell_angle_beta   79.83477624
_cell_angle_gamma   89.34058816
_symmetry_Int_Tables_number   1
_chemical_formula_structural   CuH10C8SN3
_chemical_formula_sum   'Cu2 H20 C16 S2 N6'
_cell_volume   465.55673184
_cell_formula_units_Z   2
loop_
 _symmetry_equiv_pos_site_id
 _symmetry_equiv_pos_as_xyz
  1  'x, y, z'
loop_
 _atom_site_type_symbol
 _atom_site_label
 _atom_site_symmetry_multiplicity
 _atom_site_fract_x
 _atom_site_fract_y
 _atom_site_fract_z
 _atom_site_occupancy
 _atom_site_hle17_bader_spin_density
 _atom_site_hle17_ddec_charge
 _atom_site_hle17_ddec_spin_density
 _atom_site_hle17_ddec_sum_bond_order
 _atom_site_hle17_magmom
 _atom_site_hse06_10hf_bader_spin_density
 _atom_site_hse06_10hf_ddec_charge
 _atom_site_hse06_10hf_ddec_spin_density
 _atom_site_hse06_10hf_ddec_sum_bond_order
 _atom_site_hse06_10hf_magmom
 _atom_site_hse06_bader_spin_density
 _atom_site_hse06_ddec_charge
 _atom_site_hse06_ddec_spin_density
 _atom_site_hse06_ddec_sum_bond_order
 _atom_site_hse06_magmom
 _atom_site_pbe_bader_spin_density
 _atom_site_pbe_cm5_charge
 _atom_site_pbe_ddec_charge
 _atom_site_pbe_ddec_spin_density
 _atom_site_pbe_ddec_sum_bond_order
 _atom_site_pbe_magmom
Cu  Cu0  1  0.38978172  0.84920715  0.54508569  1  0  0.387318  0  2.186719  0  0  0.297044  0  2.683743  0  0  0.291853  0  2.642555  0  0  0.482951  0.3048  0  2.707495  0
Cu  Cu1  1  0.61020771  0.15078790  0.45491013  1  0  0.387267  0  2.186648  0  0  0.296965  0  2.683673  0  0  0.291756  0  2.642471  0  0  0.482913  0.304712  0  2.707407  0
H  H2  1  0.72157755  0.86454295  0.73707143  1  0  0.08652  0  0.949151  0  0  0.096793  0  1.011177  0  0  0.099064  0  1.009993  0  0  0.113111  0.094417  0  1.013627  0
H  H3  1  0.27840501  0.13545558  0.26292388  1  0  0.086458  0  0.948927  0  0  0.096724  0  1.010978  0  0  0.099001  0  1.009789  0  0  0.113064  0.094348  0  1.013427  0
H  H4  1  0.94368821  0.67329427  0.91476574  1  0  0.085416  0  0.956007  0  0  0.085592  0  1.034858  0  0  0.089332  0  1.031918  0  0  0.112994  0.082999  0  1.037053  0
H  H5  1  0.05631290  0.32671354  0.08522305  1  0  0.085237  0  0.955906  0  0  0.085464  0  1.034762  0  0  0.089209  0  1.031815  0  0  0.11294  0.082863  0  1.03697  0
H  H6  1  0.40960962  0.22058147  0.90189722  1  0  0.070887  0  0.941109  0  0  0.089966  0  1.004292  0  0  0.089817  0  1.005957  0  0  0.092735  0.090529  0  1.002558  0
H  H7  1  0.59040274  0.77941368  0.09809976  1  0  0.070961  0  0.941044  0  0  0.089987  0  1.004267  0  0  0.089842  0  1.005931  0  0  0.092777  0.090554  0  1.002534  0
H  H8  1  0.61954403  0.23786895  0.74247436  1  0  0.078334  0  0.972222  0  0  0.095783  0  1.035921  0  0  0.095973  0  1.037014  0  0  0.089026  0.095275  0  1.035801  0
H  H9  1  0.38047881  0.76212988  0.25752786  1  0  0.078369  0  0.972219  0  0  0.095776  0  1.035945  0  0  0.095963  0  1.037035  0  0  0.089008  0.095269  0  1.035829  0
H  H10  1  0.73233737  0.03414095  0.95463386  1  0  0.093753  0  0.954036  0  0  0.12017  0  1.008218  0  0  0.120982  0  1.00924  0  0  0.083279  0.119166  0  1.008643  0
H  H11  1  0.26767446  0.96585922  0.04537613  1  0  0.093674  0  0.954078  0  0  0.120061  0  1.008288  0  0  0.120874  0  1.009308  0  0  0.083222  0.11906  0  1.008709  0
H  H12  1  0.74028188  0.16801438  0.05509798  1  0  0.086929  0  0.992823  0  0  0.104385  0  1.065394  0  0  0.104934  0  1.067001  0  0  0.07484  0.103797  0  1.064841  0
H  H13  1  0.25972338  0.83199275  0.94490936  1  0  0.086955  0  0.992873  0  0  0.104354  0  1.065484  0  0  0.104902  0  1.067093  0  0  0.074798  0.103765  0  1.064932  0
H  H14  1  0.95157649  0.18872987  0.89100550  1  0  0.088813  0  0.971473  0  0  0.108411  0  1.040352  0  0  0.109379  0  1.040784  0  0  0.080352  0.108057  0  1.039667  0
H  H15  1  0.04843370  0.81127144  0.10900323  1  0  0.088793  0  0.971516  0  0  0.1084  0  1.040356  0  0  0.10937  0  1.040785  0  0  0.080378  0.10805  0  1.039672  0
H  H16  1  0.24990566  0.57170852  0.57788852  1  0  0.124572  0  0.960979  0  0  0.142165  0  1.025811  0  0  0.146078  0  1.022143  0  0  0.090035  0.139686  0  1.028242  0
H  H17  1  0.75009779  0.42828543  0.42210855  1  0  0.124548  0  0.960941  0  0  0.14218  0  1.025729  0  0  0.146085  0  1.022068  0  0  0.090059  0.139701  0  1.028157  0
H  H18  1  0.15401101  0.42674491  0.75154062  1  0  0.127073  0  0.9603  0  0  0.146593  0  1.022788  0  0  0.147724  0  1.023511  0  0  0.098354  0.146197  0  1.021735  0
H  H19  1  0.84598727  0.57325136  0.24845615  1  0  0.12708  0  0.960276  0  0  0.146584  0  1.022765  0  0  0.147714  0  1.023489  0  0  0.098351  0.146186  0  1.021721  0
H  H20  1  0.37528917  0.38345574  0.61901771  1  0  0.114301  0  0.980215  0  0  0.130925  0  1.050628  0  0  0.132233  0  1.051006  0  0  0.089007  0.130705  0  1.049032  0
H  H21  1  0.62471232  0.61653829  0.38098261  1  0  0.114234  0  0.9802  0  0  0.130859  0  1.050615  0  0  0.132169  0  1.05099  0  0  0.088991  0.130639  0  1.049018  0
C  C22  1  0.05870918  0.11430705  0.59124969  1  0  0.295332  0  3.927483  0  0  0.285985  0  4.214971  0  0  0.302055  0  4.230492  0  0  0.149713  0.275235  0  4.203783  0
C  C23  1  0.94125224  0.88569617  0.40874801  1  0  0.295327  0  3.92689  0  0  0.285992  0  4.214412  0  0  0.302072  0  4.229931  0  0  0.14966  0.275239  0  4.203215  0
C  C24  1  0.62743100  0.42950813  0.82467695  1  0  0.164017  0  3.664268  0  0  0.169243  0  3.90693  0  0  0.171746  0  3.927192  0  0  0.128591  0.166793  0  3.894726  0
C  C25  1  0.37258001  0.57049402  0.17531900  1  0  0.164049  0  3.664123  0  0  0.169163  0  3.906928  0  0  0.171666  0  3.927191  0  0  0.128563  0.16672  0  3.894725  0
C  C26  1  0.49394024  0.53470445  0.72972659  1  0  0.229412  0  3.639984  0  0  0.236116  0  3.880048  0  0  0.241416  0  3.898795  0  0  0.127123  0.232161  0  3.868237  0
C  C27  1  0.50605864  0.46530235  0.27026893  1  0  0.229363  0  3.640119  0  0  0.236025  0  3.88026  0  0  0.241326  0  3.899005  0  0  0.127038  0.23207  0  3.868437  0
C  C28  1  0.69126095  0.73908858  0.76504227  1  0  0.068522  0  3.690811  0  0  0.035355  0  3.95177  0  0  0.038239  0  3.968603  0  0  0.034836  0.03313  0  3.941367  0
C  C29  1  0.30872808  0.26092265  0.23494439  1  0  0.068593  0  3.690945  0  0  0.035463  0  3.951841  0  0  0.038339  0  3.968674  0  0  0.034859  0.033244  0  3.941425  0
C  C30  1  0.81430723  0.63430316  0.86101688  1  0  0.062003  0  3.725373  0  0  0.035582  0  3.997305  0  0  0.036604  0  4.013751  0  0  0.040183  0.034752  0  3.986671  0
C  C31  1  0.18569953  0.36569809  0.13899008  1  0  0.06222  0  3.725995  0  0  0.035709  0  3.997934  0  0  0.036731  0  4.014386  0  0  0.040267  0.034882  0  3.987289  0
C  C32  1  0.59708093  0.25745136  0.85116862  1  0  -0.141236  0  3.750473  0  0  -0.178388  0  3.996434  0  0  -0.180597  0  4.013011  0  0  -0.164784  -0.176573  0  3.985394  0
C  C33  1  0.40292989  0.74255087  0.14883044  1  0  -0.141389  0  3.750595  0  0  -0.178408  0  3.996483  0  0  -0.180615  0  4.013059  0  0  -0.164813  -0.1766  0  3.985458  0
C  C34  1  0.76448239  0.15709897  0.94342273  1  0  -0.27177  0  3.729608  0  0  -0.349738  0  3.97658  0  0  -0.351743  0  3.987716  0  0  -0.25193  -0.348537  0  3.970134  0
C  C35  1  0.23552439  0.84290348  0.05658491  1  0  -0.271641  0  3.729732  0  0  -0.349545  0  3.976711  0  0  -0.351549  0  3.987847  0  0  -0.25182  -0.348343  0  3.970265  0
C  C36  1  0.30991356  0.47674223  0.66443469  1  0  -0.367329  0  3.696502  0  0  -0.446663  0  3.928935  0  0  -0.450353  0  3.936299  0  0  -0.24486  -0.444614  0  3.923037  0
C  C37  1  0.69009150  0.52325299  0.33556600  1  0  -0.367221  0  3.696312  0  0  -0.446542  0  3.928754  0  0  -0.450222  0  3.936129  0  0  -0.24483  -0.444487  0  3.922854  0
S  S38  1  0.29876567  0.05459698  0.65949034  1  0  -0.302555  0  2.6263  0  0  -0.27371  0  3.048519  0  0  -0.277337  0  3.025759  0  0  -0.15152  -0.271817  0  3.062712  0
S  S39  1  0.70121796  0.94539947  0.34051487  1  0  -0.302379  0  2.62679  0  0  -0.273555  0  3.049049  0  0  -0.277197  0  3.02632  0  0  -0.151476  -0.271694  0  3.063291  0
N  N40  1  0.88538342  0.15588432  0.54142219  1  0  -0.494258  0  3.130834  0  0  -0.44276  0  3.447215  0  0  -0.453648  0  3.447951  0  0  -0.428028  -0.436616  0  3.446342  0
N  N41  1  0.11461199  0.84411002  0.45859099  1  0  -0.494548  0  3.129963  0  0  -0.443015  0  3.446302  0  0  -0.453913  0  3.447051  0  0  -0.428122  -0.436874  0  3.44544  0
N  N42  1  0.78421888  0.47975406  0.89013998  1  0  -0.291012  0  3.061024  0  0  -0.257065  0  3.324551  0  0  -0.264016  0  3.340498  0  0  -0.299592  -0.252239  0  3.314675  0
N  N43  1  0.21577637  0.52024797  0.10985317  1  0  -0.291036  0  3.060841  0  0  -0.257036  0  3.324417  0  0  -0.263984  0  3.340364  0  0  -0.299556  -0.252219  0  3.314546  0
N  N44  1  0.53040961  0.68988908  0.69928322  1  0  -0.294933  0  3.33778  0  0  -0.231681  0  3.627994  0  0  -0.239626  0  3.636544  0  0  -0.346345  -0.227183  0  3.621341  0
N  N45  1  0.46958532  0.31011189  0.30071444  1  0  -0.295024  0  3.337564  0  0  -0.23171  0  3.627742  0  0  -0.239647  0  3.636276  0  0  -0.34634  -0.227207  0  3.621072  0
