# generated using pymatgen
data_AgPH16C10N2O7
_symmetry_space_group_name_H-M   'P 1'
_cell_length_a   8.76631149
_cell_length_b   10.94417226
_cell_length_c   16.25700000
_cell_angle_alpha   90.00000000
_cell_angle_beta   90.00000000
_cell_angle_gamma   108.24385385
_symmetry_Int_Tables_number   1
_chemical_formula_structural   AgPH16C10N2O7
_chemical_formula_sum   'Ag4 P4 H64 C40 N8 O28'
_cell_volume   1481.29522115
_cell_formula_units_Z   4
loop_
 _symmetry_equiv_pos_site_id
 _symmetry_equiv_pos_as_xyz
  1  'x, y, z'
loop_
 _atom_site_type_symbol
 _atom_site_label
 _atom_site_symmetry_multiplicity
 _atom_site_fract_x
 _atom_site_fract_y
 _atom_site_fract_z
 _atom_site_occupancy
 _atom_site_hle17_bader_spin_density
 _atom_site_hle17_ddec_charge
 _atom_site_hle17_ddec_spin_density
 _atom_site_hle17_ddec_sum_bond_order
 _atom_site_hle17_magmom
 _atom_site_hse06_10hf_bader_spin_density
 _atom_site_hse06_10hf_ddec_charge
 _atom_site_hse06_10hf_ddec_spin_density
 _atom_site_hse06_10hf_ddec_sum_bond_order
 _atom_site_hse06_10hf_magmom
 _atom_site_hse06_bader_spin_density
 _atom_site_hse06_ddec_charge
 _atom_site_hse06_ddec_spin_density
 _atom_site_hse06_ddec_sum_bond_order
 _atom_site_hse06_magmom
 _atom_site_pbe_bader_charge
 _atom_site_pbe_bader_spin_density
 _atom_site_pbe_cm5_charge
 _atom_site_pbe_ddec_charge
 _atom_site_pbe_ddec_spin_density
 _atom_site_pbe_ddec_sum_bond_order
 _atom_site_pbe_magmom
Ag  Ag0  1  0.12453730  0.52848660  0.15415636  1  0  0.596641  0  1.297414  0  0  0.45941  0  1.728596  0  0  0.493173  0  1.677008  0  0.64285  0  0.444169  0.435349  0  1.764881  0
Ag  Ag1  1  0.37546139  0.47151355  0.65415636  1  0  0.596632  0  1.297419  0  0  0.459388  0  1.728613  0  0  0.493152  0  1.677023  0  0.642845  0  0.444166  0.435326  0  1.764898  0
Ag  Ag2  1  0.87546187  0.47151355  0.84584364  1  0  0.596639  0  1.297405  0  0  0.459414  0  1.728593  0  0  0.493178  0  1.677003  0  0.642908  0  0.444168  0.435353  0  1.764879  0
Ag  Ag3  1  0.62453778  0.52848660  0.34584364  1  0  0.596622  0  1.297422  0  0  0.459392  0  1.728614  0  0  0.493156  0  1.677023  0  0.642849  0  0.444161  0.435331  0  1.764897  0
P  P4  1  0.03751609  0.17722755  0.15459187  1  0  1.54821  0  4.859697  0  0  1.361856  0  5.390069  0  0  1.421186  0  5.338979  0  3.638867  0  0.471804  1.3207  0  5.424218  0
P  P5  1  0.46248260  0.82277260  0.65459187  1  0  1.548199  0  4.859742  0  0  1.361838  0  5.390128  0  0  1.421169  0  5.339036  0  3.638944  0  0.471793  1.320681  0  5.424277  0
P  P6  1  0.96248308  0.82277260  0.84540813  1  0  1.548099  0  4.859709  0  0  1.361749  0  5.390094  0  0  1.421079  0  5.339004  0  3.638871  0  0.471765  1.320594  0  5.42424  0
P  P7  1  0.53751657  0.17722755  0.34540813  1  0  1.548201  0  4.85971  0  0  1.361845  0  5.390086  0  0  1.421172  0  5.338996  0  3.638871  0  0.471806  1.32069  0  5.424233  0
H  H8  1  0.39610265  0.22544462  0.18531586  1  0  0.089331  0  0.938942  0  0  0.099273  0  1.003465  0  0  0.10085  0  1.001705  0  0.125333  0  0.112887  0.097981  0  1.004968  0
H  H9  1  0.10389718  0.77455554  0.68531586  1  0  0.089333  0  0.938932  0  0  0.099276  0  1.003454  0  0  0.100852  0  1.001695  0  0.125335  0  0.112889  0.097984  0  1.004957  0
H  H10  1  0.60389652  0.77455554  0.81468414  1  0  0.089336  0  0.938927  0  0  0.099278  0  1.00345  0  0  0.100854  0  1.001691  0  0.125335  0  0.11289  0.097986  0  1.004953  0
H  H11  1  0.89610313  0.22544462  0.31468414  1  0  0.089344  0  0.938942  0  0  0.099281  0  1.003456  0  0  0.100856  0  1.001695  0  0.125335  0  0.11289  0.097989  0  1.004959  0
H  H12  1  0.33353757  0.36280220  0.16974288  1  0  0.082619  0  0.932055  0  0  0.09377  0  1.002263  0  0  0.095416  0  0.999284  0  0.12339  0  0.113259  0.092665  0  1.004102  0
H  H13  1  0.16646225  0.63719795  0.66974288  1  0  0.082608  0  0.932066  0  0  0.093757  0  1.002275  0  0  0.095403  0  0.999297  0  0.123387  0  0.113255  0.092652  0  1.004114  0
H  H14  1  0.66646274  0.63719795  0.83025712  1  0  0.082604  0  0.93207  0  0  0.093754  0  1.002277  0  0  0.0954  0  0.9993  0  0.123384  0  0.113253  0.092649  0  1.004116  0
H  H15  1  0.83353806  0.36280220  0.33025712  1  0  0.082622  0  0.932069  0  0  0.093765  0  1.002269  0  0  0.095409  0  0.999291  0  0.123387  0  0.113255  0.09266  0  1.004109  0
H  H16  1  0.29969987  0.29414842  0.97011872  1  0  0.123847  0  0.952418  0  0  0.13013  0  1.01768  0  0  0.133956  0  1.015758  0  0.109215  0  0.10958  0.126937  0  1.019913  0
H  H17  1  0.20029996  0.70585173  0.47011872  1  0  0.123906  0  0.952352  0  0  0.13016  0  1.017642  0  0  0.133987  0  1.015721  0  0.109218  0  0.109595  0.126967  0  1.019877  0
H  H18  1  0.70030044  0.70585173  0.02988128  1  0  0.123908  0  0.952351  0  0  0.13016  0  1.017645  0  0  0.133987  0  1.015723  0  0.10922  0  0.109596  0.126967  0  1.01988  0
H  H19  1  0.79969998  0.29414746  0.52988128  1  0  0.123887  0  0.952368  0  0  0.13016  0  1.017639  0  0  0.133988  0  1.015716  0  0.109218  0  0.109592  0.126966  0  1.019877  0
H  H20  1  0.51035808  0.37856123  0.86465338  1  0  0.081896  0  0.969634  0  0  0.085291  0  1.043571  0  0  0.08773  0  1.041526  0  0.125894  0  0.112676  0.083367  0  1.045317  0
H  H21  1  0.98964195  0.62143988  0.36465338  1  0  0.081928  0  0.969635  0  0  0.085334  0  1.043547  0  0  0.087774  0  1.041504  0  0.125899  0  0.112697  0.083409  0  1.045295  0
H  H22  1  0.48964223  0.62143892  0.13534662  1  0  0.081908  0  0.96963  0  0  0.085311  0  1.043555  0  0  0.08775  0  1.04151  0  0.125898  0  0.112681  0.083386  0  1.045302  0
H  H23  1  0.01035759  0.37856123  0.63534662  1  0  0.081907  0  0.96963  0  0  0.085308  0  1.043557  0  0  0.087748  0  1.041511  0  0.125897  0  0.112679  0.083384  0  1.045304  0
H  H24  1  0.87432460  0.44473474  0.03903734  1  0  0.058183  0  0.967991  0  0  0.062611  0  1.052425  0  0  0.066053  0  1.046458  0  0.04836  0  0.104838  0.059798  0  1.057265  0
H  H25  1  0.62567582  0.55526445  0.53903734  1  0  0.058179  0  0.968015  0  0  0.06261  0  1.052443  0  0  0.066052  0  1.046475  0  0.048358  0  0.104839  0.059797  0  1.057283  0
H  H26  1  0.12567533  0.55526445  0.96096328  1  0  0.058194  0  0.967978  0  0  0.062624  0  1.052406  0  0  0.066067  0  1.046437  0  0.048354  0  0.104844  0.059811  0  1.057246  0
H  H27  1  0.37432449  0.44473570  0.46096266  1  0  0.058172  0  0.96802  0  0  0.062603  0  1.052452  0  0  0.066046  0  1.046482  0  0.048355  0  0.104848  0.05979  0  1.057292  0
H  H28  1  0.67940875  0.36346604  0.15170573  1  0  0.12761  0  0.9397  0  0  0.137579  0  0.997463  0  0  0.140836  0  0.996846  0  0.110906  0  0.113464  0.135388  0  0.997638  0
H  H29  1  0.82059205  0.63653411  0.65170573  1  0  0.127601  0  0.939707  0  0  0.137568  0  0.997473  0  0  0.140826  0  0.996856  0  0.110907  0  0.113467  0.135378  0  0.997647  0
H  H30  1  0.32059156  0.63653411  0.84829427  1  0  0.127603  0  0.939705  0  0  0.13757  0  0.997471  0  0  0.140828  0  0.996852  0  0.110907  0  0.113468  0.13538  0  0.997645  0
H  H31  1  0.17940826  0.36346604  0.34829427  1  0  0.127605  0  0.939709  0  0  0.137572  0  0.997473  0  0  0.14083  0  0.996855  0  0.110906  0  0.113467  0.135382  0  0.997647  0
H  H32  1  0.97893937  0.10905290  0.96992988  1  0  0.062314  0  0.92244  0  0  0.074234  0  0.987604  0  0  0.075087  0  0.98644  0  0.054489  0  0.105646  0.073379  0  0.988957  0
H  H33  1  0.52106105  0.89094629  0.46992988  1  0  0.06232  0  0.922441  0  0  0.074244  0  0.987597  0  0  0.075095  0  0.986434  0  0.054495  0  0.10565  0.073387  0  0.988951  0
H  H34  1  0.02106171  0.89094629  0.03007012  1  0  0.062335  0  0.92243  0  0  0.074257  0  0.987595  0  0  0.07511  0  0.98643  0  0.054504  0  0.105651  0.073401  0  0.988949  0
H  H35  1  0.47893812  0.10905386  0.53007012  1  0  0.062336  0  0.92242  0  0  0.074256  0  0.987583  0  0  0.075109  0  0.986417  0  0.05451  0  0.105655  0.073398  0  0.988939  0
H  H36  1  0.93287181  0.24305760  0.01203666  1  0  0.046  0  0.942563  0  0  0.061842  0  1.008035  0  0  0.061741  0  1.007537  0  0.043234  0  0.104149  0.061812  0  1.008425  0
H  H37  1  0.56712822  0.75694352  0.51203666  1  0  0.046006  0  0.942581  0  0  0.06183  0  1.008068  0  0  0.061729  0  1.00757  0  0.043249  0  0.104158  0.0618  0  1.008459  0
H  H38  1  0.06712774  0.75694352  0.98796334  1  0  0.046008  0  0.942585  0  0  0.061833  0  1.008075  0  0  0.061733  0  1.007577  0  0.043279  0  0.104155  0.061803  0  1.008466  0
H  H39  1  0.43287057  0.24305567  0.48796334  1  0  0.04601  0  0.942577  0  0  0.061833  0  1.008066  0  0  0.061734  0  1.007568  0  0.043257  0  0.10416  0.061805  0  1.008457  0
H  H40  1  0.68733970  0.97644338  0.98029095  1  0  0.113196  0  0.948075  0  0  0.133113  0  1.009172  0  0  0.134693  0  1.009381  0  0.029448  0  0.090525  0.131734  0  1.009489  0
H  H41  1  0.81266147  0.02355773  0.48029034  1  0  0.113204  0  0.948072  0  0  0.133119  0  1.009177  0  0  0.134699  0  1.009386  0  0.029431  0  0.090519  0.131742  0  1.009492  0
H  H42  1  0.31266213  0.02355773  0.01970966  1  0  0.113201  0  0.948078  0  0  0.13312  0  1.009175  0  0  0.1347  0  1.009386  0  0.029432  0  0.09052  0.131741  0  1.009492  0
H  H43  1  0.18733884  0.97644242  0.51970966  1  0  0.113207  0  0.948073  0  0  0.133123  0  1.009176  0  0  0.134703  0  1.009387  0  0.029433  0  0.090521  0.131745  0  1.009493  0
H  H44  1  0.71185229  0.11793780  0.92087962  1  0  0.10598  0  0.963971  0  0  0.126945  0  1.028187  0  0  0.127721  0  1.028828  0  0.044606  0  0.094008  0.126211  0  1.028043  0
H  H45  1  0.78814850  0.88206235  0.42087839  1  0  0.105995  0  0.963899  0  0  0.126955  0  1.028127  0  0  0.12772  0  1.028778  0  0.044603  0  0.094015  0.126223  0  1.027981  0
H  H46  1  0.28814802  0.88206235  0.07912161  1  0  0.105986  0  0.963922  0  0  0.126953  0  1.028143  0  0  0.127727  0  1.028784  0  0.044602  0  0.094007  0.126219  0  1.027998  0
H  H47  1  0.21185181  0.11793780  0.57912161  1  0  0.105988  0  0.963924  0  0  0.126954  0  1.028144  0  0  0.127729  0  1.028786  0  0.044601  0  0.094006  0.126221  0  1.027999  0
H  H48  1  0.64202251  0.11134460  0.02374792  1  0  0.105025  0  0.956938  0  0  0.126721  0  1.016343  0  0  0.127475  0  1.018253  0  0.056111  0  0.090028  0.126063  0  1.015184  0
H  H49  1  0.85797906  0.88865459  0.52374854  1  0  0.105036  0  0.956925  0  0  0.126742  0  1.016311  0  0  0.127497  0  1.018218  0  0.056091  0  0.090029  0.126083  0  1.015153  0
H  H50  1  0.35797971  0.88865459  0.97625146  1  0  0.105046  0  0.956899  0  0  0.126742  0  1.016303  0  0  0.127496  0  1.018212  0  0.056085  0  0.090025  0.126083  0  1.015145  0
H  H51  1  0.14201974  0.11134460  0.47625146  1  0  0.105047  0  0.956902  0  0  0.126743  0  1.016307  0  0  0.127497  0  1.018216  0  0.056112  0  0.090023  0.126084  0  1.015149  0
H  H52  1  0.20054182  0.99520413  0.19679154  1  0  0.047496  0  0.929715  0  0  0.063123  0  0.991958  0  0  0.063304  0  0.991849  0  0.072538  0  0.103738  0.062801  0  0.992306  0
H  H53  1  0.29945686  0.00479602  0.69679154  1  0  0.047509  0  0.929769  0  0  0.063135  0  0.992006  0  0  0.063316  0  0.991897  0  0.072622  0  0.103747  0.062818  0  0.99235  0
H  H54  1  0.79945697  0.00479506  0.80320785  1  0  0.047502  0  0.92978  0  0  0.063127  0  0.99202  0  0  0.063307  0  0.991912  0  0.072557  0  0.103746  0.062809  0  0.992363  0
H  H55  1  0.70054231  0.99520413  0.30320785  1  0  0.047509  0  0.929728  0  0  0.063133  0  0.991972  0  0  0.063313  0  0.991863  0  0.072662  0  0.103743  0.062815  0  0.992315  0
H  H56  1  0.99540469  0.90747307  0.17419881  1  0  0.055779  0  0.945845  0  0  0.066858  0  1.014594  0  0  0.067797  0  1.013497  0  0.075699  0  0.103353  0.065974  0  1.015777  0
H  H57  1  0.50459496  0.09252708  0.67419881  1  0  0.055737  0  0.94589  0  0  0.066825  0  1.014625  0  0  0.067761  0  1.013525  0  0.075705  0  0.10335  0.065943  0  1.015805  0
H  H58  1  0.00459448  0.09252708  0.82580119  1  0  0.055742  0  0.945865  0  0  0.066829  0  1.014604  0  0  0.067765  0  1.013504  0  0.075708  0  0.103358  0.065947  0  1.015784  0
H  H59  1  0.49540535  0.90747307  0.32580119  1  0  0.055742  0  0.945893  0  0  0.06683  0  1.014628  0  0  0.067766  0  1.013527  0  0.075703  0  0.10335  0.065947  0  1.015807  0
H  H60  1  0.13514517  0.96524754  0.34885834  1  0  0.117132  0  0.956706  0  0  0.137023  0  1.018205  0  0  0.138993  0  1.017835  0  0.070983  0  0.090641  0.135591  0  1.018395  0
H  H61  1  0.36485617  0.03475358  0.84885772  1  0  0.117149  0  0.956685  0  0  0.137026  0  1.018203  0  0  0.138996  0  1.017831  0  0.070864  0  0.090633  0.135595  0  1.018394  0
H  H62  1  0.86485551  0.03475358  0.65114228  1  0  0.117145  0  0.956691  0  0  0.137024  0  1.018209  0  0  0.138993  0  1.017837  0  0.070994  0  0.09063  0.135592  0  1.018399  0
H  H63  1  0.63514414  0.96524658  0.15114228  1  0  0.117136  0  0.956711  0  0  0.137029  0  1.018204  0  0  0.138997  0  1.017836  0  0.070858  0  0.090645  0.135596  0  1.018395  0
H  H64  1  0.10671088  0.81841625  0.29589900  1  0  0.123509  0  0.966656  0  0  0.144598  0  1.027154  0  0  0.145823  0  1.027502  0  0.071593  0  0.095129  0.143572  0  1.0272  0
H  H65  1  0.39328932  0.18158486  0.79589900  1  0  0.123455  0  0.966665  0  0  0.14457  0  1.027137  0  0  0.145781  0  1.027498  0  0.07159  0  0.095118  0.143543  0  1.027183  0
H  H66  1  0.89328981  0.18158486  0.70410100  1  0  0.123448  0  0.966692  0  0  0.144568  0  1.027155  0  0  0.145775  0  1.027521  0  0.071588  0  0.095121  0.143542  0  1.027201  0
H  H67  1  0.60671099  0.81841529  0.20410100  1  0  0.123517  0  0.966615  0  0  0.144606  0  1.027116  0  0  0.145831  0  1.027463  0  0.071584  0  0.095128  0.143579  0  1.027163  0
H  H68  1  0.93641415  0.86604837  0.32215599  1  0  0.098872  0  0.9694  0  0  0.118395  0  1.034852  0  0  0.119737  0  1.035043  0  0.041495  0  0.085761  0.117328  0  1.034934  0
H  H69  1  0.56358665  0.13395178  0.82215599  1  0  0.098858  0  0.969403  0  0  0.118382  0  1.034859  0  0  0.119724  0  1.035049  0  0.041487  0  0.085758  0.117314  0  1.034941  0
H  H70  1  0.06358579  0.13395082  0.67784401  1  0  0.098882  0  0.969404  0  0  0.118396  0  1.034869  0  0  0.119737  0  1.03506  0  0.041494  0  0.085762  0.117328  0  1.03495  0
H  H71  1  0.43641366  0.86604837  0.17784401  1  0  0.098874  0  0.969394  0  0  0.118396  0  1.034849  0  0  0.119737  0  1.035042  0  0.041495  0  0.085762  0.117328  0  1.034931  0
C  C72  1  0.35212469  0.27884061  0.13875192  1  0  0.08234  0  3.585678  0  0  0.021259  0  3.836629  0  0  0.029275  0  3.83878  0  0.348655  0  -0.047875  0.015908  0  3.834927  0
C  C73  1  0.14787476  0.72115858  0.63875192  1  0  0.082354  0  3.585665  0  0  0.021291  0  3.83661  0  0  0.029297  0  3.838755  0  0.348647  0  -0.047873  0.01594  0  3.834908  0
C  C74  1  0.64787524  0.72115858  0.86124808  1  0  0.082351  0  3.58567  0  0  0.021282  0  3.836631  0  0  0.029287  0  3.838777  0  0.348647  0  -0.047873  0.01593  0  3.834928  0
C  C75  1  0.85212555  0.27884157  0.36124808  1  0  0.082299  0  3.585761  0  0  0.02126  0  3.836675  0  0  0.029274  0  3.838811  0  0.348647  0  -0.04788  0.015907  0  3.834973  0
C  C76  1  0.47165305  0.32251661  0.07052531  1  0  0.12097  0  3.71612  0  0  0.137268  0  3.952953  0  0  0.141256  0  3.974638  0  -0.021917  0  0.01094  0.134531  0  3.938568  0
C  C77  1  0.02834791  0.67748355  0.57052531  1  0  0.12095  0  3.716135  0  0  0.137211  0  3.95301  0  0  0.141231  0  3.974652  0  -0.021932  0  0.010934  0.134475  0  3.938624  0
C  C78  1  0.52834840  0.67748355  0.92947469  1  0  0.120939  0  3.716149  0  0  0.137198  0  3.953024  0  0  0.141219  0  3.974666  0  -0.021938  0  0.010928  0.134462  0  3.938638  0
C  C79  1  0.97165240  0.32251661  0.42947469  1  0  0.120968  0  3.716143  0  0  0.137228  0  3.953006  0  0  0.141242  0  3.974655  0  -0.021931  0  0.010948  0.134492  0  3.938621  0
C  C80  1  0.42551658  0.32606960  0.98846958  1  0  -0.15244  0  3.682567  0  0  -0.173315  0  3.928513  0  0  -0.180914  0  3.950025  0  0.018588  0  -0.084587  -0.168085  0  3.914611  0
C  C81  1  0.07448324  0.67393055  0.48847020  1  0  -0.15248  0  3.682568  0  0  -0.173321  0  3.92854  0  0  -0.180927  0  3.950036  0  0.018581  0  -0.084611  -0.168091  0  3.914637  0
C  C82  1  0.57448259  0.67393055  0.01152980  1  0  -0.152491  0  3.682571  0  0  -0.173328  0  3.928542  0  0  -0.180935  0  3.950039  0  0.018601  0  -0.084606  -0.168099  0  3.914639  0
C  C83  1  0.92551669  0.32606864  0.51152980  1  0  -0.152445  0  3.682533  0  0  -0.173311  0  3.928511  0  0  -0.180919  0  3.950011  0  0.018598  0  -0.084601  -0.168082  0  3.914608  0
C  C84  1  0.54326176  0.37300228  0.92892170  1  0  0.123148  0  3.714359  0  0  0.094633  0  3.966144  0  0  0.101567  0  3.986479  0  0.468097  0  0.042879  0.090218  0  3.952366  0
C  C85  1  0.95673904  0.62699787  0.42892170  1  0  0.123125  0  3.714348  0  0  0.094601  0  3.96612  0  0  0.101534  0  3.98646  0  0.468102  0  0.042878  0.090186  0  3.952342  0
C  C86  1  0.45673855  0.62699787  0.07107830  1  0  0.123174  0  3.714313  0  0  0.094649  0  3.966089  0  0  0.101583  0  3.986427  0  0.468097  0  0.042894  0.090235  0  3.952311  0
C  C87  1  0.04326127  0.37300228  0.57107830  1  0  0.123166  0  3.714298  0  0  0.094633  0  3.966079  0  0  0.101567  0  3.986418  0  0.468103  0  0.0429  0.090218  0  3.952301  0
C  C88  1  0.74580827  0.41045067  0.02586517  1  0  0.127087  0  3.738818  0  0  0.097687  0  3.990918  0  0  0.10428  0  4.011984  0  0.501476  0  0.041423  0.093474  0  3.976728  0
C  C89  1  0.75419101  0.58954852  0.52586517  1  0  0.127064  0  3.738887  0  0  0.097657  0  3.990988  0  0  0.10425  0  4.012056  0  0.501471  0  0.041414  0.093445  0  3.976798  0
C  C90  1  0.25419167  0.58954852  0.97413483  1  0  0.127068  0  3.73887  0  0  0.097664  0  3.990965  0  0  0.104256  0  4.012033  0  0.501484  0  0.041411  0.093451  0  3.976776  0
C  C91  1  0.24580816  0.41045163  0.47413483  1  0  0.127071  0  3.738934  0  0  0.097646  0  3.991037  0  0  0.104241  0  4.012103  0  0.501478  0  0.041356  0.093434  0  3.976847  0
C  C92  1  0.63590482  0.36508620  0.08900781  1  0  -0.160842  0  3.680256  0  0  -0.178692  0  3.920668  0  0  -0.187162  0  3.943921  0  -0.031681  0  -0.083135  -0.173322  0  3.904905  0
C  C93  1  0.86409484  0.63491395  0.58900781  1  0  -0.160819  0  3.680234  0  0  -0.178659  0  3.920663  0  0  -0.187139  0  3.943907  0  -0.031668  0  -0.08314  -0.173289  0  3.904899  0
C  C94  1  0.36409550  0.63491395  0.91099219  1  0  -0.160812  0  3.680228  0  0  -0.178646  0  3.920652  0  0  -0.187126  0  3.943895  0  -0.031672  0  -0.083133  -0.173276  0  3.904889  0
C  C95  1  0.13590547  0.36508620  0.41099219  1  0  -0.160845  0  3.68027  0  0  -0.17868  0  3.920696  0  0  -0.18716  0  3.943941  0  -0.031682  0  -0.083132  -0.17331  0  3.904932  0
C  C96  1  0.89554648  0.13759233  0.01015686  1  0  0.194542  0  3.564294  0  0  0.136817  0  3.835104  0  0  0.146557  0  3.839651  0  0.428337  0  -0.057393  0.130322  0  3.831832  0
C  C97  1  0.60445584  0.86240878  0.51015624  1  0  0.194588  0  3.564243  0  0  0.136887  0  3.835041  0  0  0.146629  0  3.839584  0  0.42837  0  -0.057358  0.130392  0  3.831771  0
C  C98  1  0.10445498  0.86240782  0.98984376  1  0  0.194541  0  3.564134  0  0  0.136822  0  3.834966  0  0  0.14656  0  3.839516  0  0.428343  0  -0.057373  0.130328  0  3.831696  0
C  C99  1  0.39554333  0.13759137  0.48984376  1  0  0.194567  0  3.564279  0  0  0.136852  0  3.835091  0  0  0.146591  0  3.839639  0  0.42837  0  -0.057374  0.130359  0  3.83182  0
C  C100  1  0.72350938  0.08181902  0.98273974  1  0  -0.321927  0  3.699622  0  0  -0.401619  0  3.94797  0  0  -0.405094  0  3.958048  0  -0.071718  0  -0.246878  -0.398743  0  3.941114  0
C  C101  1  0.77649293  0.91818210  0.48273974  1  0  -0.321958  0  3.699542  0  0  -0.401653  0  3.9479  0  0  -0.405118  0  3.957979  0  -0.071712  0  -0.246872  -0.398779  0  3.94104  0
C  C102  1  0.27649358  0.91818210  0.01726026  1  0  -0.321939  0  3.699528  0  0  -0.401629  0  3.947876  0  0  -0.4051  0  3.957951  0  -0.071708  0  -0.246858  -0.398752  0  3.941019  0
C  C103  1  0.22350624  0.08181805  0.51726026  1  0  -0.321973  0  3.69956  0  0  -0.401669  0  3.947915  0  0  -0.405141  0  3.957989  0  -0.071752  0  -0.246869  -0.398792  0  3.941058  0
C  C104  1  0.07670320  0.96768740  0.22008673  1  0  0.19359  0  3.564346  0  0  0.135333  0  3.836698  0  0  0.1447  0  3.841708  0  0.334795  0  -0.059205  0.128989  0  3.833267  0
C  C105  1  0.42329549  0.03231275  0.72008673  1  0  0.193619  0  3.564379  0  0  0.135355  0  3.836745  0  0  0.144729  0  3.841747  0  0.334699  0  -0.059207  0.129009  0  3.833314  0
C  C106  1  0.92329483  0.03231275  0.77991327  1  0  0.193616  0  3.564391  0  0  0.135354  0  3.836761  0  0  0.144727  0  3.841762  0  0.334756  0  -0.059209  0.129008  0  3.83333  0
C  C107  1  0.57670368  0.96768740  0.27991327  1  0  0.19359  0  3.564385  0  0  0.135337  0  3.83674  0  0  0.144709  0  3.841744  0  0.334664  0  -0.059209  0.128991  0  3.83331  0
C  C108  1  0.06201566  0.90112232  0.30202559  1  0  -0.329401  0  3.690228  0  0  -0.407591  0  3.933958  0  0  -0.411334  0  3.943367  0  -0.080415  0  -0.254381  -0.404539  0  3.92725  0
C  C109  1  0.43798530  0.09887783  0.80202559  1  0  -0.329343  0  3.690168  0  0  -0.407546  0  3.933896  0  0  -0.411278  0  3.943313  0  -0.080284  0  -0.254357  -0.404495  0  3.927191  0
C  C110  1  0.93798465  0.09887783  0.69797441  1  0  -0.329362  0  3.690234  0  0  -0.407561  0  3.933959  0  0  -0.411289  0  3.943381  0  -0.080423  0  -0.254362  -0.40451  0  3.927253  0
C  C111  1  0.56201615  0.90112232  0.19797441  1  0  -0.32941  0  3.690176  0  0  -0.407603  0  3.933904  0  0  -0.411345  0  3.943311  0  -0.080283  0  -0.254384  -0.404552  0  3.927198  0
N  N112  1  0.70163123  0.41460112  0.94664637  1  0  -0.333021  0  3.355435  0  0  -0.251371  0  3.643981  0  0  -0.272361  0  3.661969  0  -1.216155  0  -0.348355  -0.236681  0  3.631448  0
N  N113  1  0.79836843  0.58539903  0.44664637  1  0  -0.333005  0  3.355416  0  0  -0.251337  0  3.643947  0  0  -0.272328  0  3.661936  0  -1.216142  0  -0.348347  -0.236647  0  3.631413  0
N  N114  1  0.29836794  0.58539903  0.05335363  1  0  -0.333054  0  3.355452  0  0  -0.251389  0  3.643987  0  0  -0.27238  0  3.661976  0  -1.216152  0  -0.348361  -0.236699  0  3.631453  0
N  N115  1  0.20163188  0.41460112  0.55335363  1  0  -0.333012  0  3.355429  0  0  -0.251314  0  3.64394  0  0  -0.272306  0  3.661929  0  -1.216153  0  -0.348321  -0.236624  0  3.631406  0
N  N116  1  0.35044817  0.63006406  0.31155133  1  0  0.687652  0  4.140823  0  0  0.730889  0  4.408304  0  0  0.75955  0  4.417511  0  0.807038  0  0.092905  0.711552  0  4.401055  0
N  N117  1  0.14955052  0.36993610  0.81155072  1  0  0.687619  0  4.140781  0  0  0.730871  0  4.40823  0  0  0.75953  0  4.41744  0  0.807034  0  0.092875  0.711534  0  4.400983  0
N  N118  1  0.64955100  0.36993610  0.68844928  1  0  0.687668  0  4.140818  0  0  0.730879  0  4.408329  0  0  0.759537  0  4.41754  0  0.807018  0  0.09288  0.711541  0  4.401081  0
N  N119  1  0.85044751  0.63006406  0.18844805  1  0  0.687779  0  4.140678  0  0  0.730887  0  4.408324  0  0  0.759548  0  4.417533  0  0.807146  0  0.092896  0.711548  0  4.401076  0
O  O120  1  0.20130070  0.19714666  0.10550840  1  0  -0.524443  0  2.286155  0  0  -0.438599  0  2.539334  0  0  -0.460101  0  2.530976  0  -1.312271  0  -0.205746  -0.423548  0  2.544784  0
O  O121  1  0.29869913  0.80285349  0.60550840  1  0  -0.524442  0  2.286172  0  0  -0.438592  0  2.539345  0  0  -0.460096  0  2.530988  0  -1.312276  0  -0.205742  -0.423542  0  2.544796  0
O  O122  1  0.79869847  0.80285349  0.89449160  1  0  -0.524389  0  2.286136  0  0  -0.438532  0  2.539293  0  0  -0.460034  0  2.530939  0  -1.312275  0  -0.205709  -0.423481  0  2.544742  0
O  O123  1  0.70130118  0.19714666  0.39449160  1  0  -0.524435  0  2.286192  0  0  -0.438596  0  2.539352  0  0  -0.460101  0  2.530994  0  -1.312264  0  -0.205746  -0.423546  0  2.544802  0
O  O124  1  0.00904079  0.29747629  0.18208033  1  0  -0.822307  0  1.969462  0  0  -0.748314  0  2.254765  0  0  -0.775981  0  2.230515  0  -1.439437  0  -0.358917  -0.728852  0  2.270407  0
O  O125  1  0.49095904  0.70252386  0.68208095  1  0  -0.822303  0  1.969459  0  0  -0.748309  0  2.254755  0  0  -0.775981  0  2.230516  0  -1.439428  0  -0.358912  -0.728849  0  2.270398  0
O  O126  1  0.99095915  0.70252290  0.81791905  1  0  -0.822288  0  1.969423  0  0  -0.748298  0  2.254716  0  0  -0.775971  0  2.230481  0  -1.439433  0  -0.358917  -0.728838  0  2.270359  0
O  O127  1  0.50904013  0.29747629  0.31791905  1  0  -0.822313  0  1.969447  0  0  -0.74832  0  2.254743  0  0  -0.775996  0  2.230512  0  -1.439436  0  -0.358917  -0.728861  0  2.270388  0
O  O128  1  0.91126321  0.08878840  0.09293781  1  0  -0.525478  0  2.223109  0  0  -0.437803  0  2.474781  0  0  -0.459811  0  2.464752  0  -1.302799  0  -0.206982  -0.42245  0  2.481388  0
O  O129  1  0.58873684  0.91120983  0.59293720  1  0  -0.525551  0  2.223091  0  0  -0.437873  0  2.474767  0  0  -0.459881  0  2.464735  0  -1.302888  0  -0.207043  -0.422519  0  2.481374  0
O  O130  1  0.08873673  0.91121079  0.90706219  1  0  -0.525516  0  2.222981  0  0  -0.437845  0  2.474667  0  0  -0.459853  0  2.464635  0  -1.302819  0  -0.20703  -0.422493  0  2.481274  0
O  O131  1  0.41126310  0.08878936  0.40706280  1  0  -0.525536  0  2.223121  0  0  -0.437843  0  2.47479  0  0  -0.45985  0  2.464758  0  -1.302819  0  -0.207025  -0.42249  0  2.481396  0
O  O132  1  0.03361509  0.08662658  0.23077936  1  0  -0.521705  0  2.19258  0  0  -0.433091  0  2.443008  0  0  -0.4548  0  2.431869  0  -1.298466  0  -0.209829  -0.418039  0  2.450192  0
O  O133  1  0.46638474  0.91337357  0.73077936  1  0  -0.521699  0  2.192542  0  0  -0.433082  0  2.442972  0  0  -0.454792  0  2.43183  0  -1.298459  0  -0.209816  -0.418031  0  2.450158  0
O  O134  1  0.96638408  0.91337357  0.76922064  1  0  -0.521665  0  2.19255  0  0  -0.433051  0  2.442981  0  0  -0.454757  0  2.431838  0  -1.298455  0  -0.209819  -0.417999  0  2.450166  0
O  O135  1  0.53361557  0.08662658  0.26922064  1  0  -0.52167  0  2.192564  0  0  -0.433067  0  2.443002  0  0  -0.454773  0  2.431859  0  -1.298462  0  -0.209829  -0.418016  0  2.450187  0
O  O136  1  0.39317283  0.54062913  0.27620840  1  0  -0.486316  0  1.835872  0  0  -0.454799  0  2.076179  0  0  -0.475926  0  2.066458  0  -0.554953  0  -0.201005  -0.439685  0  2.082459  0
O  O137  1  0.10683040  0.45937390  0.77620963  1  0  -0.486299  0  1.835883  0  0  -0.454797  0  2.07621  0  0  -0.475924  0  2.066491  0  -0.555035  0  -0.200986  -0.439681  0  2.08249  0
O  O138  1  0.60682748  0.45937102  0.72379160  1  0  -0.486305  0  1.835902  0  0  -0.454769  0  2.076214  0  0  -0.475897  0  2.066496  0  -0.554939  0  -0.20098  -0.439656  0  2.082495  0
O  O139  1  0.89316915  0.54062721  0.22378975  1  0  -0.486379  0  1.835832  0  0  -0.454815  0  2.076202  0  0  -0.475945  0  2.066483  0  -0.555043  0  -0.200994  -0.439701  0  2.082482  0
O  O140  1  0.42065017  0.68223627  0.37608661  1  0  -0.474243  0  1.775308  0  0  -0.468124  0  2.000522  0  0  -0.484481  0  1.994098  0  -0.531694  0  -0.185361  -0.456479  0  2.005141  0
O  O141  1  0.07934965  0.31776388  0.87608599  1  0  -0.474232  0  1.775348  0  0  -0.468111  0  2.000521  0  0  -0.484468  0  1.9941  0  -0.531675  0  -0.185346  -0.456466  0  2.005142  0
O  O142  1  0.57934938  0.31776484  0.62391339  1  0  -0.474254  0  1.775324  0  0  -0.468118  0  2.000534  0  0  -0.484474  0  1.994111  0  -0.531687  0  -0.185349  -0.456472  0  2.005153  0
O  O143  1  0.92065066  0.68223627  0.12391339  1  0  -0.474243  0  1.775352  0  0  -0.468071  0  2.000597  0  0  -0.484427  0  1.994174  0  -0.531694  0  -0.185323  -0.456425  0  2.005217  0
O  O144  1  0.23723440  0.66343126  0.28055607  1  0  -0.460836  0  1.821903  0  0  -0.443349  0  2.053719  0  0  -0.460801  0  2.04533  0  -0.5305  0  -0.184153  -0.43123  0  2.059701  0
O  O145  1  0.26276202  0.33656601  0.78055422  1  0  -0.460841  0  1.821801  0  0  -0.443349  0  2.053598  0  0  -0.460798  0  2.045206  0  -0.53049  0  -0.184165  -0.431231  0  2.05958  0
O  O146  1  0.76276591  0.33656889  0.71944455  1  0  -0.460866  0  1.821871  0  0  -0.44338  0  2.053693  0  0  -0.46083  0  2.0453  0  -0.530503  0  -0.184171  -0.431261  0  2.059675  0
O  O147  1  0.73723412  0.66343222  0.21944455  1  0  -0.460914  0  1.82179  0  0  -0.443386  0  2.053651  0  0  -0.460838  0  2.04526  0  -0.530522  0  -0.184189  -0.431267  0  2.059632  0
