# generated using pymatgen
data_CdH8C10(SN3)2
_symmetry_space_group_name_H-M   'P 1'
_cell_length_a   6.88968744
_cell_length_b   7.56652023
_cell_length_c   7.56648184
_cell_angle_alpha   89.11143451
_cell_angle_beta   70.60586430
_cell_angle_gamma   70.60641691
_symmetry_Int_Tables_number   1
_chemical_formula_structural   CdH8C10(SN3)2
_chemical_formula_sum   'Cd1 H8 C10 S2 N6'
_cell_volume   348.95864933
_cell_formula_units_Z   1
loop_
 _symmetry_equiv_pos_site_id
 _symmetry_equiv_pos_as_xyz
  1  'x, y, z'
loop_
 _atom_site_type_symbol
 _atom_site_label
 _atom_site_symmetry_multiplicity
 _atom_site_fract_x
 _atom_site_fract_y
 _atom_site_fract_z
 _atom_site_occupancy
 _atom_site_hle17_bader_spin_density
 _atom_site_hle17_ddec_charge
 _atom_site_hle17_ddec_spin_density
 _atom_site_hle17_ddec_sum_bond_order
 _atom_site_hle17_magmom
 _atom_site_hse06_10hf_bader_spin_density
 _atom_site_hse06_10hf_ddec_charge
 _atom_site_hse06_10hf_ddec_spin_density
 _atom_site_hse06_10hf_ddec_sum_bond_order
 _atom_site_hse06_10hf_magmom
 _atom_site_hse06_bader_spin_density
 _atom_site_hse06_ddec_charge
 _atom_site_hse06_ddec_spin_density
 _atom_site_hse06_ddec_sum_bond_order
 _atom_site_hse06_magmom
 _atom_site_pbe_bader_spin_density
 _atom_site_pbe_cm5_charge
 _atom_site_pbe_ddec_charge
 _atom_site_pbe_ddec_spin_density
 _atom_site_pbe_ddec_sum_bond_order
 _atom_site_pbe_magmom
Cd  Cd0  1  0.99999414  0.50000739  0.50000564  1  0  0.996581  0  1.962869  0  0  0.790566  0  2.433163  0  0  0.838998  0  2.392718  0  0  0.812882  0.757104  0  2.460178  0
H  H1  1  0.32490678  0.29994468  0.06096183  1  0  0.081515  0  0.975039  0  0  0.086455  0  1.044228  0  0  0.088496  0  1.043654  0  0  0.112531  0.084931  0  1.044766  0
H  H2  1  0.67508662  0.93904896  0.70004637  1  0  0.081485  0  0.97503  0  0  0.086426  0  1.044221  0  0  0.088466  0  1.043645  0  0  0.11251  0.084904  0  1.044756  0
H  H3  1  0.67508477  0.70004236  0.93905506  1  0  0.081523  0  0.975035  0  0  0.08647  0  1.04422  0  0  0.08851  0  1.043642  0  0  0.112543  0.084947  0  1.044753  0
H  H4  1  0.32490546  0.06095800  0.29994095  1  0  0.081486  0  0.975076  0  0  0.086443  0  1.044263  0  0  0.088484  0  1.043687  0  0  0.112516  0.084919  0  1.044796  0
H  H5  1  0.69539952  0.69686365  0.26796998  1  0  0.093128  0  0.941042  0  0  0.099071  0  1.006536  0  0  0.101455  0  1.005288  0  0  0.1191  0.097269  0  1.007678  0
H  H6  1  0.30460971  0.73203827  0.30310890  1  0  0.093231  0  0.940943  0  0  0.099152  0  1.006416  0  0  0.101536  0  1.005169  0  0  0.119126  0.097346  0  1.00755  0
H  H7  1  0.30460275  0.30311213  0.73204369  1  0  0.093269  0  0.941052  0  0  0.099176  0  1.006519  0  0  0.101563  0  1.005269  0  0  0.11912  0.097372  0  1.007666  0
H  H8  1  0.69540163  0.26797019  0.69686567  1  0  0.093109  0  0.941082  0  0  0.099025  0  1.006591  0  0  0.101412  0  1.005341  0  0  0.119097  0.097224  0  1.007739  0
C  C9  1  0.52992018  0.28181400  0.28180590  1  0  0.277374  0  4.099673  0  0  0.262829  0  4.397277  0  0  0.285906  0  4.411487  0  0  0.124614  0.247291  0  4.38676  0
C  C10  1  0.47009599  0.71819566  0.71820147  1  0  0.277336  0  4.099424  0  0  0.262801  0  4.39701  0  0  0.285879  0  4.411217  0  0  0.124697  0.24726  0  4.386501  0
C  C11  1  0.17913715  0.38941979  0.03378527  1  0  0.088806  0  3.672948  0  0  0.060702  0  3.923761  0  0  0.063135  0  3.941865  0  0  0.05934  0.058911  0  3.911893  0
C  C12  1  0.82086271  0.96621603  0.61057439  1  0  0.08873  0  3.672978  0  0  0.060663  0  3.923813  0  0  0.0631  0  3.941912  0  0  0.059349  0.058862  0  3.911953  0
C  C13  1  0.82086494  0.61057861  0.96621751  1  0  0.088736  0  3.672929  0  0  0.060687  0  3.923795  0  0  0.063124  0  3.941891  0  0  0.05937  0.058887  0  3.911929  0
C  C14  1  0.17913754  0.03378245  0.38941576  1  0  0.088753  0  3.673114  0  0  0.060627  0  3.92397  0  0  0.063061  0  3.94207  0  0  0.059296  0.058835  0  3.912093  0
C  C15  1  0.83118664  0.60967194  0.14692515  1  0  0.092494  0  3.671276  0  0  0.061987  0  3.926489  0  0  0.064993  0  3.943398  0  0  0.059894  0.059725  0  3.91548  0
C  C16  1  0.16881801  0.85308118  0.39032034  1  0  0.092231  0  3.671464  0  0  0.061846  0  3.926604  0  0  0.064848  0  3.943518  0  0  0.059857  0.059598  0  3.915581  0
C  C17  1  0.16881400  0.39032644  0.85308205  1  0  0.092225  0  3.671557  0  0  0.061881  0  3.92663  0  0  0.064882  0  3.943543  0  0  0.059931  0.059621  0  3.915626  0
C  C18  1  0.83119270  0.14692159  0.60966113  1  0  0.092485  0  3.671394  0  0  0.062049  0  3.926526  0  0  0.065051  0  3.943436  0  0  0.059947  0.059788  0  3.915526  0
S  S19  1  0.74104488  0.12825395  0.12824493  1  0  -0.366417  0  2.026935  0  0  -0.351197  0  2.321998  0  0  -0.367398  0  2.322843  0  0  -0.198993  -0.339356  0  2.321018  0
S  S20  1  0.25894317  0.87175996  0.87175942  1  0  -0.366512  0  2.026751  0  0  -0.351313  0  2.321816  0  0  -0.367515  0  2.322659  0  0  -0.199076  -0.339465  0  2.320843  0
N  N21  1  0.37231660  0.39431471  0.39431501  1  0  -0.584424  0  2.890488  0  0  -0.523778  0  3.167687  0  0  -0.54638  0  3.172855  0  0  -0.424865  -0.507997  0  3.163596  0
N  N22  1  0.62769092  0.60568934  0.60568727  1  0  -0.584293  0  2.890456  0  0  -0.52365  0  3.16767  0  0  -0.546252  0  3.172838  0  0  -0.42487  -0.507869  0  3.163584  0
N  N23  1  0.01012964  0.49900061  0.17969680  1  0  -0.268297  0  3.234557  0  0  -0.199762  0  3.49819  0  0  -0.213872  0  3.516809  0  0  -0.304509  -0.190057  0  3.485537  0
N  N24  1  0.98985771  0.82031645  0.50098998  1  0  -0.268187  0  3.234708  0  0  -0.199721  0  3.498324  0  0  -0.213833  0  3.516947  0  0  -0.304458  -0.19002  0  3.485672  0
N  N25  1  0.98985021  0.50099209  0.82031578  1  0  -0.268204  0  3.234667  0  0  -0.199768  0  3.498301  0  0  -0.213877  0  3.516918  0  0  -0.30451  -0.190065  0  3.485655  0
N  N26  1  0.01014606  0.17968485  0.49900165  1  0  -0.268163  0  3.234682  0  0  -0.199664  0  3.49831  0  0  -0.213772  0  3.516926  0  0  -0.304438  -0.189965  0  3.485662  0
