# generated using pymatgen
data_HgH10C11(BrN2)2
_symmetry_space_group_name_H-M   'P 1'
_cell_length_a   5.04082332
_cell_length_b   15.86079187
_cell_length_c   20.79227425
_cell_angle_alpha   89.99960686
_cell_angle_beta   89.99970363
_cell_angle_gamma   94.09315993
_symmetry_Int_Tables_number   1
_chemical_formula_structural   HgH10C11(BrN2)2
_chemical_formula_sum   'Hg4 H40 C44 Br8 N16'
_cell_volume   1658.13226961
_cell_formula_units_Z   4
loop_
 _symmetry_equiv_pos_site_id
 _symmetry_equiv_pos_as_xyz
  1  'x, y, z'
loop_
 _atom_site_type_symbol
 _atom_site_label
 _atom_site_symmetry_multiplicity
 _atom_site_fract_x
 _atom_site_fract_y
 _atom_site_fract_z
 _atom_site_occupancy
 _atom_site_hle17_bader_spin_density
 _atom_site_hle17_ddec_charge
 _atom_site_hle17_ddec_spin_density
 _atom_site_hle17_ddec_sum_bond_order
 _atom_site_hle17_magmom
 _atom_site_hse06_10hf_bader_spin_density
 _atom_site_hse06_10hf_ddec_charge
 _atom_site_hse06_10hf_ddec_spin_density
 _atom_site_hse06_10hf_ddec_sum_bond_order
 _atom_site_hse06_10hf_magmom
 _atom_site_hse06_bader_spin_density
 _atom_site_hse06_ddec_charge
 _atom_site_hse06_ddec_spin_density
 _atom_site_hse06_ddec_sum_bond_order
 _atom_site_hse06_magmom
 _atom_site_pbe_bader_spin_density
 _atom_site_pbe_cm5_charge
 _atom_site_pbe_ddec_charge
 _atom_site_pbe_ddec_spin_density
 _atom_site_pbe_ddec_sum_bond_order
 _atom_site_pbe_magmom
Hg  Hg0  1  0.99900402  0.27037443  0.15753599  1  0  0.678378  0  2.085471  0  0  0.519697  0  2.586684  0  0  0.566434  0  2.559207  0  0  0.467483  0.488222  0  2.604754  0
Hg  Hg1  1  0.00100189  0.22962166  0.65754077  1  0  0.678361  0  2.085343  0  0  0.519691  0  2.58652  0  0  0.56643  0  2.559046  0  0  0.467424  0.488181  0  2.604582  0
Hg  Hg2  1  0.00096347  0.72960596  0.84246204  1  0  0.678287  0  2.085619  0  0  0.519588  0  2.586806  0  0  0.566325  0  2.55933  0  0  0.46743  0.488152  0  2.604869  0
Hg  Hg3  1  0.99903000  0.77039495  0.34245534  1  0  0.67832  0  2.085499  0  0  0.519611  0  2.586695  0  0  0.566353  0  2.559216  0  0  0.46742  0.488165  0  2.604742  0
H  H4  1  0.18718607  0.08832120  0.20364067  1  0  0.079423  0  0.946127  0  0  0.085278  0  1.014381  0  0  0.088319  0  1.01077  0  0  0.102225  0.082989  0  1.017074  0
H  H5  1  0.81282414  0.41168141  0.70364052  1  0  0.079418  0  0.946206  0  0  0.085233  0  1.014481  0  0  0.088305  0  1.010842  0  0  0.102246  0.082953  0  1.017172  0
H  H6  1  0.81282964  0.91168336  0.79636265  1  0  0.07948  0  0.946085  0  0  0.08527  0  1.014407  0  0  0.088351  0  1.010757  0  0  0.102255  0.082994  0  1.017103  0
H  H7  1  0.18717581  0.58832373  0.29635991  1  0  0.079421  0  0.946205  0  0  0.08525  0  1.014469  0  0  0.088313  0  1.010837  0  0  0.10225  0.082962  0  1.017179  0
H  H8  1  0.51413264  0.01972321  0.27275812  1  0  0.115536  0  0.970109  0  0  0.122031  0  1.037361  0  0  0.125992  0  1.035228  0  0  0.097302  0.119147  0  1.039156  0
H  H9  1  0.48588465  0.48028190  0.77275615  1  0  0.115541  0  0.970169  0  0  0.12208  0  1.037356  0  0  0.126027  0  1.035247  0  0  0.097309  0.119205  0  1.03914  0
H  H10  1  0.48590436  0.98028900  0.72724521  1  0  0.115496  0  0.970074  0  0  0.122049  0  1.037252  0  0  0.125999  0  1.035137  0  0  0.097293  0.119179  0  1.039037  0
H  H11  1  0.51409004  0.51971556  0.22724380  1  0  0.115501  0  0.970187  0  0  0.122045  0  1.037364  0  0  0.12599  0  1.035254  0  0  0.097297  0.119157  0  1.039168  0
H  H12  1  0.77394954  0.27029096  0.34209460  1  0  0.115907  0  0.947661  0  0  0.1278  0  1.002093  0  0  0.131301  0  1.000836  0  0  0.10789  0.125346  0  1.003142  0
H  H13  1  0.22606724  0.22971853  0.84209570  1  0  0.116003  0  0.947535  0  0  0.127857  0  1.002021  0  0  0.13136  0  1.000758  0  0  0.107936  0.125404  0  1.003076  0
H  H14  1  0.22603867  0.72972550  0.65791209  1  0  0.115949  0  0.947593  0  0  0.127828  0  1.002032  0  0  0.131329  0  1.000771  0  0  0.1079  0.125373  0  1.003079  0
H  H15  1  0.77398170  0.77027288  0.15790474  1  0  0.115938  0  0.947677  0  0  0.127825  0  1.002102  0  0  0.131323  0  1.000848  0  0  0.107868  0.125359  0  1.003144  0
H  H16  1  0.42717114  0.32606747  0.27357021  1  0  0.073097  0  0.961135  0  0  0.077814  0  1.030903  0  0  0.080816  0  1.0276  0  0  0.099074  0.075615  0  1.033287  0
H  H17  1  0.57283482  0.17394075  0.77357351  1  0  0.073156  0  0.961215  0  0  0.077863  0  1.030974  0  0  0.080863  0  1.027678  0  0  0.099089  0.075654  0  1.033351  0
H  H18  1  0.57280468  0.67394642  0.72643359  1  0  0.073162  0  0.961376  0  0  0.07788  0  1.031117  0  0  0.080874  0  1.027814  0  0  0.099146  0.075696  0  1.033489  0
H  H19  1  0.42723215  0.82606210  0.22642692  1  0  0.073201  0  0.961066  0  0  0.07789  0  1.030844  0  0  0.080897  0  1.027545  0  0  0.099132  0.075684  0  1.033232  0
H  H20  1  0.97618882  0.20188364  0.41128138  1  0  0.048841  0  0.935445  0  0  0.065036  0  0.994968  0  0  0.066545  0  0.991854  0  0  0.127712  0.063851  0  0.997281  0
H  H21  1  0.02381608  0.29812260  0.91127858  1  0  0.048761  0  0.935527  0  0  0.065036  0  0.994977  0  0  0.066521  0  0.99189  0  0  0.127696  0.063859  0  0.997288  0
H  H22  1  0.02381816  0.79812720  0.58872578  1  0  0.048681  0  0.935614  0  0  0.064939  0  0.995101  0  0  0.066448  0  0.991983  0  0  0.127621  0.063743  0  0.997428  0
H  H23  1  0.97616939  0.70185847  0.08871320  1  0  0.048589  0  0.935362  0  0  0.064836  0  0.994891  0  0  0.066388  0  0.991721  0  0  0.127614  0.063668  0  0.997173  0
H  H24  1  0.43044699  0.24446214  0.43661030  1  0  0.106167  0  0.961262  0  0  0.117746  0  1.019244  0  0  0.120579  0  1.01938  0  0  0.102257  0.115776  0  1.019287  0
H  H25  1  0.56952008  0.25553551  0.93661271  1  0  0.106151  0  0.961236  0  0  0.117747  0  1.019198  0  0  0.120577  0  1.019335  0  0  0.102263  0.11578  0  1.01923  0
H  H26  1  0.56952378  0.75554605  0.56338677  1  0  0.106201  0  0.961264  0  0  0.117801  0  1.019224  0  0  0.120633  0  1.019357  0  0  0.102269  0.11584  0  1.019257  0
H  H27  1  0.43042389  0.74443595  0.06338291  1  0  0.106193  0  0.961202  0  0  0.117804  0  1.019139  0  0  0.120637  0  1.019296  0  0  0.102309  0.115814  0  1.019182  0
H  H28  1  0.74524390  0.29055400  0.52503415  1  0  0.075776  0  0.947139  0  0  0.082872  0  1.013182  0  0  0.086011  0  1.009502  0  0  0.103214  0.080587  0  1.015801  0
H  H29  1  0.25475446  0.20945156  0.02504321  1  0  0.075713  0  0.947196  0  0  0.08285  0  1.013207  0  0  0.085987  0  1.009536  0  0  0.103208  0.080598  0  1.015799  0
H  H30  1  0.25477083  0.70946634  0.47495234  1  0  0.07549  0  0.947588  0  0  0.082578  0  1.01366  0  0  0.085714  0  1.00999  0  0  0.103149  0.080349  0  1.016235  0
H  H31  1  0.74520214  0.79052373  0.97495674  1  0  0.075438  0  0.947466  0  0  0.082513  0  1.0136  0  0  0.085656  0  1.009907  0  0  0.103159  0.080264  0  1.01617  0
H  H32  1  0.58871018  0.06655384  0.62442270  1  0  0.068648  0  0.967405  0  0  0.070696  0  1.046393  0  0  0.073851  0  1.042706  0  0  0.097218  0.068418  0  1.049031  0
H  H33  1  0.41130502  0.43345650  0.12442176  1  0  0.068718  0  0.96738  0  0  0.070737  0  1.046371  0  0  0.073888  0  1.042683  0  0  0.097224  0.06847  0  1.049003  0
H  H34  1  0.41134966  0.93347424  0.37557918  1  0  0.068641  0  0.967432  0  0  0.070671  0  1.04644  0  0  0.073826  0  1.042748  0  0  0.097134  0.068388  0  1.049082  0
H  H35  1  0.58866866  0.56652517  0.87557338  1  0  0.068647  0  0.967519  0  0  0.07062  0  1.046594  0  0  0.073773  0  1.042901  0  0  0.097164  0.068323  0  1.049256  0
H  H36  1  0.25156693  0.01276794  0.54189097  1  0  0.118355  0  0.968094  0  0  0.12396  0  1.034243  0  0  0.127736  0  1.033357  0  0  0.104393  0.121266  0  1.03506  0
H  H37  1  0.74843937  0.48723938  0.04188352  1  0  0.118321  0  0.967821  0  0  0.12396  0  1.033965  0  0  0.127739  0  1.033081  0  0  0.104405  0.121284  0  1.034767  0
H  H38  1  0.74846952  0.98725185  0.45812004  1  0  0.118394  0  0.967737  0  0  0.124036  0  1.033887  0  0  0.127826  0  1.032996  0  0  0.104414  0.121352  0  1.034692  0
H  H39  1  0.25151620  0.51274096  0.95810441  1  0  0.118484  0  0.967732  0  0  0.124127  0  1.033893  0  0  0.127915  0  1.033006  0  0  0.104478  0.121428  0  1.034719  0
H  H40  1  0.87954992  0.03744534  0.34235482  1  0  0.286456  0  0.914772  0  0  0.268431  0  0.982602  0  0  0.276625  0  0.976147  0  0  0.295181  0.262614  0  0.987244  0
H  H41  1  0.12045481  0.46256347  0.84235394  1  0  0.286576  0  0.91457  0  0  0.268383  0  0.982615  0  0  0.276575  0  0.976169  0  0  0.29514  0.262568  0  0.987251  0
H  H42  1  0.12046024  0.96257183  0.65765090  1  0  0.286802  0  0.914553  0  0  0.268661  0  0.98245  0  0  0.276859  0  0.975985  0  0  0.295226  0.262851  0  0.987086  0
H  H43  1  0.87951935  0.53742073  0.15764746  1  0  0.286797  0  0.914487  0  0  0.268614  0  0.982505  0  0  0.276814  0  0.976033  0  0  0.295139  0.262789  0  0.987157  0
C  C44  1  0.31823426  0.12574199  0.23623048  1  0  0.148501  0  3.737591  0  0  0.11467  0  3.995182  0  0  0.124936  0  4.011851  0  0  0.037392  0.108162  0  3.983631  0
C  C45  1  0.68177971  0.37426284  0.73622781  1  0  0.148653  0  3.737838  0  0  0.114888  0  3.995427  0  0  0.125131  0  4.012073  0  0  0.037412  0.10837  0  3.98387  0
C  C46  1  0.68178205  0.87426573  0.76377381  1  0  0.148418  0  3.737686  0  0  0.114655  0  3.995292  0  0  0.12489  0  4.011944  0  0  0.037376  0.108164  0  3.983745  0
C  C47  1  0.31822222  0.62574230  0.26377310  1  0  0.148664  0  3.737372  0  0  0.114878  0  3.994958  0  0  0.125127  0  4.011613  0  0  0.037383  0.108347  0  3.983453  0
C  C48  1  0.50083672  0.08793553  0.27447349  1  0  -0.211871  0  3.69554  0  0  -0.228841  0  3.948721  0  0  -0.239452  0  3.968212  0  0  -0.096572  -0.22203  0  3.935717  0
C  C49  1  0.49918883  0.41207149  0.77447041  1  0  -0.212055  0  3.695598  0  0  -0.229056  0  3.948852  0  0  -0.239659  0  3.968364  0  0  -0.096663  -0.22224  0  3.935842  0
C  C50  1  0.49918380  0.91207346  0.72553415  1  0  -0.211844  0  3.695324  0  0  -0.228887  0  3.94868  0  0  -0.239494  0  3.968198  0  0  -0.096595  -0.22206  0  3.935665  0
C  C51  1  0.50081365  0.58792607  0.22553050  1  0  -0.211923  0  3.695242  0  0  -0.228945  0  3.948485  0  0  -0.239545  0  3.967989  0  0  -0.096622  -0.222142  0  3.935516  0
C  C52  1  0.66901788  0.13865633  0.31482381  1  0  0.29457  0  3.79824  0  0  0.281444  0  4.048568  0  0  0.295333  0  4.068812  0  0  0.1145  0.27235  0  4.034596  0
C  C53  1  0.33101614  0.36134717  0.81482074  1  0  0.294731  0  3.797614  0  0  0.281551  0  4.048075  0  0  0.295442  0  4.068309  0  0  0.114643  0.272442  0  4.034127  0
C  C54  1  0.33100300  0.86135456  0.68518432  1  0  0.294856  0  3.797577  0  0  0.281588  0  4.048049  0  0  0.295477  0  4.068291  0  0  0.11464  0.272496  0  4.034066  0
C  C55  1  0.66898887  0.63864282  0.18517825  1  0  0.29482  0  3.79758  0  0  0.281674  0  4.047893  0  0  0.295563  0  4.068133  0  0  0.114692  0.272582  0  4.033906  0
C  C56  1  0.64329782  0.22631270  0.31452591  1  0  -0.240972  0  3.744713  0  0  -0.257713  0  4.001296  0  0  -0.269123  0  4.022485  0  0  -0.103033  -0.250399  0  3.987106  0
C  C57  1  0.35672628  0.27369077  0.81452468  1  0  -0.241091  0  3.74475  0  0  -0.257783  0  4.001378  0  0  -0.269187  0  4.022559  0  0  -0.103106  -0.250461  0  3.987202  0
C  C58  1  0.35669887  0.77369621  0.68548174  1  0  -0.241143  0  3.744658  0  0  -0.257859  0  4.001333  0  0  -0.269266  0  4.022518  0  0  -0.103209  -0.250554  0  3.987149  0
C  C59  1  0.64332043  0.72629937  0.18547575  1  0  -0.241183  0  3.744932  0  0  -0.257932  0  4.001531  0  0  -0.269341  0  4.022726  0  0  -0.103244  -0.250606  0  3.987315  0
C  C60  1  0.45130847  0.25827025  0.27531668  1  0  0.123394  0  3.777853  0  0  0.094562  0  4.031347  0  0  0.103422  0  4.049982  0  0  0.030692  0.088943  0  4.018525  0
C  C61  1  0.54870654  0.24173356  0.77531631  1  0  0.123247  0  3.778232  0  0  0.094436  0  4.031702  0  0  0.10329  0  4.050339  0  0  0.030647  0.088826  0  4.018863  0
C  C62  1  0.54867397  0.74173671  0.72469337  1  0  0.123195  0  3.778264  0  0  0.09437  0  4.031759  0  0  0.103239  0  4.050379  0  0  0.030607  0.088747  0  4.018937  0
C  C63  1  0.45135189  0.75826609  0.22468123  1  0  0.12361  0  3.77775  0  0  0.094826  0  4.031172  0  0  0.103677  0  4.049808  0  0  0.0309  0.089209  0  4.018343  0
C  C64  1  0.00109606  0.13499037  0.40118473  1  0  0.32263  0  3.776133  0  0  0.261777  0  4.056917  0  0  0.282965  0  4.065661  0  0  0.187168  0.247739  0  4.050385  0
C  C65  1  0.99888673  0.36501336  0.90118408  1  0  0.322728  0  3.776326  0  0  0.261851  0  4.057105  0  0  0.283056  0  4.065849  0  0  0.187248  0.247807  0  4.050566  0
C  C66  1  0.99889690  0.86501979  0.59882003  1  0  0.322845  0  3.776334  0  0  0.26185  0  4.057149  0  0  0.283039  0  4.065895  0  0  0.187175  0.247815  0  4.050613  0
C  C67  1  0.00107781  0.63496196  0.09881107  1  0  0.323161  0  3.776257  0  0  0.262238  0  4.057039  0  0  0.283404  0  4.06578  0  0  0.187332  0.248206  0  4.050489  0
C  C68  1  0.31582781  0.12350318  0.48205448  1  0  0.280724  0  3.836642  0  0  0.279915  0  4.081212  0  0  0.292519  0  4.100845  0  0  0.108421  0.271645  0  4.06776  0
C  C69  1  0.68416084  0.37649789  0.98204844  1  0  0.280759  0  3.837546  0  0  0.280221  0  4.08174  0  0  0.292827  0  4.101375  0  0  0.108529  0.271941  0  4.068259  0
C  C70  1  0.68417790  0.87651145  0.51795076  1  0  0.280385  0  3.837966  0  0  0.279846  0  4.082133  0  0  0.292454  0  4.10177  0  0  0.108496  0.271579  0  4.068649  0
C  C71  1  0.31578679  0.62348242  0.01793757  1  0  0.280248  0  3.837449  0  0  0.279817  0  4.081487  0  0  0.292426  0  4.101126  0  0  0.10835  0.271535  0  4.067982  0
C  C72  1  0.45589988  0.20344742  0.47788485  1  0  -0.234059  0  3.731076  0  0  -0.249319  0  3.97878  0  0  -0.260501  0  4.000811  0  0  -0.101842  -0.242089  0  3.963997  0
C  C73  1  0.54408622  0.29656063  0.97788277  1  0  -0.234104  0  3.731353  0  0  -0.249469  0  3.978989  0  0  -0.260647  0  4.001014  0  0  -0.101917  -0.242271  0  3.964194  0
C  C74  1  0.54409441  0.79656969  0.52211463  1  0  -0.23399  0  3.731165  0  0  -0.249345  0  3.978763  0  0  -0.260524  0  4.000792  0  0  -0.101818  -0.242117  0  3.964001  0
C  C75  1  0.45587471  0.70341657  0.02211142  1  0  -0.2339  0  3.731067  0  0  -0.249277  0  3.978602  0  0  -0.26048  0  4.000655  0  0  -0.101979  -0.242123  0  3.963791  0
C  C76  1  0.63303823  0.22906373  0.52642961  1  0  0.132309  0  3.764186  0  0  0.100538  0  4.018483  0  0  0.109766  0  4.036581  0  0  0.033461  0.094721  0  4.006055  0
C  C77  1  0.36696979  0.27094060  0.02643148  1  0  0.132341  0  3.764236  0  0  0.100546  0  4.018562  0  0  0.109772  0  4.036664  0  0  0.033365  0.094679  0  4.006131  0
C  C78  1  0.36698968  0.77095287  0.47356120  1  0  0.132556  0  3.764354  0  0  0.100725  0  4.018743  0  0  0.109953  0  4.036843  0  0  0.033261  0.094825  0  4.006364  0
C  C79  1  0.63298109  0.72903594  0.97356319  1  0  0.132743  0  3.764375  0  0  0.100895  0  4.018772  0  0  0.110128  0  4.036877  0  0  0.033323  0.094996  0  4.006293  0
C  C80  1  0.54345167  0.10412250  0.58242242  1  0  0.124681  0  3.75739  0  0  0.091855  0  4.016364  0  0  0.100881  0  4.033573  0  0  0.031525  0.085992  0  4.00461  0
C  C81  1  0.45656232  0.39588762  0.08242017  1  0  0.124435  0  3.757122  0  0  0.091668  0  4.016125  0  0  0.1007  0  4.033334  0  0  0.031458  0.085836  0  4.004406  0
C  C82  1  0.45659778  0.89590303  0.41757753  1  0  0.124733  0  3.756928  0  0  0.091888  0  4.015929  0  0  0.10092  0  4.033137  0  0  0.031595  0.086052  0  4.004187  0
C  C83  1  0.54339361  0.60409462  0.91757017  1  0  0.124834  0  3.756937  0  0  0.092025  0  4.015992  0  0  0.101061  0  4.033199  0  0  0.031563  0.086193  0  4.004309  0
C  C84  1  0.36083170  0.07403426  0.53667101  1  0  -0.194497  0  3.685293  0  0  -0.209869  0  3.933081  0  0  -0.219298  0  3.95192  0  0  -0.091283  -0.203872  0  3.920621  0
C  C85  1  0.63916769  0.42596741  0.03666066  1  0  -0.194344  0  3.685127  0  0  -0.209851  0  3.932845  0  0  -0.219292  0  3.951702  0  0  -0.091262  -0.203846  0  3.920376  0
C  C86  1  0.63919597  0.92598108  0.46333663  1  0  -0.194249  0  3.685137  0  0  -0.209758  0  3.932849  0  0  -0.219205  0  3.951702  0  0  -0.091253  -0.203749  0  3.920367  0
C  C87  1  0.36079698  0.57400854  0.96332871  1  0  -0.194453  0  3.684987  0  0  -0.21001  0  3.932641  0  0  -0.21946  0  3.951493  0  0  -0.091371  -0.204035  0  3.920216  0
Br  Br88  1  0.79418337  0.13686271  0.10586391  1  0  -0.434206  0  0.918085  0  0  -0.381715  0  1.170204  0  0  -0.400442  0  1.15402  0  0  -0.260107  -0.369166  0  1.18122  0
Br  Br89  1  0.20584654  0.36313966  0.60588168  1  0  -0.434213  0  0.918062  0  0  -0.381718  0  1.170177  0  0  -0.400446  0  1.153994  0  0  -0.260298  -0.36937  0  1.181242  0
Br  Br90  1  0.20585197  0.86311981  0.89413220  1  0  -0.434189  0  0.917897  0  0  -0.381692  0  1.169992  0  0  -0.400423  0  1.153812  0  0  -0.26015  -0.369188  0  1.181021  0
Br  Br91  1  0.79419900  0.63687574  0.39412453  1  0  -0.434175  0  0.917909  0  0  -0.381694  0  1.170008  0  0  -0.400418  0  1.153827  0  0  -0.260001  -0.369032  0  1.181002  0
Br  Br92  1  0.96580841  0.41081704  0.21908833  1  0  -0.453326  0  0.995116  0  0  -0.394389  0  1.285796  0  0  -0.412834  0  1.265741  0  0  -0.221738  -0.381597  0  1.299486  0
Br  Br93  1  0.03428437  0.08918318  0.71909377  1  0  -0.453314  0  0.995151  0  0  -0.394352  0  1.285736  0  0  -0.412796  0  1.26569  0  0  -0.221763  -0.38164  0  1.299434  0
Br  Br94  1  0.03408435  0.58916686  0.78091884  1  0  -0.453257  0  0.995364  0  0  -0.394306  0  1.286021  0  0  -0.412743  0  1.265966  0  0  -0.221688  -0.381505  0  1.299708  0
Br  Br95  1  0.96579618  0.91082856  0.28090570  1  0  -0.453227  0  0.995298  0  0  -0.394299  0  1.285977  0  0  -0.412741  0  1.26593  0  0  -0.221699  -0.381504  0  1.299649  0
N  N96  1  0.29100121  0.20947495  0.23677279  1  0  -0.322448  0  3.27139  0  0  -0.247371  0  3.540295  0  0  -0.269777  0  3.562345  0  0  -0.327713  -0.232218  0  3.524806  0
N  N97  1  0.70900156  0.29053362  0.73677628  1  0  -0.322432  0  3.271719  0  0  -0.247389  0  3.540643  0  0  -0.269791  0  3.562702  0  0  -0.32774  -0.232214  0  3.525117  0
N  N98  1  0.70898941  0.79053331  0.76323101  1  0  -0.322276  0  3.271568  0  0  -0.247205  0  3.54045  0  0  -0.269614  0  3.562517  0  0  -0.327636  -0.232049  0  3.524964  0
N  N99  1  0.29103484  0.70947543  0.26322271  1  0  -0.322773  0  3.271422  0  0  -0.247723  0  3.540341  0  0  -0.27013  0  3.562395  0  0  -0.327922  -0.232589  0  3.524876  0
N  N100  1  0.85243187  0.09990785  0.35228914  1  0  -0.368327  0  3.406792  0  0  -0.303247  0  3.639053  0  0  -0.326165  0  3.650312  0  0  -0.386611  -0.287493  0  3.63078  0
N  N101  1  0.14756808  0.40009768  0.85229094  1  0  -0.368402  0  3.406213  0  0  -0.303203  0  3.638716  0  0  -0.326126  0  3.649973  0  0  -0.386541  -0.287422  0  3.630426  0
N  N102  1  0.14756578  0.90010611  0.64771658  1  0  -0.368819  0  3.406736  0  0  -0.303435  0  3.638934  0  0  -0.326359  0  3.650194  0  0  -0.386536  -0.287693  0  3.630653  0
N  N103  1  0.85242803  0.59988722  0.14770901  1  0  -0.368868  0  3.40668  0  0  -0.303616  0  3.63901  0  0  -0.32655  0  3.650287  0  0  -0.386575  -0.287893  0  3.630749  0
N  N104  1  0.15046662  0.08857946  0.43441535  1  0  -0.416845  0  3.081022  0  0  -0.376301  0  3.358913  0  0  -0.396401  0  3.372023  0  0  -0.332713  -0.362427  0  3.349429  0
N  N105  1  0.84950188  0.41141505  0.93441227  1  0  -0.416854  0  3.081696  0  0  -0.376419  0  3.359561  0  0  -0.396514  0  3.372655  0  0  -0.332776  -0.362497  0  3.350038  0
N  N106  1  0.84952075  0.91143257  0.56559133  1  0  -0.416676  0  3.081291  0  0  -0.376219  0  3.359174  0  0  -0.396307  0  3.372261  0  0  -0.332651  -0.362335  0  3.349659  0
N  N107  1  0.15045797  0.58855646  0.06558191  1  0  -0.416808  0  3.08119  0  0  -0.376407  0  3.359084  0  0  -0.396472  0  3.37212  0  0  -0.332662  -0.362523  0  3.349576  0
N  N108  1  0.67940744  0.18002604  0.57733130  1  0  -0.316888  0  3.286134  0  0  -0.237412  0  3.551827  0  0  -0.260102  0  3.574584  0  0  -0.325416  -0.222094  0  3.535886  0
N  N109  1  0.32058969  0.31997838  0.07733587  1  0  -0.316811  0  3.285976  0  0  -0.237329  0  3.551614  0  0  -0.260015  0  3.574357  0  0  -0.32531  -0.222002  0  3.535726  0
N  N110  1  0.32062179  0.81999751  0.42266144  1  0  -0.317141  0  3.286098  0  0  -0.237496  0  3.551592  0  0  -0.260199  0  3.574359  0  0  -0.325376  -0.222216  0  3.535744  0
N  N111  1  0.67936727  0.67999881  0.92266264  1  0  -0.317238  0  3.286252  0  0  -0.237578  0  3.551742  0  0  -0.260282  0  3.574506  0  0  -0.32532  -0.222255  0  3.535865  0
