# generated using pymatgen
data_Zn4H24C40N4O21
_symmetry_space_group_name_H-M   'P 1'
_cell_length_a   23.87635422
_cell_length_b   23.87899021
_cell_length_c   23.87623383
_cell_angle_alpha   66.89667495
_cell_angle_beta   72.32169512
_cell_angle_gamma   107.68872954
_symmetry_Int_Tables_number   1
_chemical_formula_structural   Zn4H24C40N4O21
_chemical_formula_sum   'Zn8 H48 C80 N8 O42'
_cell_volume   10448.08428768
_cell_formula_units_Z   2
loop_
 _symmetry_equiv_pos_site_id
 _symmetry_equiv_pos_as_xyz
  1  'x, y, z'
loop_
 _atom_site_type_symbol
 _atom_site_label
 _atom_site_symmetry_multiplicity
 _atom_site_fract_x
 _atom_site_fract_y
 _atom_site_fract_z
 _atom_site_occupancy
 _atom_site_pbe_bader_charge
 _atom_site_pbe_bader_spin_density
 _atom_site_pbe_cm5_charge
 _atom_site_pbe_ddec_charge
 _atom_site_pbe_ddec_spin_density
 _atom_site_pbe_ddec_sum_bond_order
 _atom_site_pbe_magmom
Zn  Zn0  1  0.05598493  0.95656265  0.48792283  1  1.319931  0  0.681637  0.96139  0  2.37973  0
Zn  Zn1  1  0.05598434  0.09942045  0.45611199  1  1.318401  0  0.681674  0.961553  0  2.379584  0
Zn  Zn2  1  0.94401611  0.98792421  0.45655391  1  1.320133  0  0.68165  0.961353  0  2.379458  0
Zn  Zn3  1  0.94402745  0.95610438  0.59942603  1  1.318602  0  0.68169  0.961497  0  2.379349  0
Zn  Zn4  1  0.94446406  0.54388313  0.01208276  1  1.318777  0  0.681623  0.961325  0  2.379686  0
Zn  Zn5  1  0.05553460  0.51207647  0.04390248  1  1.318786  0  0.681581  0.961349  0  2.379354  0
Zn  Zn6  1  0.94446441  0.40057632  0.04344866  1  1.319222  0  0.681697  0.961466  0  2.37963  0
Zn  Zn7  1  0.05551759  0.54343493  0.90058048  1  1.319214  0  0.681623  0.961252  0  2.379836  0
H  H8  1  0.91907627  0.70992882  0.18048606  1  0.087015  0  0.115099  0.144014  0  0.978152  0
H  H9  1  0.08089140  0.68046410  0.20999407  1  0.087297  0  0.115085  0.143946  0  0.978387  0
H  H10  1  0.92757080  0.83030348  0.27955084  1  0.102838  0  0.114888  0.143587  0  0.977242  0
H  H11  1  0.07237902  0.77952112  0.33036979  1  0.102963  0  0.114823  0.143613  0  0.977038  0
H  H12  1  0.08090464  0.40040245  0.70914929  1  0.102153  0  0.115084  0.143897  0  0.978362  0
H  H13  1  0.91907790  0.20914722  0.90042700  1  0.101843  0  0.115094  0.144054  0  0.978329  0
H  H14  1  0.07238163  0.29285745  0.59727489  1  0.117183  0  0.114788  0.143538  0  0.977155  0
H  H15  1  0.92758408  0.09728152  0.79286273  1  0.117652  0  0.114944  0.143701  0  0.97718  0
H  H16  1  0.60986305  0.40272344  0.16967025  1  0.102628  0  0.114815  0.143522  0  0.977254  0
H  H17  1  0.60985356  0.20713396  0.22045267  1  0.114289  0  0.114852  0.143615  0  0.977113  0
H  H18  1  0.39043854  0.29085364  0.29003940  1  0.124048  0  0.115053  0.14391  0  0.978351  0
H  H19  1  0.39044479  0.09958589  0.31948205  1  0.082665  0  0.115098  0.144015  0  0.978272  0
H  H20  1  0.39014250  0.66964486  0.90272940  1  0.102603  0  0.114769  0.143523  0  0.977046  0
H  H21  1  0.39011931  0.72045125  0.70712843  1  0.114813  0  0.114773  0.143509  0  0.977094  0
H  H22  1  0.60957478  0.79002045  0.79086251  1  0.123701  0  0.115054  0.143887  0  0.978414  0
H  H23  1  0.60955778  0.81950808  0.59956631  1  0.082573  0  0.115074  0.143953  0  0.97836  0
H  H24  1  0.91992053  0.84507778  0.75034311  1  0.472045  0  0.291974  0.30024  0  1.003157  0
H  H25  1  0.91067791  0.80277562  0.83229706  1  0.429335  0  0.301754  0.290361  0  0.958508  0
H  H26  1  0.09538594  0.67021262  0.74966847  1  0.477517  0  0.291978  0.300425  0  1.003  0
H  H27  1  0.13507026  0.74293224  0.66773190  1  0.428118  0  0.301831  0.290285  0  0.958494  0
H  H28  1  0.90458472  0.65491084  0.92515700  1  0.477871  0  0.292067  0.300506  0  1.00282  0
H  H29  1  0.86492185  0.69720216  0.89210771  1  0.428864  0  0.30172  0.290253  0  0.958612  0
H  H30  1  0.08010534  0.82977910  0.57483575  1  0.473409  0  0.292041  0.300483  0  1.00286  0
H  H31  1  0.08935601  0.75707799  0.60786492  1  0.429658  0  0.301796  0.290327  0  0.958506  0
H  H32  1  0.91993906  0.07485722  0.32972961  1  0.473578  0  0.291965  0.300199  0  1.003311  0
H  H33  1  0.91067491  0.10789397  0.25702980  1  0.429362  0  0.301698  0.290349  0  0.958322  0
H  H34  1  0.09542008  0.42514424  0.15492715  1  0.478393  0  0.291962  0.300235  0  1.003261  0
H  H35  1  0.13507215  0.39209908  0.19724056  1  0.428745  0  0.301696  0.290345  0  0.958562  0
H  H36  1  0.90459762  0.24965829  0.17021210  1  0.477622  0  0.292006  0.3004  0  1.002943  0
H  H37  1  0.86493080  0.16772270  0.24292675  1  0.427936  0  0.301811  0.290322  0  0.958642  0
H  H38  1  0.08013002  0.25034086  0.34506906  1  0.471578  0  0.291979  0.30038  0  1.002972  0
H  H39  1  0.08934218  0.33227285  0.30281015  1  0.429994  0  0.301813  0.290319  0  0.958494  0
H  H40  1  0.91639440  0.62274558  0.09133038  1  0.633934  0  0.307501  0.354419  0  0.969277  0
H  H41  1  0.08362750  0.59135826  0.12275687  1  0.634673  0  0.30748  0.354619  0  0.969226  0
H  H42  1  0.92416007  0.91831416  0.36802694  1  0.627671  0  0.306374  0.352343  0  0.972055  0
H  H43  1  0.07578078  0.86799727  0.41838092  1  0.626502  0  0.306227  0.352278  0  0.971751  0
H  H44  1  0.08362948  0.49224438  0.79365353  1  0.636939  0  0.3075  0.354453  0  0.969538  0
H  H45  1  0.91640203  0.29366470  0.99225416  1  0.636761  0  0.307453  0.354391  0  0.969392  0
H  H46  1  0.07579336  0.20777821  0.50586410  1  0.62968  0  0.306274  0.35222  0  0.971884  0
H  H47  1  0.92418180  0.00586865  0.70778404  1  0.629996  0  0.306436  0.352473  0  0.971885  0
H  H48  1  0.78635211  0.49411832  0.08167162  1  0.627461  0  0.306323  0.355151  0  0.967349  0
H  H49  1  0.78633595  0.29218159  0.13198948  1  0.635776  0  0.306337  0.352337  0  0.97206  0
H  H50  1  0.21409703  0.20635287  0.37726946  1  0.639213  0  0.30752  0.357654  0  0.964384  0
H  H51  1  0.21409805  0.00775611  0.40861743  1  0.636241  0  0.307507  0.354793  0  0.96967  0
H  H52  1  0.21365539  0.58164645  0.99412892  1  0.627672  0  0.306279  0.352602  0  0.972225  0
H  H53  1  0.21364034  0.63198962  0.79217886  1  0.635787  0  0.306331  0.352284  0  0.97201  0
H  H54  1  0.78591144  0.87723691  0.70637419  1  0.637961  0  0.30756  0.357719  0  0.964262  0
H  H55  1  0.78589847  0.90865087  0.50774108  1  0.636469  0  0.307516  0.357598  0  0.964412  0
C  C56  1  0.18378118  0.09189507  0.40809419  1  1.387003  0  0.220619  0.625964  0  4.135878  0
C  C57  1  0.00000465  0.13960990  0.36040393  1  1.473932  0  0.223631  0.629197  0  4.101147  0
C  C58  1  0.99997070  0.90822857  0.40827644  1  1.362044  0  0.218905  0.624342  0  4.133811  0
C  C59  1  0.81622248  0.90809770  0.59189702  1  1.38753  0  0.22044  0.625644  0  4.135912  0
C  C60  1  0.00000949  0.86040254  0.63960474  1  1.473304  0  0.22344  0.628863  0  4.101722  0
C  C61  1  0.99998262  0.09175262  0.59175185  1  1.386374  0  0.219259  0.625196  0  4.133843  0
C  C62  1  0.00000026  0.59187365  0.09189914  1  1.399911  0  0.220365  0.625529  0  4.135362  0
C  C63  1  0.99999251  0.36038929  0.13961036  1  1.474823  0  0.223559  0.628918  0  4.101667  0
C  C64  1  0.81648795  0.40822367  0.09176643  1  1.353743  0  0.219107  0.625009  0  4.134373  0
C  C65  1  0.00001861  0.40810972  0.90811326  1  1.404141  0  0.22042  0.625531  0  4.136164  0
C  C66  1  0.99999986  0.63959617  0.86039417  1  1.475383  0  0.22337  0.62872  0  4.101848  0
C  C67  1  0.18350115  0.59175559  0.90823284  1  1.353492  0  0.218904  0.624428  0  4.134331  0
C  C68  1  0.00000828  0.80460824  0.69539708  1  0.021117  0  -0.038797  -0.251348  0  3.944068  0
C  C69  1  0.99999731  0.69538722  0.80460256  1  0.038669  0  -0.038773  -0.251306  0  3.943923  0
C  C70  1  0.95753866  0.77805401  0.76679025  1  0.383512  0  0.081944  0.176316  0  4.048262  0
C  C71  1  0.04484242  0.72431344  0.73320901  1  0.446846  0  0.081926  0.17627  0  4.048019  0
C  C72  1  0.95515468  0.72193810  0.82051984  1  0.446239  0  0.081896  0.176234  0  4.048271  0
C  C73  1  0.04247558  0.77568231  0.67947736  1  0.429969  0  0.081938  0.176353  0  4.048064  0
C  C74  1  0.00000287  0.19539912  0.30460946  1  0.020467  0  -0.038848  -0.251488  0  3.944052  0
C  C75  1  0.99999562  0.30460138  0.19540098  1  0.03897  0  -0.03888  -0.251224  0  3.943972  0
C  C76  1  0.95753566  0.17948399  0.27567407  1  0.429382  0  0.082036  0.176518  0  4.047904  0
C  C77  1  0.04484334  0.32051367  0.22195749  1  0.391362  0  0.082007  0.176351  0  4.04783  0
C  C78  1  0.95515335  0.23320944  0.22431661  1  0.447049  0  0.082072  0.176372  0  4.048044  0
C  C79  1  0.04247523  0.26678828  0.27806480  1  0.439473  0  0.081981  0.176313  0  4.048181  0
C  C80  1  0.99999854  0.62828659  0.12830844  1  0.090753  0  -0.057164  -0.345182  0  3.961038  0
C  C81  1  0.95422482  0.65535405  0.13840510  1  0.480984  0  0.096746  0.350617  0  4.075256  0
C  C82  1  0.95444314  0.69014714  0.17347097  1  0.069974  0  -0.109715  -0.290487  0  3.914289  0
C  C83  1  0.99998238  0.69922985  0.19927998  1  0.070664  0  0.012473  0.199172  0  4.159695  0
C  C84  1  0.04552611  0.67343707  0.19020261  1  0.070285  0  -0.109745  -0.290584  0  3.914501  0
C  C85  1  0.04577060  0.63839592  0.15538827  1  0.481513  0  0.096577  0.3506  0  4.075079  0
C  C86  1  0.99997274  0.73473452  0.23480147  1  -0.243673  0  -0.031053  -0.087897  0  4.0701  0
C  C87  1  0.99996661  0.76535355  0.26542665  1  -0.044633  0  -0.03086  -0.08898  0  4.069812  0
C  C88  1  0.99996689  0.80086998  0.30093705  1  0.021691  0  0.013886  0.20245  0  4.156502  0
C  C89  1  0.95914481  0.83260714  0.30409046  1  0.072081  0  -0.109583  -0.29065  0  3.912925  0
C  C90  1  0.95877790  0.86748297  0.33905266  1  0.515803  0  0.096176  0.350451  0  4.073888  0
C  C91  1  0.99996312  0.87181312  0.37187975  1  0.053996  0  -0.057507  -0.346339  0  3.961457  0
C  C92  1  0.04115747  0.83900048  0.36755658  1  0.507179  0  0.096228  0.350608  0  4.073236  0
C  C93  1  0.04079591  0.80404057  0.33267855  1  0.070894  0  -0.10961  -0.290934  0  3.912604  0
C  C94  1  0.00001235  0.37169557  0.87170685  1  0.081064  0  -0.05704  -0.345073  0  3.961131  0
C  C95  1  0.04578158  0.40735638  0.79886512  1  0.496947  0  0.096545  0.350404  0  4.075113  0
C  C96  1  0.04554733  0.37206625  0.76430059  1  0.054557  0  -0.109601  -0.290323  0  3.914715  0
C  C97  1  0.99999528  0.30074043  0.80075341  1  0.072908  0  0.012486  0.199137  0  4.160177  0
C  C98  1  0.95445806  0.26428487  0.87209195  1  0.054344  0  -0.109702  -0.290602  0  3.914623  0
C  C99  1  0.95423568  0.29886175  0.90737148  1  0.4975  0  0.096583  0.35052  0  4.075361  0
C  C100  1  0.99998817  0.26522807  0.76524097  1  -0.243982  0  -0.030957  -0.087677  0  4.070734  0
C  C101  1  0.99998703  0.23461029  0.73461550  1  -0.046211  0  -0.031007  -0.089392  0  4.07048  0
C  C102  1  0.99998026  0.19910036  0.69909864  1  0.074401  0  0.013895  0.20251  0  4.15662  0
C  C103  1  0.04080086  0.23675744  0.62653979  1  0.02943  0  -0.10951  -0.290655  0  3.912389  0
C  C104  1  0.04116550  0.20216170  0.59129664  1  0.521615  0  0.096182  0.350696  0  4.072864  0
C  C105  1  0.99997250  0.12815819  0.62815989  1  0.045169  0  -0.057588  -0.346932  0  3.961691  0
C  C106  1  0.95878570  0.09130350  0.70216032  1  0.521643  0  0.096173  0.350521  0  4.073484  0
C  C107  1  0.95915230  0.12654457  0.73675769  1  0.028486  0  -0.109604  -0.29076  0  3.912906  0
C  C108  1  0.74367498  0.37182330  0.12816849  1  0.073282  0  -0.057661  -0.346862  0  3.96185  0
C  C109  1  0.70653586  0.40869032  0.13249303  1  0.541176  0  0.096182  0.350547  0  4.073385  0
C  C110  1  0.63669816  0.37345560  0.16736036  1  0.072522  0  -0.109495  -0.290557  0  3.912487  0
C  C111  1  0.60179701  0.30089892  0.19909052  1  0.063494  0  0.013987  0.202724  0  4.156343  0
C  C112  1  0.63669242  0.26323371  0.19593727  1  0.024342  0  -0.109532  -0.290718  0  3.912751  0
C  C113  1  0.70653102  0.29782236  0.16097906  1  0.504078  0  0.0961  0.350402  0  4.074016  0
C  C114  1  0.53077311  0.26539165  0.23458581  1  -0.019732  0  -0.031271  -0.089677  0  4.070412  0
C  C115  1  0.46953084  0.23476543  0.26521230  1  -0.325597  0  -0.030766  -0.087548  0  4.07017  0
C  C116  1  0.39850740  0.19925293  0.30072165  1  0.044983  0  0.012488  0.19942  0  4.159471  0
C  C117  1  0.36363027  0.23571253  0.30980706  1  0.083595  0  -0.109515  -0.290404  0  3.914268  0
C  C118  1  0.29377395  0.20114022  0.34461678  1  0.436944  0  0.096518  0.350506  0  4.075709  0
C  C119  1  0.25660019  0.12830457  0.37167959  1  0.082353  0  -0.05709  -0.3452  0  3.960937  0
C  C120  1  0.29377875  0.09264134  0.36156528  1  0.49618  0  0.096575  0.350378  0  4.075082  0
C  C121  1  0.36363283  0.12792589  0.32650331  1  0.132879  0  -0.109748  -0.290571  0  3.914499  0
C  C122  1  0.25631503  0.62815114  0.87182905  1  0.07419  0  -0.057702  -0.346606  0  3.961465  0
C  C123  1  0.29346813  0.63247201  0.90869409  1  0.540773  0  0.0962  0.350705  0  4.072506  0
C  C124  1  0.36330355  0.66734087  0.87345809  1  0.072573  0  -0.109496  -0.290638  0  3.912403  0
C  C125  1  0.39819761  0.69907493  0.80089748  1  0.062911  0  0.013921  0.202284  0  4.156593  0
C  C126  1  0.36329019  0.69592508  0.76323428  1  0.02464  0  -0.109439  -0.290524  0  3.912659  0
C  C127  1  0.29345265  0.66096769  0.79782563  1  0.503607  0  0.096336  0.350679  0  4.073966  0
C  C128  1  0.46922670  0.73457902  0.76538260  1  -0.01973  0  -0.031161  -0.089192  0  4.070261  0
C  C129  1  0.53046288  0.76520282  0.73476645  1  -0.325666  0  -0.030956  -0.087936  0  4.070046  0
C  C130  1  0.60149364  0.80072107  0.69925219  1  0.045963  0  0.012624  0.199576  0  4.159015  0
C  C131  1  0.63637709  0.80980034  0.73571391  1  0.083343  0  -0.109721  -0.290585  0  3.914349  0
C  C132  1  0.70623304  0.84461085  0.70114637  1  0.437171  0  0.096591  0.350759  0  4.075637  0
C  C133  1  0.74340400  0.87168663  0.62830370  1  0.083248  0  -0.057109  -0.345119  0  3.961083  0
C  C134  1  0.70622237  0.86158557  0.59263202  1  0.495932  0  0.096657  0.350436  0  4.075703  0
C  C135  1  0.63636721  0.82652390  0.62791267  1  0.132645  0  -0.10969  -0.290496  0  3.914408  0
N  N136  1  0.91439582  0.80190851  0.78905252  1  -1.212723  0  -0.608097  -0.612224  0  3.332591  0
N  N137  1  0.09094036  0.70340929  0.71095287  1  -1.225867  0  -0.608301  -0.612422  0  3.33251  0
N  N138  1  0.90903816  0.69807615  0.88751918  1  -1.220713  0  -0.608101  -0.612305  0  3.332434  0
N  N139  1  0.08563724  0.79659364  0.61247318  1  -1.229923  0  -0.608271  -0.612517  0  3.33226  0
N  N140  1  0.91439332  0.11248699  0.29655556  1  -1.229357  0  -0.608101  -0.612303  0  3.332444  0
N  N141  1  0.09095794  0.38751230  0.19810387  1  -1.221254  0  -0.608149  -0.61236  0  3.3327  0
N  N142  1  0.90905196  0.21095279  0.20341010  1  -1.225837  0  -0.6083  -0.612491  0  3.332823  0
N  N143  1  0.08563545  0.28904625  0.30191151  1  -1.212815  0  -0.608244  -0.612402  0  3.332757  0
O  O144  1  0.00000457  0.00000564  0.50000389  1  -1.232406  0  -0.575481  -1.017454  0  2.579092  0
O  O145  1  0.15217158  0.02599152  0.43197955  1  -1.190087  0  -0.315629  -0.560506  0  2.373171  0
O  O146  1  0.04072930  0.15571323  0.38370844  1  -1.181735  0  -0.31941  -0.560466  0  2.38575  0
O  O147  1  0.96096032  0.93594064  0.41215839  1  -1.171691  0  -0.315791  -0.560737  0  2.373555  0
O  O148  1  0.15217292  0.12618757  0.41583181  1  -1.184146  0  -0.31562  -0.561627  0  2.372994  0
O  O149  1  0.03898441  0.91212350  0.43598871  1  -1.173069  0  -0.315765  -0.560865  0  2.373965  0
O  O150  1  0.95928077  0.07559081  0.38502140  1  -1.183902  0  -0.319294  -0.560207  0  2.385547  0
O  O151  1  0.84782846  0.93200853  0.52598506  1  -1.190679  0  -0.315533  -0.561544  0  2.372673  0
O  O152  1  0.95928811  0.88370299  0.65571149  1  -1.181231  0  -0.319297  -0.560166  0  2.385742  0
O  O153  1  0.84783287  0.91580063  0.62620634  1  -1.18461  0  -0.315634  -0.561614  0  2.372779  0
O  O154  1  0.04072755  0.88502454  0.57558188  1  -1.183575  0  -0.319219  -0.560224  0  2.385894  0
O  O155  1  0.03899901  0.12686350  0.52504058  1  -1.184408  0  -0.315719  -0.560899  0  2.374081  0
O  O156  1  0.96097291  0.02503652  0.62687041  1  -1.184585  0  -0.315938  -0.561182  0  2.373693  0
O  O157  1  0.99999473  0.49999203  0.00000282  1  -1.232028  0  -0.575486  -1.017512  0  2.579284  0
O  O158  1  0.95798854  0.58416547  0.06799194  1  -1.188071  0  -0.315501  -0.560145  0  2.373244  0
O  O159  1  0.03939688  0.42440900  0.11631054  1  -1.180707  0  -0.319239  -0.560217  0  2.385683  0
O  O160  1  0.84808514  0.37310641  0.08787564  1  -1.17354  0  -0.315725  -0.560874  0  2.373887  0
O  O161  1  0.04201760  0.56798061  0.08419082  1  -1.186189  0  -0.315505  -0.56019  0  2.3728  0
O  O162  1  0.84809078  0.47494043  0.06406054  1  -1.174033  0  -0.315821  -0.562302  0  2.373609  0
O  O163  1  0.96058103  0.34428409  0.11499333  1  -1.185256  0  -0.319401  -0.56032  0  2.385882  0
O  O164  1  0.95798831  0.37382030  0.97401505  1  -1.190387  0  -0.315487  -0.560205  0  2.373196  0
O  O165  1  0.03940147  0.61497620  0.84429491  1  -1.184954  0  -0.319258  -0.560166  0  2.386096  0
O  O166  1  0.04203823  0.47401180  0.87381459  1  -1.189455  0  -0.315492  -0.560091  0  2.373543  0
O  O167  1  0.96059705  0.61629790  0.92441655  1  -1.180722  0  -0.31924  -0.560157  0  2.38582  0
O  O168  1  0.15190576  0.56403670  0.97495735  1  -1.173974  0  -0.315784  -0.560983  0  2.373743  0
O  O169  1  0.15189842  0.58788417  0.87310919  1  -1.173748  0  -0.315476  -0.560528  0  2.374048  0
O  O170  1  0.90947974  0.64837315  0.11477670  1  -1.132616  0  -0.353559  -0.43661  0  2.244256  0
O  O171  1  0.09053036  0.61479337  0.14839624  1  -1.133261  0  -0.353275  -0.436644  0  2.244053  0
O  O172  1  0.91853161  0.89678964  0.34050001  1  -1.138559  0  -0.355566  -0.43835  0  2.240019  0
O  O173  1  0.08140456  0.84046302  0.39686958  1  -1.136609  0  -0.355436  -0.438274  0  2.239018  0
O  O174  1  0.09053421  0.47571387  0.76110980  1  -1.14599  0  -0.353437  -0.436466  0  2.244261  0
O  O175  1  0.90949004  0.26111195  0.97573321  1  -1.146142  0  -0.353504  -0.436568  0  2.244142  0
O  O176  1  0.08141032  0.24094151  0.52174693  1  -1.143484  0  -0.355484  -0.438253  0  2.239017  0
O  O177  1  0.91854582  0.02175450  0.74094500  1  -1.143546  0  -0.355696  -0.438432  0  2.239395  0
O  O178  1  0.73730797  0.47823920  0.10318180  1  -1.143424  0  -0.355607  -0.440161  0  2.235765  0
O  O179  1  0.73728856  0.25903136  0.15952445  1  -1.149841  0  -0.355395  -0.438116  0  2.240087  0
O  O180  1  0.26317226  0.23889578  0.35162217  1  -1.143535  0  -0.353436  -0.438588  0  2.240993  0
O  O181  1  0.26317120  0.02428112  0.38517877  1  -1.133501  0  -0.35341  -0.436811  0  2.244305  0
O  O182  1  0.26270103  0.60315613  0.97825029  1  -1.143462  0  -0.355589  -0.438806  0  2.23886  0
O  O183  1  0.26268797  0.65951677  0.75903063  1  -1.149803  0  -0.355594  -0.438339  0  2.240062  0
O  O184  1  0.73683776  0.85160229  0.73891084  1  -1.142825  0  -0.353427  -0.438748  0  2.241034  0
O  O185  1  0.73682467  0.88521270  0.52426438  1  -1.134037  0  -0.353501  -0.438556  0  2.240944  0
