# generated using pymatgen
data_ZnH17C29N3O5
_symmetry_space_group_name_H-M   'P 1'
_cell_length_a   9.50262568
_cell_length_b   17.56500968
_cell_length_c   17.71606950
_cell_angle_alpha   90.00046636
_cell_angle_beta   89.99926254
_cell_angle_gamma   91.84191710
_symmetry_Int_Tables_number   1
_chemical_formula_structural   ZnH17C29N3O5
_chemical_formula_sum   'Zn4 H68 C116 N12 O20'
_cell_volume   2955.52705191
_cell_formula_units_Z   4
loop_
 _symmetry_equiv_pos_site_id
 _symmetry_equiv_pos_as_xyz
  1  'x, y, z'
loop_
 _atom_site_type_symbol
 _atom_site_label
 _atom_site_symmetry_multiplicity
 _atom_site_fract_x
 _atom_site_fract_y
 _atom_site_fract_z
 _atom_site_occupancy
 _atom_site_pbe_bader_charge
 _atom_site_pbe_bader_spin_density
 _atom_site_pbe_cm5_charge
 _atom_site_pbe_ddec_charge
 _atom_site_pbe_ddec_spin_density
 _atom_site_pbe_ddec_sum_bond_order
 _atom_site_pbe_magmom
Zn  Zn0  1  0.33418088  0.98880541  0.32989431  1  1.24798  0  0.698121  0.764053  0  2.400314  0
Zn  Zn1  1  0.66583016  0.51118632  0.82989380  1  1.248178  0  0.698057  0.763956  0  2.400382  0
Zn  Zn2  1  0.66580954  0.01119478  0.67010691  1  1.248062  0  0.698152  0.764074  0  2.400228  0
Zn  Zn3  1  0.33418633  0.48880883  0.17010967  1  1.248068  0  0.698155  0.764004  0  2.400309  0
H  H4  1  0.12334586  0.86326409  0.30738953  1  0.097052  0  0.122118  0.094647  0  0.985654  0
H  H5  1  0.87666149  0.63672688  0.80739480  1  0.108604  0  0.122135  0.09467  0  0.985747  0
H  H6  1  0.87666875  0.13673561  0.69260660  1  0.108651  0  0.122128  0.094694  0  0.985659  0
H  H7  1  0.12332241  0.36326872  0.19261036  1  0.108445  0  0.122144  0.094802  0  0.985618  0
H  H8  1  0.09440549  0.72571835  0.33899202  1  0.090029  0  0.110553  0.118378  0  1.014246  0
H  H9  1  0.90561055  0.77427232  0.83899877  1  0.089495  0  0.11053  0.118249  0  1.01405  0
H  H10  1  0.90560898  0.27427850  0.66099395  1  0.08943  0  0.110601  0.118339  0  1.014288  0
H  H11  1  0.09439429  0.22572108  0.16100752  1  0.089949  0  0.110498  0.118287  0  1.01429  0
H  H12  1  0.46994109  0.74983551  0.47529759  1  0.094902  0  0.11306  0.120399  0  1.006972  0
H  H13  1  0.53006434  0.75015621  0.97530841  1  0.094696  0  0.113062  0.120386  0  1.006814  0
H  H14  1  0.53006140  0.25015276  0.52469741  1  0.0949  0  0.113022  0.12043  0  1.007011  0
H  H15  1  0.46993445  0.24984287  0.02470183  1  0.094895  0  0.11307  0.120445  0  1.00699  0
H  H16  1  0.49309421  0.88562666  0.43054829  1  0.157849  0  0.12596  0.109917  0  0.988861  0
H  H17  1  0.50691336  0.61436528  0.93055648  1  0.157749  0  0.125889  0.109753  0  0.989088  0
H  H18  1  0.50691586  0.11436619  0.56945348  1  0.15774  0  0.125949  0.10994  0  0.9889  0
H  H19  1  0.49307390  0.38563489  0.06944586  1  0.157552  0  0.12591  0.1099  0  0.98885  0
H  H20  1  0.11906258  0.60757656  0.35287772  1  0.077092  0  0.106048  0.118651  0  1.046567  0
H  H21  1  0.88093834  0.89241303  0.85287769  1  0.076996  0  0.106008  0.11861  0  1.046606  0
H  H22  1  0.88093186  0.39241965  0.64712123  1  0.077114  0  0.106034  0.118625  0  1.046552  0
H  H23  1  0.11905805  0.10757977  0.14712352  1  0.077009  0  0.106016  0.118598  0  1.04661  0
H  H24  1  0.23736315  0.44826297  0.52538898  1  0.074824  0  0.104563  0.108325  0  1.032584  0
H  H25  1  0.76262008  0.05173319  0.02538472  1  0.074963  0  0.104547  0.108252  0  1.032667  0
H  H26  1  0.76263861  0.55173213  0.47460941  1  0.074886  0  0.104604  0.108376  0  1.032623  0
H  H27  1  0.23736840  0.94827040  0.97460802  1  0.074924  0  0.104604  0.108386  0  1.032631  0
H  H28  1  0.48273908  0.66485749  0.60676542  1  0.110269  0  0.112842  0.119851  0  1.015081  0
H  H29  1  0.51726678  0.83513303  0.10676795  1  0.11041  0  0.112817  0.119816  0  1.01509  0
H  H30  1  0.51726379  0.33513875  0.39323749  1  0.110255  0  0.112811  0.119783  0  1.01505  0
H  H31  1  0.48273514  0.16486549  0.89323213  1  0.11016  0  0.112806  0.11984  0  1.015122  0
H  H32  1  0.62800495  0.64328909  0.72174124  1  0.11153  0  0.119687  0.08592  0  0.99563  0
H  H33  1  0.37198228  0.85669999  0.22173986  1  0.111812  0  0.119689  0.085901  0  0.995603  0
H  H34  1  0.37199670  0.35670373  0.27826166  1  0.111376  0  0.119704  0.085958  0  0.995607  0
H  H35  1  0.62801840  0.14329454  0.77826022  1  0.111582  0  0.119704  0.085935  0  0.995676  0
H  H36  1  0.55550010  0.40984867  0.71040282  1  0.130405  0  0.123541  0.100459  0  0.988701  0
H  H37  1  0.44446465  0.09014033  0.21039766  1  0.130204  0  0.123547  0.100458  0  0.9888  0
H  H38  1  0.44448998  0.59014411  0.28960122  1  0.130422  0  0.123519  0.10041  0  0.988768  0
H  H39  1  0.55552759  0.90985359  0.78960750  1  0.130465  0  0.123505  0.10041  0  0.988786  0
H  H40  1  0.40504443  0.42153854  0.59612916  1  0.069784  0  0.110247  0.118162  0  0.994397  0
H  H41  1  0.59492851  0.07845415  0.09612627  1  0.07016  0  0.110223  0.118204  0  0.99424  0
H  H42  1  0.59494265  0.57845764  0.40387487  1  0.06997  0  0.110243  0.118178  0  0.994374  0
H  H43  1  0.40507242  0.92154550  0.90388172  1  0.070083  0  0.110204  0.118199  0  0.994304  0
H  H44  1  0.11494429  0.37192947  0.48385730  1  0.061477  0  0.101508  0.099672  0  1.009401  0
H  H45  1  0.88505411  0.12806522  0.98386076  1  0.061834  0  0.1015  0.099703  0  1.009326  0
H  H46  1  0.88504192  0.62807069  0.51613996  1  0.061255  0  0.101502  0.099662  0  1.009351  0
H  H47  1  0.11497289  0.87192939  0.01614327  1  0.061666  0  0.101505  0.099671  0  1.009292  0
H  H48  1  0.95127188  0.27502059  0.43428381  1  0.087018  0  0.109546  0.127792  0  0.990525  0
H  H49  1  0.04871631  0.22497767  0.93428473  1  0.086977  0  0.109548  0.127783  0  0.990443  0
H  H50  1  0.04871355  0.72498527  0.56570668  1  0.086856  0  0.109533  0.127713  0  0.990364  0
H  H51  1  0.95129282  0.77501745  0.06570915  1  0.086963  0  0.109532  0.127726  0  0.990386  0
H  H52  1  0.81306854  0.43112583  0.26399093  1  0.131325  0  0.110851  0.136735  0  1.008538  0
H  H53  1  0.18691549  0.06887563  0.76398287  1  0.131335  0  0.110829  0.13677  0  1.008481  0
H  H54  1  0.18694002  0.56887955  0.73599448  1  0.131339  0  0.110803  0.136619  0  1.008754  0
H  H55  1  0.81305715  0.93112677  0.23599689  1  0.131692  0  0.110844  0.136743  0  1.008674  0
H  H56  1  0.97649993  0.53023246  0.31446810  1  0.088004  0  0.100409  0.098121  0  1.037255  0
H  H57  1  0.02347928  0.96976814  0.81445875  1  0.088076  0  0.100385  0.098128  0  1.037282  0
H  H58  1  0.02352104  0.46976840  0.68552182  1  0.087757  0  0.100389  0.09814  0  1.037228  0
H  H59  1  0.97648809  0.03023423  0.18552552  1  0.087766  0  0.100382  0.098108  0  1.037366  0
H  H60  1  0.59123868  0.18543166  0.34631144  1  0.109367  0  0.11214  0.136742  0  0.990571  0
H  H61  1  0.40877463  0.31456315  0.84628917  1  0.108925  0  0.112113  0.136699  0  0.990523  0
H  H62  1  0.40876340  0.81459249  0.65368300  1  0.109205  0  0.11215  0.136711  0  0.990643  0
H  H63  1  0.59123151  0.68541317  0.15369285  1  0.109327  0  0.1121  0.136655  0  0.990894  0
H  H64  1  0.88250417  0.00281514  0.34543705  1  0.123553  0  0.107984  0.119978  0  1.010953  0
H  H65  1  0.11753274  0.49718885  0.84544929  1  0.123603  0  0.108032  0.120023  0  1.010927  0
H  H66  1  0.11745927  0.99719291  0.65457206  1  0.122977  0  0.108041  0.120114  0  1.010774  0
H  H67  1  0.88253158  0.50281615  0.15459482  1  0.123321  0  0.108045  0.120049  0  1.011105  0
H  H68  1  0.03190095  0.23083983  0.29603601  1  0.076534  0  0.106103  0.121095  0  1.020743  0
H  H69  1  0.96809957  0.26917048  0.79604004  1  0.076791  0  0.106064  0.121073  0  1.020909  0
H  H70  1  0.96810721  0.76915700  0.70395617  1  0.076511  0  0.106091  0.121101  0  1.020854  0
H  H71  1  0.03188691  0.73085759  0.20396061  1  0.075946  0  0.106066  0.121095  0  1.020769  0
C  C72  1  0.19937145  0.83525510  0.34337795  1  0.440604  0  0.049835  0.087728  0  3.943316  0
C  C73  1  0.80064238  0.66473560  0.84338228  1  0.428529  0  0.049787  0.087744  0  3.943028  0
C  C74  1  0.80064305  0.16474232  0.65661705  1  0.428895  0  0.049724  0.087545  0  3.94315  0
C  C75  1  0.19934677  0.33526002  0.15662176  1  0.42902  0  0.049692  0.087559  0  3.943052  0
C  C76  1  0.18293469  0.75877067  0.36225999  1  0.00165  0  -0.075884  -0.154122  0  3.93071  0
C  C77  1  0.81706922  0.74122015  0.86226539  1  0.002448  0  -0.075797  -0.153881  0  3.930328  0
C  C78  1  0.81707668  0.24122731  0.63773388  1  0.00232  0  -0.075846  -0.153991  0  3.930474  0
C  C79  1  0.18292717  0.25877265  0.13774203  1  0.001528  0  -0.075854  -0.154144  0  3.930603  0
C  C80  1  0.28083922  0.72596100  0.41078270  1  0.061579  0  0.019899  0.093923  0  3.936944  0
C  C81  1  0.71916877  0.77402964  0.91078847  1  0.061764  0  0.01986  0.093869  0  3.937013  0
C  C82  1  0.71916572  0.27403467  0.58921061  1  0.061063  0  0.019894  0.094031  0  3.936858  0
C  C83  1  0.28082776  0.22596601  0.08921726  1  0.061972  0  0.019972  0.09408  0  3.937059  0
C  C84  1  0.39278732  0.77292107  0.43695253  1  -0.027917  0  -0.074697  -0.151623  0  3.924931  0
C  C85  1  0.60722426  0.72706979  0.93695756  1  -0.027704  0  -0.074681  -0.15168  0  3.92507  0
C  C86  1  0.60721760  0.22707404  0.56304190  1  -0.027308  0  -0.074683  -0.151745  0  3.925053  0
C  C87  1  0.39277335  0.27292643  0.06304648  1  -0.027883  0  -0.074761  -0.151774  0  3.925246  0
C  C88  1  0.40462611  0.84828172  0.41394149  1  0.453552  0  0.057848  0.105784  0  3.919213  0
C  C89  1  0.59537660  0.65171007  0.91394768  1  0.453558  0  0.057885  0.106103  0  3.919449  0
C  C90  1  0.59538296  0.15171226  0.58605916  1  0.453832  0  0.057833  0.105719  0  3.919415  0
C  C91  1  0.40460849  0.34828838  0.08605749  1  0.454106  0  0.057804  0.10575  0  3.919285  0
C  C92  1  0.26761140  0.64592716  0.43723581  1  0.521958  0  0.119358  0.197912  0  4.033764  0
C  C93  1  0.73239507  0.85406711  0.93723931  1  0.521616  0  0.119478  0.197906  0  4.034008  0
C  C94  1  0.73238405  0.35406792  0.56275976  1  0.52199  0  0.119356  0.197776  0  4.033939  0
C  C95  1  0.26760895  0.14593141  0.06276473  1  0.52187  0  0.119498  0.197968  0  4.033761  0
C  C96  1  0.17549063  0.59206884  0.40367316  1  -0.052999  0  -0.077555  -0.201352  0  3.872687  0
C  C97  1  0.82450819  0.90792456  0.90367477  1  -0.052803  0  -0.077515  -0.201263  0  3.873016  0
C  C98  1  0.82451027  0.40793024  0.59632467  1  -0.053017  0  -0.077488  -0.201184  0  3.872585  0
C  C99  1  0.17548625  0.09207165  0.09632475  1  -0.053114  0  -0.077527  -0.201244  0  3.872864  0
C  C100  1  0.16114872  0.51828577  0.43415879  1  0.022016  0  0.011524  0.123492  0  3.979746  0
C  C101  1  0.83884512  0.98170672  0.93415638  1  0.022611  0  0.011507  0.123561  0  3.979615  0
C  C102  1  0.83885102  0.48171103  0.56583791  1  0.022038  0  0.01151  0.12343  0  3.979921  0
C  C103  1  0.16114938  0.01829063  0.06583693  1  0.022189  0  0.011559  0.123605  0  3.979801  0
C  C104  1  0.24496667  0.50327375  0.49745352  1  -0.016264  0  -0.079865  -0.20706  0  3.91096  0
C  C105  1  0.75502253  0.99671979  0.99745294  1  -0.017167  0  -0.079908  -0.206969  0  3.910891  0
C  C106  1  0.75503110  0.49672589  0.50254374  1  -0.016285  0  -0.079947  -0.207116  0  3.91092  0
C  C107  1  0.24497094  0.00327813  0.00254263  1  -0.016221  0  -0.079951  -0.207219  0  3.911016  0
C  C108  1  0.33798996  0.55924758  0.52611272  1  0.522946  0  0.117148  0.195772  0  4.055843  0
C  C109  1  0.66200637  0.94074511  0.02611624  1  0.523355  0  0.117103  0.195663  0  4.055972  0
C  C110  1  0.66200867  0.44074807  0.47388510  1  0.523209  0  0.11719  0.195833  0  4.0557  0
C  C111  1  0.33799244  0.05925453  0.97388610  1  0.523064  0  0.117101  0.195885  0  4.055836  0
C  C112  1  0.42881003  0.54546032  0.59234714  1  -0.035503  0  0.017264  0.086011  0  3.956818  0
C  C113  1  0.57118049  0.95453231  0.09234970  1  -0.035757  0  0.017121  0.085678  0  3.957213  0
C  C114  1  0.57118331  0.45453475  0.40765351  1  -0.035474  0  0.017239  0.085919  0  3.956985  0
C  C115  1  0.42881731  0.04546790  0.90765264  1  -0.035261  0  0.017054  0.085607  0  3.957171  0
C  C116  1  0.49702720  0.60759280  0.62809493  1  -0.008768  0  -0.075684  -0.149572  0  3.930433  0
C  C117  1  0.50296558  0.89239898  0.12809745  1  -0.009069  0  -0.075492  -0.149275  0  3.930384  0
C  C118  1  0.50297154  0.39240514  0.37190516  1  -0.00919  0  -0.075668  -0.149452  0  3.930539  0
C  C119  1  0.49703321  0.10760009  0.87190320  1  -0.009138  0  -0.075491  -0.149343  0  3.930487  0
C  C120  1  0.57778359  0.59555157  0.69173005  1  0.449359  0  0.052898  0.104259  0  3.945884  0
C  C121  1  0.42220767  0.90444070  0.19172927  1  0.449319  0  0.052773  0.104191  0  3.946036  0
C  C122  1  0.42221809  0.40444182  0.30827229  1  0.449575  0  0.052797  0.104071  0  3.945985  0
C  C123  1  0.57778999  0.09555666  0.80827138  1  0.449544  0  0.052767  0.10411  0  3.945999  0
C  C124  1  0.53497721  0.46519888  0.68551102  1  0.459319  0  0.052071  0.100873  0  3.932612  0
C  C125  1  0.46499671  0.03479338  0.18550979  1  0.458983  0  0.05215  0.100876  0  3.932554  0
C  C126  1  0.46501721  0.53479676  0.31448963  1  0.45928  0  0.052162  0.101004  0  3.932583  0
C  C127  1  0.53499569  0.96520396  0.81449424  1  0.459414  0  0.052233  0.101032  0  3.932749  0
C  C128  1  0.45068966  0.47277782  0.62211127  1  0.056707  0  -0.079477  -0.161231  0  3.935136  0
C  C129  1  0.54928893  0.02721396  0.12210771  1  0.05661  0  -0.079429  -0.161065  0  3.93527  0
C  C130  1  0.54930374  0.52721839  0.37789220  1  0.056526  0  -0.079428  -0.161152  0  3.935145  0
C  C131  1  0.45070876  0.97278397  0.87789576  1  0.056283  0  -0.079402  -0.161142  0  3.9353  0
C  C132  1  0.06258911  0.45969723  0.40285624  1  -0.006761  0  -0.023027  0.024143  0  4.005057  0
C  C133  1  0.93740196  0.04030136  0.90284734  1  -0.006581  0  -0.022978  0.024017  0  4.005047  0
C  C134  1  0.93741597  0.54030130  0.59713820  1  -0.007348  0  -0.023002  0.024133  0  4.004875  0
C  C135  1  0.06259057  0.95969883  0.09714146  1  -0.007219  0  -0.022999  0.024129  0  4.005036  0
C  C136  1  0.05129946  0.38650497  0.43519216  1  -0.071132  0  -0.088273  -0.098047  0  4.005872  0
C  C137  1  0.94868545  0.11349100  0.93519224  1  -0.071595  0  -0.088256  -0.098025  0  4.005486  0
C  C138  1  0.94869205  0.61349578  0.56480228  1  -0.070494  0  -0.088271  -0.098018  0  4.00563  0
C  C139  1  0.05131440  0.88650808  0.06480615  1  -0.071209  0  -0.088263  -0.098048  0  4.005706  0
C  C140  1  0.95862106  0.33075485  0.40747840  1  0.017888  0  -0.103038  -0.203622  0  4.015262  0
C  C141  1  0.04136150  0.16924431  0.90747497  1  0.017872  0  -0.103109  -0.203633  0  4.014901  0
C  C142  1  0.04137042  0.66924533  0.59251378  1  0.017692  0  -0.102992  -0.203501  0  4.015159  0
C  C143  1  0.95863421  0.83075646  0.09251665  1  0.017579  0  -0.102995  -0.203538  0  4.015063  0
C  C144  1  0.87469777  0.34654785  0.34470749  1  0.40507  0  0.089872  0.269141  0  4.032281  0
C  C145  1  0.12528434  0.15345424  0.84470223  1  0.40519  0  0.08984  0.268895  0  4.031855  0
C  C146  1  0.12530142  0.65345977  0.65528074  1  0.404766  0  0.089875  0.26925  0  4.032298  0
C  C147  1  0.87469243  0.84654646  0.15528036  1  0.405031  0  0.089913  0.269298  0  4.032475  0
C  C148  1  0.88118166  0.41898746  0.31185849  1  -0.01853  0  -0.099334  -0.199401  0  3.968954  0
C  C149  1  0.11880124  0.08101437  0.81185043  1  -0.018544  0  -0.099246  -0.199203  0  3.968753  0
C  C150  1  0.11883219  0.58101851  0.68813031  1  -0.018274  0  -0.099412  -0.199372  0  3.969236  0
C  C151  1  0.88116601  0.91898516  0.18813329  1  -0.018733  0  -0.099467  -0.199573  0  3.969179  0
C  C152  1  0.97400726  0.47438310  0.34112786  1  -0.045524  0  -0.084909  -0.093384  0  3.968195  0
C  C153  1  0.02597807  0.02561839  0.84111943  1  -0.04584  0  -0.0848  -0.093279  0  3.968396  0
C  C154  1  0.02601053  0.52561718  0.65886432  1  -0.044876  0  -0.084817  -0.093407  0  3.968204  0
C  C155  1  0.97399465  0.97438571  0.15886541  1  -0.04497  0  -0.084791  -0.093338  0  3.968154  0
C  C156  1  0.80931194  0.21686384  0.32259619  1  0.414705  0  0.076711  0.245137  0  4.065055  0
C  C157  1  0.19069372  0.28313530  0.82259153  1  0.414689  0  0.076744  0.245148  0  4.065269  0
C  C158  1  0.19069154  0.78314550  0.67739712  1  0.414968  0  0.076785  0.245322  0  4.064978  0
C  C159  1  0.80929984  0.71686432  0.17740460  1  0.414719  0  0.076722  0.245193  0  4.065168  0
C  C160  1  0.69802431  0.16587885  0.33907914  1  -0.020002  0  -0.091122  -0.204929  0  3.933776  0
C  C161  1  0.30198293  0.33411759  0.83906905  1  -0.01983  0  -0.091167  -0.205023  0  3.933687  0
C  C162  1  0.30196675  0.83413500  0.66091304  1  -0.019649  0  -0.091273  -0.205241  0  3.933954  0
C  C163  1  0.69802480  0.66587013  0.16092708  1  -0.019952  0  -0.091149  -0.205044  0  3.934487  0
C  C164  1  0.72475641  0.08804508  0.34546108  1  -0.029391  0  -0.018745  -0.009131  0  3.987324  0
C  C165  1  0.27525686  0.41194858  0.84546252  1  -0.029268  0  -0.018591  -0.008909  0  3.987114  0
C  C166  1  0.27522084  0.91196587  0.65453901  1  -0.029266  0  -0.018495  -0.008426  0  3.986896  0
C  C167  1  0.72477206  0.58804206  0.15455562  1  -0.029028  0  -0.018477  -0.008525  0  3.987039  0
C  C168  1  0.86204537  0.06293292  0.33808584  1  0.000784  0  -0.082176  -0.121506  0  3.935269  0
C  C169  1  0.13797474  0.43706811  0.83809577  1  0.000801  0  -0.082352  -0.121643  0  3.93547  0
C  C170  1  0.13793280  0.93707519  0.66191932  1  0.001599  0  -0.082324  -0.122028  0  3.935378  0
C  C171  1  0.86206086  0.56293052  0.16193931  1  -0.001347  0  -0.08238  -0.121913  0  3.935373  0
C  C172  1  0.97209331  0.11432003  0.31994113  1  -0.033699  0  -0.021976  -0.014217  0  4.008168  0
C  C173  1  0.02791905  0.38568595  0.81994914  1  -0.033597  0  -0.021866  -0.014159  0  4.008008  0
C  C174  1  0.02789301  0.88568241  0.68005951  1  -0.033867  0  -0.02199  -0.014156  0  4.008326  0
C  C175  1  0.97210154  0.61432915  0.18007691  1  -0.031733  0  -0.021921  -0.014228  0  4.008501  0
C  C176  1  0.94516139  0.19146226  0.31051055  1  -0.055537  0  -0.098209  -0.22651  0  3.988075  0
C  C177  1  0.05484680  0.30853965  0.81051436  1  -0.05556  0  -0.09819  -0.226438  0  3.988082  0
C  C178  1  0.05483332  0.80853964  0.68948389  1  -0.055351  0  -0.098242  -0.226549  0  3.98788  0
C  C179  1  0.94515771  0.69146913  0.18949306  1  -0.054998  0  -0.098213  -0.226519  0  3.988189  0
C  C180  1  0.60672810  0.02980358  0.35541210  1  1.556961  0  0.192488  0.553569  0  4.242811  0
C  C181  1  0.39330048  0.47018509  0.85542337  1  1.557556  0  0.192465  0.55365  0  4.242378  0
C  C182  1  0.39323714  0.97022043  0.64458968  1  1.55731  0  0.192203  0.553104  0  4.243055  0
C  C183  1  0.60675405  0.52979083  0.14459478  1  1.557301  0  0.19213  0.553045  0  4.243139  0
C  C184  1  0.11916028  0.08728785  0.30920228  1  1.567855  0  0.195155  0.563022  0  4.238837  0
C  C185  1  0.88086087  0.41272036  0.80921144  1  1.566879  0  0.194889  0.562697  0  4.23902  0
C  C186  1  0.88082038  0.91270603  0.69079724  1  1.567909  0  0.195157  0.563035  0  4.2389  0
C  C187  1  0.11917510  0.58730847  0.19081009  1  1.56859  0  0.195162  0.563143  0  4.239077  0
N  N188  1  0.30890055  0.87931448  0.36805422  1  -1.258267  0  -0.328776  -0.230355  0  3.578638  0
N  N189  1  0.69110433  0.62067752  0.86805781  1  -1.258262  0  -0.328765  -0.230523  0  3.578388  0
N  N190  1  0.69110661  0.12068348  0.63194699  1  -1.258448  0  -0.328666  -0.230192  0  3.578585  0
N  N191  1  0.30888275  0.37931866  0.13194622  1  -1.2585  0  -0.328548  -0.230185  0  3.578548  0
N  N192  1  0.34893275  0.62951877  0.49658610  1  -1.21605  0  -0.312045  -0.346621  0  3.341972  0
N  N193  1  0.65106689  0.87047252  0.99659142  1  -1.216275  0  -0.312064  -0.346616  0  3.342092  0
N  N194  1  0.65106180  0.37047972  0.50341285  1  -1.216506  0  -0.312103  -0.34668  0  3.342188  0
N  N195  1  0.34893498  0.12952486  0.00341318  1  -1.216277  0  -0.31206  -0.346708  0  3.34201  0
N  N196  1  0.59603347  0.52572960  0.72070058  1  -1.243774  0  -0.329289  -0.237301  0  3.581875  0
N  N197  1  0.40394531  0.97425830  0.22069823  1  -1.243287  0  -0.32929  -0.237357  0  3.58186  0
N  N198  1  0.40396076  0.47426205  0.27930346  1  -1.243273  0  -0.329275  -0.237272  0  3.581888  0
N  N199  1  0.59604593  0.02573676  0.77930354  1  -1.243695  0  -0.329324  -0.237334  0  3.581943  0
O  O200  1  0.77977742  0.29375803  0.31494084  1  -1.087428  0  -0.151179  -0.208522  0  2.536254  0
O  O201  1  0.22021374  0.20624215  0.81493423  1  -1.087208  0  -0.15128  -0.208544  0  2.536068  0
O  O202  1  0.22022925  0.70625189  0.68504457  1  -1.087674  0  -0.151139  -0.20865  0  2.536254  0
O  O203  1  0.77976303  0.79375856  0.18504215  1  -1.087411  0  -0.151188  -0.208572  0  2.536329  0
O  O204  1  0.48343383  0.05705029  0.36961725  1  -1.163703  0  -0.347679  -0.560996  0  2.283038  0
O  O205  1  0.51659630  0.44293394  0.86961278  1  -1.16421  0  -0.347687  -0.560953  0  2.282939  0
O  O206  1  0.51653083  0.94298397  0.63036139  1  -1.163583  0  -0.347422  -0.560684  0  2.283275  0
O  O207  1  0.48346077  0.55702889  0.13037432  1  -1.163462  0  -0.347474  -0.560738  0  2.283332  0
O  O208  1  0.62996807  0.96084800  0.34569296  1  -1.163205  0  -0.328915  -0.554934  0  2.110498  0
O  O209  1  0.37006152  0.53914335  0.84572518  1  -1.163315  0  -0.328821  -0.554969  0  2.110362  0
O  O210  1  0.36998861  0.03917313  0.65433026  1  -1.163966  0  -0.328967  -0.554983  0  2.110256  0
O  O211  1  0.63000362  0.46083432  0.15431893  1  -1.163839  0  -0.328854  -0.554826  0  2.110211  0
O  O212  1  0.14140485  0.02140193  0.33944058  1  -1.16384  0  -0.342152  -0.553759  0  2.323609  0
O  O213  1  0.85862013  0.47861394  0.83944140  1  -1.163335  0  -0.342175  -0.553751  0  2.323413  0
O  O214  1  0.85857149  0.97858966  0.66055160  1  -1.163675  0  -0.342185  -0.55376  0  2.323427  0
O  O215  1  0.14142131  0.52141946  0.16057053  1  -1.163471  0  -0.342176  -0.553754  0  2.323709  0
O  O216  1  0.20769970  0.12673942  0.27283402  1  -1.173695  0  -0.333377  -0.561483  0  2.111528  0
O  O217  1  0.79231589  0.37326621  0.77284799  1  -1.173447  0  -0.333178  -0.561281  0  2.111701  0
O  O218  1  0.79227880  0.87325332  0.72716324  1  -1.174039  0  -0.333309  -0.561447  0  2.111492  0
O  O219  1  0.20772127  0.62676546  0.22716620  1  -1.174576  0  -0.333394  -0.561564  0  2.11153  0
