# generated using pymatgen
data_NiH8(C7N4)2
_symmetry_space_group_name_H-M   'P 1'
_cell_length_a   8.87553731
_cell_length_b   8.87555191
_cell_length_c   8.93465866
_cell_angle_alpha   84.99127899
_cell_angle_beta   84.99109795
_cell_angle_gamma   76.92005239
_symmetry_Int_Tables_number   1
_chemical_formula_structural   NiH8(C7N4)2
_chemical_formula_sum   'Ni2 H16 C28 N16'
_cell_volume   681.29474160
_cell_formula_units_Z   2
loop_
 _symmetry_equiv_pos_site_id
 _symmetry_equiv_pos_as_xyz
  1  'x, y, z'
loop_
 _atom_site_type_symbol
 _atom_site_label
 _atom_site_symmetry_multiplicity
 _atom_site_fract_x
 _atom_site_fract_y
 _atom_site_fract_z
 _atom_site_occupancy
 _atom_site_hle17_ddec_charge
 _atom_site_hle17_ddec_spin_density
 _atom_site_hle17_ddec_sum_bond_order
 _atom_site_hle17_magmom
 _atom_site_hse06_10hf_ddec_charge
 _atom_site_hse06_10hf_ddec_spin_density
 _atom_site_hse06_10hf_ddec_sum_bond_order
 _atom_site_hse06_10hf_magmom
 _atom_site_hse06_ddec_charge
 _atom_site_hse06_ddec_spin_density
 _atom_site_hse06_ddec_sum_bond_order
 _atom_site_hse06_magmom
 _atom_site_pbe_cm5_charge
 _atom_site_pbe_ddec_charge
 _atom_site_pbe_ddec_spin_density
 _atom_site_pbe_ddec_sum_bond_order
 _atom_site_pbe_magmom
Ni  Ni0  1  0.66262379  0.33737493  0.74999991  1  0.673394  -1.81603  2.085204  -1.474  0.626831  -1.838923  2.504657  -1.595  0.730886  -1.913604  2.430251  -1.693  0.657885  0.55261  -1.77118  2.557231  -1.51
Ni  Ni1  1  0.33737648  0.66262350  0.25000078  1  0.673453  1.816028  2.085152  1.474  0.626958  1.838931  2.50457  1.595  0.730916  1.913605  2.4302  1.693  0.657896  0.552679  1.77118  2.557151  1.51
H  H2  1  0.26473707  0.30423415  0.43472689  1  0.109353  0.000298  0.975507  0.001  0.11738  3e-06  1.039489  0.0  0.119548  -3e-05  1.038824  0.0  0.112341  0.115712  5.5e-05  1.040148  0.0
H  H3  1  0.69576713  0.73526187  0.06527310  1  0.109379  0.000297  0.975543  0.001  0.117407  3e-06  1.039515  0.0  0.119574  -3e-05  1.038849  0.0  0.112358  0.115742  5.5e-05  1.040175  0.0
H  H4  1  0.73525755  0.69576427  0.56527427  1  0.10938  -0.000297  0.975501  -0.001  0.11738  -3e-06  1.039509  0.0  0.119548  3e-05  1.038843  0.0  0.112344  0.115713  -5.5e-05  1.040171  0.0
H  H5  1  0.30423360  0.26474469  0.93472463  1  0.10936  -0.000298  0.975466  -0.001  0.117362  -3e-06  1.039486  0.0  0.11953  3e-05  1.038818  0.0  0.112334  0.115692  -5.5e-05  1.040147  0.0
H  H6  1  0.13149160  0.11730815  0.59030618  1  0.103264  0.000596  0.954078  0.001  0.113935  0.000509  1.010263  0.001  0.115964  0.00035  1.011605  0.0  0.106958  0.112443  0.000683  1.009729  0.001
H  H7  1  0.88269187  0.86850740  0.90969509  1  0.103254  0.000596  0.954096  0.001  0.113945  0.000509  1.01026  0.001  0.115974  0.00035  1.011601  0.0  0.106969  0.112453  0.000683  1.009726  0.001
H  H8  1  0.86850214  0.88268912  0.40969290  1  0.103268  -0.000596  0.954111  -0.001  0.113954  -0.000509  1.010277  -0.001  0.115985  -0.00035  1.01162  0.0  0.106963  0.112462  -0.000683  1.009743  -0.001
H  H9  1  0.11731050  0.13149683  0.09030606  1  0.103277  -0.000595  0.954057  -0.001  0.113968  -0.000509  1.010226  -0.001  0.115996  -0.00035  1.011569  0.0  0.106974  0.112474  -0.000683  1.009691  -0.001
H  H10  1  0.16527137  0.84736496  0.50818879  1  0.089489  0.000845  0.949016  0.002  0.092963  0.000644  1.017111  0.001  0.095477  0.000434  1.01462  0.001  0.116999  0.091111  0.000852  1.019147  0.001
H  H11  1  0.15263410  0.83473013  0.99181003  1  0.089481  0.000844  0.949016  0.002  0.092956  0.000644  1.017111  0.001  0.09547  0.000434  1.01462  0.001  0.116993  0.091102  0.000852  1.019145  0.001
H  H12  1  0.83472516  0.15262999  0.49181026  1  0.089473  -0.000844  0.949117  -0.002  0.092952  -0.000644  1.017208  -0.001  0.095467  -0.000434  1.014713  -0.001  0.116982  0.091098  -0.000852  1.019242  -0.001
H  H13  1  0.84736828  0.16527411  0.00818776  1  0.089463  -0.000845  0.949086  -0.002  0.092938  -0.000644  1.017185  -0.001  0.095453  -0.000434  1.014691  -0.001  0.116981  0.091086  -0.000852  1.01922  -0.001
H  H14  1  0.46537914  0.93658407  0.14577410  1  0.091604  0.001041  1.008381  0.002  0.087018  0.000706  1.092949  0.002  0.090234  0.000449  1.088866  0.001  0.119709  0.084676  0.00097  1.095991  0.002
H  H15  1  0.06341761  0.53462142  0.35422524  1  0.091597  0.001041  1.008414  0.002  0.087034  0.000706  1.092942  0.002  0.090263  0.000449  1.088847  0.001  0.119719  0.08469  0.00097  1.095981  0.002
H  H16  1  0.53462339  0.06341437  0.85422640  1  0.091619  -0.00104  1.008373  -0.002  0.087007  -0.000707  1.092972  -0.002  0.090223  -0.000448  1.088888  -0.001  0.119691  0.084664  -0.00097  1.096012  -0.002
H  H17  1  0.93658266  0.46537702  0.64577433  1  0.091615  -0.001042  1.008417  -0.002  0.087023  -0.000706  1.092992  -0.002  0.09024  -0.000449  1.088908  -0.001  0.11972  0.084681  -0.00097  1.096034  -0.002
C  C18  1  0.49830310  0.42412483  0.03279676  1  0.243234  0.000964  3.885937  0.0  0.222494  -0.000581  4.15853  -0.001  0.234272  0.000113  4.177155  0.0  0.204128  0.214291  -0.001192  4.145811  -0.002
C  C19  1  0.57587511  0.50169585  0.46720429  1  0.243167  0.000964  3.886008  0.0  0.222427  -0.000581  4.158605  -0.001  0.23421  0.000113  4.177226  0.0  0.204092  0.214213  -0.001192  4.145906  -0.002
C  C20  1  0.50169855  0.57587244  0.96720503  1  0.243205  -0.000963  3.886012  0.0  0.22247  0.000581  4.158612  0.001  0.234248  -0.000112  4.177238  0.0  0.204127  0.214286  0.001192  4.145878  0.002
C  C21  1  0.42412742  0.49830258  0.53279622  1  0.243172  -0.000961  3.886061  0.0  0.222447  0.000581  4.158654  0.001  0.234224  -0.000112  4.177279  0.0  0.204086  0.214263  0.001193  4.145921  0.002
C  C22  1  0.45283616  0.23371150  0.17260583  1  0.275297  -0.002536  3.794214  -0.004  0.257661  -0.000113  4.063653  0.0  0.271041  -7.7e-05  4.07863  0.0  0.198538  0.24904  -0.000251  4.053023  -0.001
C  C23  1  0.76629028  0.54716043  0.32739281  1  0.275348  -0.00253  3.794212  -0.004  0.257714  -0.000113  4.063662  0.0  0.271094  -7.6e-05  4.078637  0.0  0.198538  0.249094  -0.000251  4.053038  -0.001
C  C24  1  0.54716298  0.76628694  0.82739383  1  0.275318  0.00253  3.794288  0.004  0.257737  0.000113  4.063662  0.0  0.271121  7.6e-05  4.078636  0.0  0.198552  0.249116  0.00025  4.053042  0.001
C  C25  1  0.23371087  0.45283917  0.67260548  1  0.275343  0.00254  3.794186  0.004  0.257771  0.000112  4.063552  0.0  0.271152  7.7e-05  4.078529  0.0  0.198539  0.249147  0.000251  4.052926  0.001
C  C26  1  0.37960857  0.13342221  0.27975764  1  -0.028922  0.009344  3.769176  0.012  -0.006963  0.003033  3.998753  0.004  -0.013407  0.002764  4.019065  0.004  0.003366  -0.003066  0.003589  3.985433  0.005
C  C27  1  0.86657688  0.62039347  0.22024409  1  -0.028938  0.009332  3.769148  0.012  -0.006988  0.003032  3.998739  0.004  -0.013431  0.002762  4.019051  0.004  0.003364  -0.00309  0.003589  3.985426  0.005
C  C28  1  0.62039282  0.86657622  0.72024408  1  -0.02896  -0.009329  3.769186  -0.012  -0.007038  -0.003033  3.998744  -0.004  -0.013481  -0.002761  4.019051  -0.004  0.00335  -0.003138  -0.003589  3.985428  -0.005
C  C29  1  0.13342236  0.37960960  0.77975406  1  -0.028999  -0.009353  3.769177  -0.012  -0.007062  -0.003032  3.99876  -0.004  -0.013506  -0.002765  4.019068  -0.004  0.003324  -0.003162  -0.003589  3.98544  -0.005
C  C30  1  0.28269375  0.18470543  0.40581185  1  -0.022076  -0.010446  3.651512  -0.012  -0.052117  -0.003001  3.897619  -0.003  -0.046223  -0.002987  3.91294  -0.003  -0.063526  -0.055983  -0.003418  3.887502  -0.004
C  C31  1  0.81529450  0.71730702  0.09418901  1  -0.022124  -0.010433  3.651535  -0.011  -0.052157  -0.003001  3.897643  -0.003  -0.04626  -0.002984  3.91296  -0.003  -0.063549  -0.056023  -0.003418  3.887535  -0.004
C  C32  1  0.71730652  0.81529301  0.59418660  1  -0.022031  0.010429  3.651452  0.011  -0.052043  0.003001  3.897567  0.003  -0.046146  0.002984  3.912884  0.003  -0.063498  -0.05591  0.003418  3.887456  0.004
C  C33  1  0.18470309  0.28269836  0.90581244  1  -0.02204  0.010458  3.651414  0.012  -0.052063  0.003001  3.897538  0.003  -0.046167  0.002987  3.912855  0.003  -0.063527  -0.05593  0.003418  3.887421  0.004
C  C34  1  0.20686210  0.08104077  0.49099820  1  -0.118024  0.009981  3.752705  0.012  -0.126681  0.003096  4.002095  0.004  -0.134246  0.002923  4.022274  0.004  -0.084869  -0.121818  0.003563  3.988955  0.005
C  C35  1  0.91895965  0.79313731  0.00900269  1  -0.118015  0.009969  3.752719  0.012  -0.126696  0.003096  4.002111  0.004  -0.134259  0.002921  4.022288  0.004  -0.084897  -0.121831  0.003563  3.988974  0.005
C  C36  1  0.79313340  0.91895882  0.50900055  1  -0.118084  -0.009964  3.752764  -0.012  -0.126762  -0.003096  4.002151  -0.004  -0.134328  -0.00292  4.022329  -0.004  -0.084886  -0.121897  -0.003563  3.989012  -0.005
C  C37  1  0.08103933  0.20686692  0.99099762  1  -0.11809  -0.009994  3.752745  -0.012  -0.126764  -0.003096  4.002133  -0.004  -0.134327  -0.002923  4.02231  -0.004  -0.084882  -0.121898  -0.003563  3.988991  -0.005
C  C38  1  0.22503156  0.93097145  0.44698451  1  0.103555  -0.008174  3.69065  -0.01  0.073961  -0.001115  3.948258  -0.002  0.084473  -0.001999  3.965743  -0.003  0.037408  0.066439  -0.000613  3.936906  -0.001
C  C39  1  0.06902867  0.77496883  0.05301645  1  0.103572  -0.008162  3.690662  -0.01  0.073983  -0.001116  3.948269  -0.002  0.084492  -0.001997  3.96576  -0.003  0.037425  0.066464  -0.000613  3.936914  -0.001
C  C40  1  0.77496418  0.06902696  0.55301880  1  0.103586  0.008158  3.690792  0.01  0.073996  0.001116  3.948412  0.002  0.084506  0.001997  3.965907  0.003  0.037411  0.066478  0.000613  3.937057  0.001
C  C41  1  0.93097006  0.22503657  0.94698044  1  0.103567  0.008187  3.690887  0.01  0.073991  0.001116  3.948494  0.002  0.084502  0.002  3.965989  0.003  0.037388  0.066472  0.000614  3.937143  0.001
C  C42  1  0.39476333  0.97894660  0.24545974  1  0.099094  -0.009357  3.629809  -0.012  0.062545  -0.001667  3.886758  -0.003  0.072665  -0.002476  3.903492  -0.004  0.052711  0.054956  -0.001205  3.876782  -0.002
C  C43  1  0.02105342  0.60523830  0.25453982  1  0.099116  -0.009346  3.629775  -0.012  0.062559  -0.001667  3.886715  -0.003  0.072665  -0.002474  3.903444  -0.004  0.052714  0.054975  -0.001205  3.876733  -0.002
C  C44  1  0.60523693  0.02105182  0.75454207  1  0.099016  0.009341  3.629933  0.012  0.062538  0.001666  3.886804  0.003  0.072652  0.002473  3.903552  0.004  0.052717  0.05495  0.001205  3.876827  0.002
C  C45  1  0.97894583  0.39476478  0.74545833  1  0.099055  0.009367  3.629851  0.012  0.062514  0.001665  3.886818  0.003  0.072636  0.002476  3.903548  0.004  0.052724  0.054925  0.001205  3.876845  0.002
N  N46  1  0.57320078  0.29688586  0.96464289  1  -0.27899  -0.052472  3.289668  -0.075  -0.245527  -0.033738  3.604197  -0.049  -0.275247  -0.027776  3.626138  -0.042  -0.254781  -0.224653  -0.038233  3.589118  -0.055
N  N47  1  0.70311371  0.42679938  0.53535681  1  -0.278967  -0.05247  3.289621  -0.075  -0.245508  -0.033739  3.604158  -0.049  -0.275228  -0.027774  3.626102  -0.042  -0.254791  -0.224628  -0.038232  3.589081  -0.055
N  N48  1  0.42680226  0.70311025  0.03535888  1  -0.278981  0.052469  3.289777  0.075  -0.245538  0.033739  3.604343  0.049  -0.275238  0.027773  3.626268  0.042  -0.254774  -0.224654  0.038231  3.589243  0.055
N  N49  1  0.29688969  0.57320022  0.46464240  1  -0.27892  0.052467  3.289776  0.075  -0.245496  0.033737  3.604358  0.049  -0.275195  0.027771  3.626286  0.042  -0.254781  -0.224612  0.038231  3.589255  0.055
N  N50  1  0.54633158  0.17311206  0.05462169  1  -0.289311  0.002369  2.943135  0.004  -0.264157  -0.000168  3.223621  0.0  -0.272817  8.6e-05  3.239759  0.001  -0.229801  -0.2578  2.1e-05  3.212411  0.001
N  N51  1  0.82688838  0.45366808  0.44537657  1  -0.289337  0.002364  2.943073  0.004  -0.264184  -0.000166  3.223562  0.0  -0.272845  8.3e-05  3.239705  0.001  -0.229788  -0.257825  2.2e-05  3.212352  0.001
N  N52  1  0.45367034  0.82688405  0.94537905  1  -0.289305  -0.002363  2.94325  -0.004  -0.264179  0.000164  3.223732  0.0  -0.272841  -8.2e-05  3.239866  -0.001  -0.229781  -0.25782  -2.2e-05  3.212522  -0.001
N  N53  1  0.17311313  0.54633501  0.55462027  1  -0.289352  -0.002372  2.943116  -0.004  -0.264218  0.000166  3.223597  0.0  -0.272883  -8.3e-05  3.239739  -0.001  -0.229764  -0.257862  -2.2e-05  3.212386  -0.001
N  N54  1  0.42044523  0.39249757  0.16376355  1  -0.445642  0.028191  2.989184  0.039  -0.419218  0.023011  3.269088  0.032  -0.446121  0.017526  3.285677  0.025  -0.325938  -0.3993  0.028485  3.25654  0.039
N  N55  1  0.60750365  0.57955587  0.33623728  1  -0.445604  0.02819  2.989213  0.039  -0.419182  0.023012  3.26911  0.032  -0.44609  0.017526  3.285704  0.025  -0.325875  -0.399258  0.028485  3.256568  0.039
N  N56  1  0.57955642  0.60749970  0.83623824  1  -0.445678  -0.028192  2.989183  -0.039  -0.419263  -0.023012  3.269064  -0.032  -0.446181  -0.017527  3.285666  -0.025  -0.325987  -0.399354  -0.028485  3.256523  -0.039
N  N57  1  0.39249835  0.42044488  0.66376419  1  -0.445622  -0.028193  2.989183  -0.039  -0.419216  -0.02301  3.269057  -0.032  -0.446132  -0.017526  3.28566  -0.025  -0.32592  -0.399306  -0.028484  3.25651  -0.039
N  N58  1  0.31725487  0.88168598  0.32429310  1  -0.268637  0.076685  3.334706  0.112  -0.226736  0.047238  3.635447  0.072  -0.261052  0.036845  3.659555  0.058  -0.322188  -0.202375  0.055897  3.61866  0.083
N  N59  1  0.11831463  0.68274692  0.17570637  1  -0.268663  0.076675  3.334674  0.112  -0.226767  0.047237  3.635427  0.072  -0.261082  0.036843  3.659536  0.058  -0.322209  -0.202404  0.055896  3.618635  0.083
N  N60  1  0.68274401  0.11831360  0.67570872  1  -0.268559  -0.076669  3.334761  -0.112  -0.22668  -0.047238  3.635488  -0.072  -0.261016  -0.036842  3.659612  -0.058  -0.322164  -0.202332  -0.055894  3.618711  -0.083
N  N61  1  0.88168323  0.31725732  0.82428956  1  -0.268497  -0.076691  3.334805  -0.112  -0.226616  -0.047237  3.63555  -0.072  -0.260955  -0.036845  3.659682  -0.058  -0.322142  -0.202268  -0.055894  3.618779  -0.083
