# generated using pymatgen
data_SrH8C6N8O5
_symmetry_space_group_name_H-M   'P 1'
_cell_length_a   6.71096336
_cell_length_b   6.71059833
_cell_length_c   12.93043781
_cell_angle_alpha   101.95616131
_cell_angle_beta   101.90787575
_cell_angle_gamma   101.72968792
_symmetry_Int_Tables_number   1
_chemical_formula_structural   SrH8C6N8O5
_chemical_formula_sum   'Sr2 H16 C12 N16 O10'
_cell_volume   538.69784938
_cell_formula_units_Z   2
loop_
 _symmetry_equiv_pos_site_id
 _symmetry_equiv_pos_as_xyz
  1  'x, y, z'
loop_
 _atom_site_type_symbol
 _atom_site_label
 _atom_site_symmetry_multiplicity
 _atom_site_fract_x
 _atom_site_fract_y
 _atom_site_fract_z
 _atom_site_occupancy
 _atom_site_hle17_bader_spin_density
 _atom_site_hle17_ddec_charge
 _atom_site_hle17_ddec_spin_density
 _atom_site_hle17_ddec_sum_bond_order
 _atom_site_hle17_magmom
 _atom_site_hse06_10hf_bader_spin_density
 _atom_site_hse06_10hf_ddec_charge
 _atom_site_hse06_10hf_ddec_spin_density
 _atom_site_hse06_10hf_ddec_sum_bond_order
 _atom_site_hse06_10hf_magmom
 _atom_site_hse06_bader_spin_density
 _atom_site_hse06_ddec_charge
 _atom_site_hse06_ddec_spin_density
 _atom_site_hse06_ddec_sum_bond_order
 _atom_site_hse06_magmom
 _atom_site_pbe_bader_spin_density
 _atom_site_pbe_cm5_charge
 _atom_site_pbe_ddec_charge
 _atom_site_pbe_ddec_spin_density
 _atom_site_pbe_ddec_sum_bond_order
 _atom_site_pbe_magmom
Sr  Sr0  1  0.53930755  0.53927246  0.99998601  1  0  1.551865  0  1.104149  0  0  1.387695  0  1.47925  0  0  1.423652  0  1.440934  0  0  0.925638  1.361352  0  1.506438  0
Sr  Sr1  1  0.78909746  0.28915479  0.49998742  1  0  1.551601  0  1.105447  0  0  1.387147  0  1.480943  0  0  1.423124  0  1.44261  0  0  0.92593  1.360786  0  1.508138  0
H  H2  1  0.18783567  0.65621122  0.74279555  1  0  0.314946  0  0.943988  0  0  0.287309  0  1.014221  0  0  0.298306  0  1.005146  0  0  0.318015  0.279525  0  1.020717  0
H  H3  1  0.91340073  0.44525189  0.25727073  1  0  0.313951  0  0.946062  0  0  0.286578  0  1.015979  0  0  0.297538  0  1.006951  0  0  0.317621  0.278838  0  1.022404  0
H  H4  1  0.69512041  0.66333172  0.75704699  1  0  0.314103  0  0.946988  0  0  0.286575  0  1.017086  0  0  0.297542  0  1.008054  0  0  0.317764  0.278836  0  1.023507  0
H  H5  1  0.90611135  0.93797271  0.24283579  1  0  0.314561  0  0.944846  0  0  0.286996  0  1.014919  0  0  0.29798  0  1.005858  0  0  0.317929  0.279232  0  1.021415  0
H  H6  1  0.38340466  0.99628312  0.03470806  1  0  0.343071  0  0.910039  0  0  0.323512  0  0.976876  0  0  0.331088  0  0.970504  0  0  0.307792  0.318127  0  0.981389  0
H  H7  1  0.96169156  0.34853331  0.96536473  1  0  0.342797  0  0.910833  0  0  0.323877  0  0.976623  0  0  0.331448  0  0.970228  0  0  0.307813  0.31848  0  0.981198  0
H  H8  1  0.59819265  0.71147841  0.46515523  1  0  0.343376  0  0.910671  0  0  0.324339  0  0.976674  0  0  0.33193  0  0.970219  0  0  0.307858  0.318938  0  0.981248  0
H  H9  1  0.24624703  0.13307446  0.53474970  1  0  0.342946  0  0.910322  0  0  0.323376  0  0.977131  0  0  0.330965  0  0.970716  0  0  0.307805  0.317973  0  0.981697  0
H  H10  1  0.20501953  0.76313777  0.95862274  1  0  0.332415  0  0.897671  0  0  0.314651  0  0.963603  0  0  0.322128  0  0.956588  0  0  0.313774  0.309305  0  0.968659  0
H  H11  1  0.80455396  0.24639315  0.04144677  1  0  0.333292  0  0.896573  0  0  0.314631  0  0.96372  0  0  0.32215  0  0.956651  0  0  0.313765  0.309262  0  0.968779  0
H  H12  1  0.49622625  0.55429372  0.54126321  1  0  0.332841  0  0.896833  0  0  0.314456  0  0.963695  0  0  0.321973  0  0.956637  0  0  0.313634  0.309084  0  0.968755  0
H  H13  1  0.01301740  0.95475317  0.45869120  1  0  0.33247  0  0.89749  0  0  0.314649  0  0.963538  0  0  0.32213  0  0.956495  0  0  0.313638  0.3093  0  0.968595  0
H  H14  1  0.87855489  0.91950292  0.93773961  1  0  0.393675  0  0.917064  0  0  0.355771  0  0.99556  0  0  0.366808  0  0.979361  0  0  0.287565  0.347948  0  1.007029  0
H  H15  1  0.98167613  0.94069710  0.06214675  1  0  0.39235  0  0.918523  0  0  0.354678  0  0.996816  0  0  0.365728  0  0.980603  0  0  0.287192  0.346846  0  1.008295  0
H  H16  1  0.19039345  0.73138384  0.56228350  1  0  0.392642  0  0.918514  0  0  0.354943  0  0.996597  0  0  0.36599  0  0.98039  0  0  0.28713  0.347111  0  1.008073  0
H  H17  1  0.16928519  0.62805491  0.43791239  1  0  0.393026  0  0.917346  0  0  0.355152  0  0.996373  0  0  0.36618  0  0.980192  0  0  0.287329  0.347335  0  1.007833  0
C  C18  1  0.35575007  0.93912964  0.87452386  1  0  0.600518  0  3.794803  0  0  0.548856  0  4.07957  0  0  0.572046  0  4.087067  0  0  0.347293  0.533288  0  4.07411  0
C  C19  1  0.06471061  0.48114848  0.12555465  1  0  0.602535  0  3.792018  0  0  0.550024  0  4.078361  0  0  0.573368  0  4.085564  0  0  0.346645  0.534345  0  4.073103  0
C  C20  1  0.73080678  0.81472361  0.62536137  1  0  0.604633  0  3.791021  0  0  0.552145  0  4.077126  0  0  0.575496  0  4.084319  0  0  0.347337  0.536431  0  4.071914  0
C  C21  1  0.18915090  0.10528972  0.37455464  1  0  0.601762  0  3.793827  0  0  0.549649  0  4.079163  0  0  0.572966  0  4.086473  0  0  0.347282  0.534001  0  4.073815  0
C  C22  1  0.43299061  0.11802436  0.76423411  1  0  0.171178  0  3.821407  0  0  0.148601  0  4.110669  0  0  0.154484  0  4.124678  0  0  0.20112  0.144731  0  4.101117  0
C  C23  1  0.35391341  0.66856676  0.23585430  1  0  0.17216  0  3.821832  0  0  0.149191  0  4.111429  0  0  0.155005  0  4.125519  0  0  0.202243  0.145345  0  4.101875  0
C  C24  1  0.91849824  0.10383384  0.73572180  1  0  0.171443  0  3.822073  0  0  0.148826  0  4.111044  0  0  0.154716  0  4.125032  0  0  0.202296  0.144979  0  4.101487  0
C  C25  1  0.36793588  0.18273841  0.26423659  1  0  0.169434  0  3.823587  0  0  0.147776  0  4.111733  0  0  0.153535  0  4.125876  0  0  0.201192  0.144023  0  4.102043  0
C  C26  1  0.51917883  0.30443075  0.72661155  1  0  0.629334  0  3.917536  0  0  0.576722  0  4.221857  0  0  0.61027  0  4.210504  0  0  0.229274  0.55383  0  4.229113  0
C  C27  1  0.57784466  0.79259278  0.27336752  1  0  0.629452  0  3.922128  0  0  0.576562  0  4.227056  0  0  0.6102  0  4.215605  0  0  0.228937  0.553597  0  4.234389  0
C  C28  1  0.04230172  0.32788286  0.77336580  1  0  0.628772  0  3.923255  0  0  0.576186  0  4.227498  0  0  0.60976  0  4.216102  0  0  0.228596  0.553228  0  4.234817  0
C  C29  1  0.55435727  0.26907793  0.22664869  1  0  0.629954  0  3.917009  0  0  0.576818  0  4.221707  0  0  0.610441  0  4.210287  0  0  0.228951  0.553858  0  4.229011  0
N  N30  1  0.45464870  0.13260896  0.87327871  1  0  -0.563511  0  3.026115  0  0  -0.517603  0  3.298284  0  0  -0.536184  0  3.309711  0  0  -0.385997  -0.504968  0  3.290386  0
N  N31  1  0.25943930  0.58121409  0.12680526  1  0  -0.564763  0  3.026416  0  0  -0.51825  0  3.299102  0  0  -0.536879  0  3.310497  0  0  -0.386245  -0.505566  0  3.291223  0
N  N32  1  0.83093380  0.00948430  0.62666960  1  0  -0.564941  0  3.026084  0  0  -0.518621  0  3.298757  0  0  -0.537278  0  3.310117  0  0  -0.386578  -0.505921  0  3.290889  0
N  N33  1  0.38258839  0.20419067  0.37328246  1  0  -0.56307  0  3.02736  0  0  -0.517341  0  3.299479  0  0  -0.535947  0  3.310934  0  0  -0.385916  -0.504696  0  3.291541  0
N  N34  1  0.32671411  0.92796256  0.69905148  1  0  -0.239381  0  2.95379  0  0  -0.221617  0  3.22496  0  0  -0.22807  0  3.238544  0  0  -0.212462  -0.217118  0  3.215809  0
N  N35  1  0.22901384  0.62762883  0.30103511  1  0  -0.238606  0  2.953563  0  0  -0.220352  0  3.225071  0  0  -0.226794  0  3.238643  0  0  -0.212199  -0.215863  0  3.21595  0
N  N36  1  0.87761301  0.97886209  0.80083976  1  0  -0.237876  0  2.954687  0  0  -0.219825  0  3.22588  0  0  -0.226276  0  3.239427  0  0  -0.212393  -0.215339  0  3.216764  0
N  N37  1  0.17789164  0.07669759  0.19909023  1  0  -0.238621  0  2.95427  0  0  -0.221176  0  3.225101  0  0  -0.227583  0  3.238701  0  0  -0.2124  -0.216717  0  3.215934  0
N  N38  1  0.28026201  0.81536903  0.77082625  1  0  -0.279635  0  3.347822  0  0  -0.218094  0  3.591429  0  0  -0.234878  0  3.603787  0  0  -0.268765  -0.206844  0  3.583105  0
N  N39  1  0.04461981  0.50942633  0.22925239  1  0  -0.280971  0  3.348899  0  0  -0.219657  0  3.593528  0  0  -0.236508  0  3.605949  0  0  -0.268917  -0.208357  0  3.585172  0
N  N40  1  0.75926106  0.79452005  0.72902478  1  0  -0.282816  0  3.351677  0  0  -0.221252  0  3.596156  0  0  -0.23813  0  3.608557  0  0  -0.269381  -0.209935  0  3.587822  0
N  N41  1  0.06534965  0.03005285  0.27088075  1  0  -0.280324  0  3.347646  0  0  -0.218453  0  3.591144  0  0  -0.235307  0  3.603538  0  0  -0.268939  -0.207176  0  3.582796  0
N  N42  1  0.34195574  0.87113533  0.96625490  1  0  -0.749164  0  3.077681  0  0  -0.710822  0  3.322117  0  0  -0.729701  0  3.314218  0  0  -0.61137  -0.697385  0  3.327358  0
N  N43  1  0.90501085  0.37561930  0.03381754  1  0  -0.751144  0  3.076597  0  0  -0.71228  0  3.321828  0  0  -0.731257  0  3.313774  0  0  -0.611247  -0.698762  0  3.327182  0
N  N44  1  0.62529962  0.65494906  0.53361739  1  0  -0.751981  0  3.07667  0  0  -0.713303  0  3.321302  0  0  -0.732277  0  3.313236  0  0  -0.611503  -0.699773  0  3.326687  0
N  N45  1  0.12117118  0.09155120  0.46630631  1  0  -0.749453  0  3.077151  0  0  -0.711047  0  3.321554  0  0  -0.729954  0  3.31362  0  0  -0.611094  -0.697588  0  3.326795  0
O  O46  1  0.59413652  0.47680337  0.80238319  1  0  -0.643094  0  2.009634  0  0  -0.584752  0  2.247514  0  0  -0.609432  0  2.23794  0  0  -0.345022  -0.567372  0  2.253636  0
O  O47  1  0.67427264  0.79174226  0.19751962  1  0  -0.643637  0  2.012579  0  0  -0.584745  0  2.250003  0  0  -0.609525  0  2.240578  0  0  -0.344834  -0.567367  0  2.256216  0
O  O48  1  0.04110915  0.42450672  0.69764418  1  0  -0.643065  0  2.013505  0  0  -0.584087  0  2.250479  0  0  -0.608853  0  2.241088  0  0  -0.344389  -0.566703  0  2.256675  0
O  O49  1  0.72662439  0.34398241  0.30242588  1  0  -0.643334  0  2.00947  0  0  -0.584841  0  2.247576  0  0  -0.60953  0  2.237966  0  0  -0.344905  -0.567473  0  2.25378  0
O  O50  1  0.51498475  0.28507055  0.62665985  1  0  -0.659797  0  1.999127  0  0  -0.600222  0  2.235884  0  0  -0.62341  0  2.225831  0  0  -0.335026  -0.584142  0  2.2426  0
O  O51  1  0.65844917  0.88868236  0.37327305  1  0  -0.65972  0  1.999721  0  0  -0.600579  0  2.237305  0  0  -0.623825  0  2.22731  0  0  -0.3351  -0.584405  0  2.243949  0
O  O52  1  0.13856821  0.40834054  0.87326121  1  0  -0.659403  0  1.99879  0  0  -0.600716  0  2.236389  0  0  -0.62395  0  2.226451  0  0  -0.334917  -0.584556  0  2.243036  0
O  O53  1  0.53506911  0.26517215  0.12673065  1  0  -0.659763  0  1.998041  0  0  -0.600271  0  2.235067  0  0  -0.623458  0  2.224967  0  0  -0.334846  -0.584176  0  2.241818  0
O  O54  1  0.85934425  0.85925301  0.99992015  1  0  -0.849722  0  1.817399  0  0  -0.789091  0  2.001765  0  0  -0.807162  0  1.969571  0  0  -0.617545  -0.776067  0  2.02439  0
O  O55  1  0.10901228  0.60887875  0.50010210  1  0  -0.849314  0  1.818063  0  0  -0.788697  0  2.002553  0  0  -0.806781  0  1.970396  0  0  -0.617365  -0.775665  0  2.025153  0
