# generated using pymatgen
data_CdH26C30N6(O3F2)2
_symmetry_space_group_name_H-M   'P 1'
_cell_length_a   11.13110050
_cell_length_b   11.77259631
_cell_length_c   13.86879874
_cell_angle_alpha   113.56798624
_cell_angle_beta   113.65904204
_cell_angle_gamma   90.00012546
_symmetry_Int_Tables_number   1
_chemical_formula_structural   CdH26C30N6(O3F2)2
_chemical_formula_sum   'Cd2 H52 C60 N12 O12 F8'
_cell_volume   1497.66266303
_cell_formula_units_Z   2
loop_
 _symmetry_equiv_pos_site_id
 _symmetry_equiv_pos_as_xyz
  1  'x, y, z'
loop_
 _atom_site_type_symbol
 _atom_site_label
 _atom_site_symmetry_multiplicity
 _atom_site_fract_x
 _atom_site_fract_y
 _atom_site_fract_z
 _atom_site_occupancy
 _atom_site_hle17_bader_spin_density
 _atom_site_hle17_ddec_charge
 _atom_site_hle17_ddec_spin_density
 _atom_site_hle17_ddec_sum_bond_order
 _atom_site_hle17_magmom
 _atom_site_hse06_10hf_bader_spin_density
 _atom_site_hse06_10hf_ddec_charge
 _atom_site_hse06_10hf_ddec_spin_density
 _atom_site_hse06_10hf_ddec_sum_bond_order
 _atom_site_hse06_10hf_magmom
 _atom_site_hse06_bader_spin_density
 _atom_site_hse06_ddec_charge
 _atom_site_hse06_ddec_spin_density
 _atom_site_hse06_ddec_sum_bond_order
 _atom_site_hse06_magmom
 _atom_site_pbe_bader_spin_density
 _atom_site_pbe_cm5_charge
 _atom_site_pbe_ddec_charge
 _atom_site_pbe_ddec_spin_density
 _atom_site_pbe_ddec_sum_bond_order
 _atom_site_pbe_magmom
Cd  Cd0  1  0.68873624  0.24999317  0.00000154  1  0  1.027888  0  1.683946  0  0  0.824288  0  2.119931  0  0  0.877599  0  2.077441  0  0  0.770657  0.786197  0  2.149098  0
Cd  Cd1  1  0.31126380  0.75000748  0.99999888  1  0  1.027885  0  1.68396  0  0  0.824286  0  2.119944  0  0  0.877602  0  2.077451  0  0  0.770654  0.786195  0  2.14911  0
H  H2  1  0.92573480  0.44791555  0.05101788  1  0  0.075442  0  0.954963  0  0  0.084351  0  1.017448  0  0  0.086501  0  1.015895  0  0  0.110802  0.082823  0  1.018539  0
H  H3  1  0.87471868  0.05208150  0.94898006  1  0  0.075392  0  0.954847  0  0  0.084207  0  1.017548  0  0  0.086349  0  1.016024  0  0  0.110565  0.082657  0  1.01867  0
H  H4  1  0.07426603  0.55208415  0.94898248  1  0  0.075449  0  0.954952  0  0  0.084351  0  1.017441  0  0  0.086502  0  1.015888  0  0  0.110798  0.082822  0  1.018534  0
H  H5  1  0.12528117  0.94791821  0.05101926  1  0  0.075378  0  0.954799  0  0  0.08417  0  1.017518  0  0  0.086309  0  1.016  0  0  0.110531  0.082619  0  1.018641  0
H  H6  1  0.92814734  0.23288501  0.22601174  1  0  0.09033  0  0.945247  0  0  0.09666  0  1.011135  0  0  0.099056  0  1.009097  0  0  0.116387  0.095019  0  1.012446  0
H  H7  1  0.70214862  0.26712506  0.77399466  1  0  0.089981  0  0.944131  0  0  0.096493  0  1.009881  0  0  0.098887  0  1.007863  0  0  0.116316  0.094853  0  1.01119  0
H  H8  1  0.07185153  0.76711470  0.77398727  1  0  0.090341  0  0.945269  0  0  0.09667  0  1.011167  0  0  0.099066  0  1.009131  0  0  0.116395  0.095028  0  1.012478  0
H  H9  1  0.29785123  0.73287465  0.22600538  1  0  0.089986  0  0.944134  0  0  0.096496  0  1.009886  0  0  0.09889  0  1.007868  0  0  0.116325  0.094856  0  1.011195  0
H  H10  1  0.17357976  0.46859201  0.11645962  1  0  0.115556  0  0.967366  0  0  0.118193  0  1.040813  0  0  0.122303  0  1.03839  0  0  0.103858  0.115254  0  1.042647  0
H  H11  1  0.05711989  0.03139847  0.88353584  1  0  0.116619  0  0.966604  0  0  0.118702  0  1.040363  0  0  0.122842  0  1.03793  0  0  0.104178  0.115734  0  1.04222  0
H  H12  1  0.82641911  0.53140769  0.88353939  1  0  0.115566  0  0.967401  0  0  0.118213  0  1.040834  0  0  0.122324  0  1.03841  0  0  0.103858  0.115273  0  1.042668  0
H  H13  1  0.94287898  0.96860124  0.11646389  1  0  0.116576  0  0.966633  0  0  0.118667  0  1.040395  0  0  0.122808  0  1.03796  0  0  0.104154  0.115698  0  1.042254  0
H  H14  1  0.17332900  0.24167100  0.29582323  1  0  0.113575  0  0.935048  0  0  0.125759  0  0.990279  0  0  0.129026  0  0.989606  0  0  0.109215  0.12349  0  0.990908  0
H  H15  1  0.87751859  0.25833934  0.70418636  1  0  0.113732  0  0.935341  0  0  0.125862  0  0.9906  0  0  0.129195  0  0.989856  0  0  0.109498  0.12357  0  0.99124  0
H  H16  1  0.82667085  0.75832871  0.70417682  1  0  0.113603  0  0.935052  0  0  0.125788  0  0.990277  0  0  0.129056  0  0.989605  0  0  0.10924  0.123519  0  0.990906  0
H  H17  1  0.12248126  0.74166037  0.29581368  1  0  0.113729  0  0.935338  0  0  0.125859  0  0.990597  0  0  0.129192  0  0.989853  0  0  0.109496  0.123568  0  0.991237  0
H  H18  1  0.37193317  0.40372129  0.20076551  1  0  0.117548  0  0.93003  0  0  0.126473  0  0.996321  0  0  0.129667  0  0.993136  0  0  0.104469  0.124108  0  0.9986  0
H  H19  1  0.17117730  0.09627900  0.79924479  1  0  0.118199  0  0.930388  0  0  0.126517  0  0.996807  0  0  0.12966  0  0.993686  0  0  0.104483  0.124168  0  0.999055  0
H  H20  1  0.62806687  0.59627936  0.79923419  1  0  0.117547  0  0.930037  0  0  0.12647  0  0.996333  0  0  0.129665  0  0.993147  0  0  0.104468  0.124106  0  0.998611  0
H  H21  1  0.82882255  0.90372070  0.20075525  1  0  0.118213  0  0.93036  0  0  0.126535  0  0.996782  0  0  0.129677  0  0.993661  0  0  0.104494  0.124186  0  0.999029  0
H  H22  1  0.36189262  0.26313357  0.21711207  1  0  0.11421  0  0.917277  0  0  0.126123  0  0.978096  0  0  0.128531  0  0.976153  0  0  0.105215  0.124326  0  0.97959  0
H  H23  1  0.14479046  0.23686007  0.78288507  1  0  0.114271  0  0.916681  0  0  0.125796  0  0.977602  0  0  0.128279  0  0.975562  0  0  0.10487  0.123953  0  0.979146  0
H  H24  1  0.63810723  0.73686613  0.78288798  1  0  0.114216  0  0.917274  0  0  0.126129  0  0.978094  0  0  0.128537  0  0.976152  0  0  0.105217  0.124332  0  0.97959  0
H  H25  1  0.85521056  0.76314058  0.21711567  1  0  0.114264  0  0.916679  0  0  0.125795  0  0.977602  0  0  0.128279  0  0.97556  0  0  0.104868  0.123952  0  0.979146  0
H  H26  1  0.41432698  0.34593851  0.75246963  1  0  0.104086  0  0.971587  0  0  0.113087  0  1.036118  0  0  0.116388  0  1.034114  0  0  0.097181  0.110665  0  1.037743  0
H  H27  1  0.66185025  0.15405109  0.24752914  1  0  0.104015  0  0.971558  0  0  0.113246  0  1.035901  0  0  0.116565  0  1.033871  0  0  0.097144  0.110773  0  1.037638  0
H  H28  1  0.58567189  0.65406120  0.24752938  1  0  0.104065  0  0.971625  0  0  0.11307  0  1.036151  0  0  0.11637  0  1.034147  0  0  0.097161  0.110647  0  1.037776  0
H  H29  1  0.33814960  0.84594862  0.75247091  1  0  0.103985  0  0.971508  0  0  0.113213  0  1.035862  0  0  0.116533  0  1.033833  0  0  0.097127  0.110741  0  1.037599  0
H  H30  1  0.34075686  0.27694058  0.54010815  1  0  0.075119  0  0.968272  0  0  0.085849  0  1.033711  0  0  0.088177  0  1.03251  0  0  0.090023  0.084119  0  1.034724  0
H  H31  1  0.80064652  0.22304909  0.45989247  1  0  0.075674  0  0.968248  0  0  0.086181  0  1.033755  0  0  0.08858  0  1.032492  0  0  0.090153  0.084439  0  1.034774  0
H  H32  1  0.65924299  0.72305912  0.45989190  1  0  0.075104  0  0.968278  0  0  0.085835  0  1.033717  0  0  0.088162  0  1.032516  0  0  0.090017  0.084106  0  1.034729  0
H  H33  1  0.19935353  0.77695157  0.54010796  1  0  0.075644  0  0.968283  0  0  0.086151  0  1.033792  0  0  0.088552  0  1.032528  0  0  0.090136  0.08441  0  1.034812  0
H  H34  1  0.31277591  0.04943132  0.40788387  1  0  0.085889  0  0.960393  0  0  0.096094  0  1.021635  0  0  0.098983  0  1.021201  0  0  0.091064  0.093983  0  1.022141  0
H  H35  1  0.90489187  0.45055844  0.59211413  1  0  0.085015  0  0.962063  0  0  0.095374  0  1.023117  0  0  0.098327  0  1.02262  0  0  0.090556  0.093207  0  1.02371  0
H  H36  1  0.68722414  0.95056933  0.59211656  1  0  0.085907  0  0.960373  0  0  0.096112  0  1.021613  0  0  0.099001  0  1.02118  0  0  0.091071  0.094  0  1.022119  0
H  H37  1  0.09510798  0.54944127  0.40788520  1  0  0.085018  0  0.96209  0  0  0.095385  0  1.023135  0  0  0.098338  0  1.022638  0  0  0.090559  0.093218  0  1.023729  0
H  H38  1  0.36290748  0.89393141  0.49243784  1  0  0.08343  0  0.962701  0  0  0.091758  0  1.028027  0  0  0.094942  0  1.02592  0  0  0.093558  0.089475  0  1.029606  0
H  H39  1  0.87046940  0.60605800  0.50756162  1  0  0.083279  0  0.963257  0  0  0.091512  0  1.028615  0  0  0.094758  0  1.026422  0  0  0.09353  0.089183  0  1.030235  0
H  H40  1  0.63709256  0.10606924  0.50756186  1  0  0.083421  0  0.962709  0  0  0.09175  0  1.028031  0  0  0.094934  0  1.025924  0  0  0.093553  0.089467  0  1.02961  0
H  H41  1  0.12953045  0.39394170  0.49243699  1  0  0.083264  0  0.963257  0  0  0.091491  0  1.028623  0  0  0.094739  0  1.02643  0  0  0.093523  0.089163  0  1.030242  0
H  H42  1  0.43418515  0.96340801  0.70396384  1  0  0.108151  0  0.973863  0  0  0.118606  0  1.035455  0  0  0.121749  0  1.033886  0  0  0.098594  0.11633  0  1.036719  0
H  H43  1  0.73021234  0.53658321  0.29603616  1  0  0.108059  0  0.973451  0  0  0.118142  0  1.035461  0  0  0.12127  0  1.033899  0  0  0.098728  0.115866  0  1.036743  0
H  H44  1  0.56581470  0.03659169  0.29603693  1  0  0.108191  0  0.973833  0  0  0.118588  0  1.035489  0  0  0.121732  0  1.033919  0  0  0.098576  0.116311  0  1.036755  0
H  H45  1  0.26978751  0.46341650  0.70396317  1  0  0.108021  0  0.973471  0  0  0.118088  0  1.035501  0  0  0.121217  0  1.03394  0  0  0.098708  0.115812  0  1.036785  0
H  H46  1  0.42050413  0.27620885  0.89514228  1  0  0.306001  0  0.924122  0  0  0.285358  0  0.996884  0  0  0.292879  0  0.990813  0  0  0.290222  0.279919  0  1.001289  0
H  H47  1  0.52534863  0.22379664  0.10485614  1  0  0.306073  0  0.92412  0  0  0.28536  0  0.996758  0  0  0.292848  0  0.990769  0  0  0.290483  0.279932  0  1.001173  0
H  H48  1  0.57949689  0.72379180  0.10485774  1  0  0.305978  0  0.924093  0  0  0.285332  0  0.996866  0  0  0.292854  0  0.990793  0  0  0.290206  0.279893  0  1.001271  0
H  H49  1  0.47465141  0.77620401  0.89514357  1  0  0.306082  0  0.924097  0  0  0.285379  0  0.996725  0  0  0.292866  0  0.990736  0  0  0.290499  0.27995  0  1.001142  0
H  H50  1  0.42910346  0.12990168  0.87801530  1  0  0.307606  0  0.914503  0  0  0.294341  0  0.974203  0  0  0.300543  0  0.969938  0  0  0.294687  0.289945  0  0.977169  0
H  H51  1  0.55109187  0.37010291  0.12199206  1  0  0.306913  0  0.914504  0  0  0.29403  0  0.973986  0  0  0.300198  0  0.969759  0  0  0.294537  0.289616  0  0.976992  0
H  H52  1  0.57089658  0.87009897  0.12198441  1  0  0.307617  0  0.914448  0  0  0.29434  0  0.974166  0  0  0.300541  0  0.969901  0  0  0.294689  0.289941  0  0.977134  0
H  H53  1  0.44890700  0.62989680  0.87800766  1  0  0.306887  0  0.914552  0  0  0.294006  0  0.974042  0  0  0.300174  0  0.969815  0  0  0.294544  0.289592  0  0.977049  0
C  C54  1  0.98521414  0.40482033  0.10647837  1  0  0.123202  0  3.736401  0  0  0.093054  0  3.988297  0  0  0.100356  0  4.007779  0  0  0.037476  0.08841  0  3.974795  0
C  C55  1  0.87873211  0.09518530  0.89350967  1  0  0.123773  0  3.737106  0  0  0.093714  0  3.988772  0  0  0.101019  0  4.008226  0  0  0.037328  0.089051  0  3.975343  0
C  C56  1  0.01478590  0.59518032  0.89352133  1  0  0.123223  0  3.73637  0  0  0.093081  0  3.988268  0  0  0.100384  0  4.007751  0  0  0.037483  0.088437  0  3.974767  0
C  C57  1  0.12126872  0.90481441  0.10649069  1  0  0.123711  0  3.737151  0  0  0.093673  0  3.988818  0  0  0.100977  0  4.008273  0  0  0.037334  0.08901  0  3.975389  0
C  C58  1  0.98581230  0.28414895  0.20343332  1  0  0.137161  0  3.699548  0  0  0.105476  0  3.95609  0  0  0.113479  0  3.974025  0  0  0.046019  0.100278  0  3.943682  0
C  C59  1  0.78239262  0.21585845  0.79657575  1  0  0.137741  0  3.698913  0  0  0.106001  0  3.955564  0  0  0.113977  0  3.973538  0  0  0.045748  0.100774  0  3.943182  0
C  C60  1  0.01418676  0.71585170  0.79656607  1  0  0.137202  0  3.699428  0  0  0.10551  0  3.955969  0  0  0.113512  0  3.973906  0  0  0.046066  0.100312  0  3.943561  0
C  C61  1  0.21760723  0.78414125  0.20342501  1  0  0.137749  0  3.698906  0  0  0.106013  0  3.955558  0  0  0.113991  0  3.973532  0  0  0.04574  0.100787  0  3.943178  0
C  C62  1  0.12222475  0.41519149  0.14208801  1  0  -0.169023  0  3.698727  0  0  -0.188721  0  3.949952  0  0  -0.196811  0  3.970756  0  0  -0.086033  -0.183366  0  3.935797  0
C  C63  1  0.98013515  0.08479530  0.85791471  1  0  -0.171824  0  3.699938  0  0  -0.190809  0  3.9513  0  0  -0.198948  0  3.972022  0  0  -0.08649  -0.185438  0  3.937255  0
C  C64  1  0.87777510  0.58480822  0.85791204  1  0  -0.169051  0  3.698752  0  0  -0.188763  0  3.949966  0  0  -0.196855  0  3.970769  0  0  -0.086041  -0.183406  0  3.935807  0
C  C65  1  0.01986470  0.91520441  0.14208461  1  0  -0.171761  0  3.699952  0  0  -0.190759  0  3.951296  0  0  -0.198897  0  3.972016  0  0  -0.08648  -0.185388  0  3.937252  0
C  C66  1  0.12284886  0.28938778  0.24189593  1  0  -0.175331  0  3.695475  0  0  -0.192411  0  3.942378  0  0  -0.20127  0  3.964283  0  0  -0.083782  -0.186809  0  3.927682  0
C  C67  1  0.88096386  0.21061684  0.75811929  1  0  -0.176666  0  3.697792  0  0  -0.193884  0  3.945191  0  0  -0.202815  0  3.967058  0  0  -0.084251  -0.188245  0  3.930573  0
C  C68  1  0.87715020  0.71061287  0.75810418  1  0  -0.175365  0  3.695504  0  0  -0.192455  0  3.942413  0  0  -0.201316  0  3.964317  0  0  -0.083835  -0.186853  0  3.927718  0
C  C69  1  0.11903599  0.78938287  0.24188075  1  0  -0.176676  0  3.697798  0  0  -0.193903  0  3.945191  0  0  -0.202834  0  3.96706  0  0  -0.084258  -0.188264  0  3.930575  0
C  C70  1  0.19337287  0.35406417  0.20928242  1  0  0.168014  0  3.697102  0  0  0.183813  0  3.934802  0  0  0.188801  0  3.957023  0  0  0.017074  0.180638  0  3.919637  0
C  C71  1  0.98410324  0.14592932  0.79071711  1  0  0.170239  0  3.697274  0  0  0.185608  0  3.934451  0  0  0.190631  0  3.956669  0  0  0.017508  0.182379  0  3.919327  0
C  C72  1  0.80662698  0.64593553  0.79071762  1  0  0.168037  0  3.697115  0  0  0.183862  0  3.934783  0  0  0.188853  0  3.957002  0  0  0.017095  0.180687  0  3.919619  0
C  C73  1  0.01589661  0.85407039  0.20928293  1  0  0.17025  0  3.697244  0  0  0.185634  0  3.93441  0  0  0.190657  0  3.956628  0  0  0.017528  0.182405  0  3.919285  0
C  C74  1  0.34136493  0.35938067  0.24563785  1  0  -0.176126  0  3.682939  0  0  -0.221407  0  3.927478  0  0  -0.222087  0  3.935336  0  0  -0.150022  -0.220738  0  3.921847  0
C  C75  1  0.09573792  0.14061194  0.75435786  1  0  -0.177824  0  3.68487  0  0  -0.221159  0  3.927667  0  0  -0.221889  0  3.935504  0  0  -0.149647  -0.220418  0  3.92203  0
C  C76  1  0.65863493  0.64061903  0.75436219  1  0  -0.176145  0  3.682921  0  0  -0.221445  0  3.927475  0  0  -0.222127  0  3.935332  0  0  -0.150034  -0.220777  0  3.921846  0
C  C77  1  0.90426193  0.85938776  0.24564147  1  0  -0.177814  0  3.684819  0  0  -0.221173  0  3.927631  0  0  -0.221904  0  3.935467  0  0  -0.14966  -0.220431  0  3.921997  0
C  C78  1  0.42251916  0.43101866  0.37614836  1  0  -0.05927  0  3.785383  0  0  -0.065073  0  4.057477  0  0  -0.067817  0  4.080057  0  0  -0.021495  -0.063159  0  4.042513  0
C  C79  1  0.04639337  0.06897117  0.62386183  1  0  -0.056082  0  3.783941  0  0  -0.062849  0  4.056673  0  0  -0.065492  0  4.079136  0  0  -0.020513  -0.061015  0  4.041793  0
C  C80  1  0.57748069  0.56898105  0.62385096  1  0  -0.059237  0  3.785379  0  0  -0.065038  0  4.05745  0  0  -0.067781  0  4.08003  0  0  -0.021474  -0.063125  0  4.042486  0
C  C81  1  0.95360667  0.93102949  0.37613788  1  0  -0.056145  0  3.784001  0  0  -0.062916  0  4.056735  0  0  -0.065559  0  4.079198  0  0  -0.02056  -0.061092  0  4.041871  0
C  C82  1  0.43501057  0.56147462  0.43394425  1  0  0.166753  0  3.789617  0  0  0.128642  0  4.097922  0  0  0.136235  0  4.108848  0  0  0.088313  0.123054  0  4.091296  0
C  C83  1  0.00112146  0.93850819  0.56606418  1  0  0.164829  0  3.791897  0  0  0.127898  0  4.099205  0  0  0.13545  0  4.110126  0  0  0.087366  0.122306  0  4.092626  0
C  C84  1  0.56498928  0.43852509  0.56605579  1  0  0.166673  0  3.789691  0  0  0.128598  0  4.097953  0  0  0.136192  0  4.108879  0  0  0.088287  0.123011  0  4.091326  0
C  C85  1  0.99887840  0.06149152  0.43393514  1  0  0.164772  0  3.791957  0  0  0.127863  0  4.099232  0  0  0.135415  0  4.110153  0  0  0.087379  0.122274  0  4.092655  0
C  C86  1  0.51155173  0.62883852  0.55412401  1  0  0.158395  0  3.801794  0  0  0.1255  0  4.107867  0  0  0.133055  0  4.119067  0  0  0.088429  0.119968  0  4.100853  0
C  C87  1  0.95743443  0.87116722  0.44587574  1  0  0.15786  0  3.802575  0  0  0.124544  0  4.109428  0  0  0.132078  0  4.120635  0  0  0.088952  0.119042  0  4.102423  0
C  C88  1  0.48844812  0.37116119  0.44587604  1  0  0.158418  0  3.801787  0  0  0.125521  0  4.107844  0  0  0.133076  0  4.119044  0  0  0.088433  0.119989  0  4.100829  0
C  C89  1  0.04256542  0.12883248  0.55412358  1  0  0.157874  0  3.80252  0  0  0.124555  0  4.109362  0  0  0.13209  0  4.12057  0  0  0.088963  0.119051  0  4.102355  0
C  C90  1  0.42376451  0.15876435  0.74077202  1  0  0.282875  0  3.79295  0  0  0.284769  0  4.032076  0  0  0.29143  0  4.056575  0  0  0.078351  0.280219  0  4.015172  0
C  C91  1  0.68299322  0.34122622  0.25922874  1  0  0.280689  0  3.7949  0  0  0.283168  0  4.033186  0  0  0.289796  0  4.057715  0  0  0.078009  0.278657  0  4.016251  0
C  C92  1  0.57623534  0.84123536  0.25922802  1  0  0.282766  0  3.793071  0  0  0.284677  0  4.032172  0  0  0.291339  0  4.056672  0  0  0.078314  0.280127  0  4.015265  0
C  C93  1  0.31700664  0.65877348  0.74077058  1  0  0.280682  0  3.794882  0  0  0.283123  0  4.033234  0  0  0.289751  0  4.057764  0  0  0.078015  0.278613  0  4.016299  0
C  C94  1  0.40118091  0.24694402  0.69437870  1  0  -0.184158  0  3.738379  0  0  -0.204442  0  3.991331  0  0  -0.209674  0  4.011529  0  0  -0.11044  -0.200897  0  3.97755  0
C  C95  1  0.70681226  0.25304939  0.30562149  1  0  -0.183189  0  3.739799  0  0  -0.203715  0  3.992051  0  0  -0.208954  0  4.012286  0  0  -0.109801  -0.200173  0  3.978268  0
C  C96  1  0.59881796  0.75305569  0.30562175  1  0  -0.18413  0  3.738465  0  0  -0.204411  0  3.991389  0  0  -0.209644  0  4.011589  0  0  -0.110431  -0.200866  0  3.977606  0
C  C97  1  0.29318760  0.74695032  0.69437855  1  0  -0.183161  0  3.739749  0  0  -0.203687  0  3.992039  0  0  -0.208919  0  4.012258  0  0  -0.1098  -0.200146  0  3.978259  0
C  C98  1  0.36044242  0.20726414  0.57503841  1  0  -0.0591  0  3.818135  0  0  -0.076797  0  4.076524  0  0  -0.075522  0  4.095659  0  0  -0.1023  -0.077446  0  4.06343  0
C  C99  1  0.78539548  0.29272648  0.42495452  1  0  -0.060276  0  3.818559  0  0  -0.077784  0  4.077121  0  0  -0.076559  0  4.096217  0  0  -0.103265  -0.078441  0  4.064095  0
C  C100  1  0.63955645  0.79273557  0.42496204  1  0  -0.059071  0  3.818162  0  0  -0.076772  0  4.076565  0  0  -0.075495  0  4.095698  0  0  -0.102297  -0.077424  0  4.063469  0
C  C101  1  0.21460359  0.70727417  0.57504559  1  0  -0.06028  0  3.818609  0  0  -0.077789  0  4.077164  0  0  -0.076566  0  4.096269  0  0  -0.103261  -0.078445  0  4.064139  0
C  C102  1  0.34404900  0.08010704  0.50104052  1  0  -0.103559  0  3.808397  0  0  -0.120825  0  4.064592  0  0  -0.124769  0  4.087053  0  0  -0.110442  -0.118185  0  4.049546  0
C  C103  1  0.84301019  0.41988835  0.49895660  1  0  -0.102322  0  3.808503  0  0  -0.119773  0  4.064537  0  0  -0.123791  0  4.087052  0  0  -0.109401  -0.117189  0  4.049608  0
C  C104  1  0.65595104  0.91989362  0.49895990  1  0  -0.103617  0  3.808361  0  0  -0.120885  0  4.064564  0  0  -0.12483  0  4.087025  0  0  -0.110462  -0.118244  0  4.049516  0
C  C105  1  0.15698966  0.58011135  0.50104345  1  0  -0.102317  0  3.808568  0  0  -0.119775  0  4.0646  0  0  -0.123795  0  4.087118  0  0  -0.109407  -0.117191  0  4.049673  0
C  C106  1  0.37126433  0.99294101  0.54830635  1  0  -0.060747  0  3.814953  0  0  -0.072769  0  4.066003  0  0  -0.073264  0  4.088811  0  0  -0.098636  -0.072351  0  4.050786  0
C  C107  1  0.82296291  0.50705403  0.45170356  1  0  -0.060513  0  3.813882  0  0  -0.072455  0  4.06483  0  0  -0.072997  0  4.0876  0  0  -0.098418  -0.071976  0  4.049666  0
C  C108  1  0.62873454  0.00705870  0.45169338  1  0  -0.060723  0  3.815005  0  0  -0.072741  0  4.066047  0  0  -0.073238  0  4.088858  0  0  -0.098622  -0.072324  0  4.050828  0
C  C109  1  0.17703792  0.49294568  0.54829608  1  0  -0.06051  0  3.813907  0  0  -0.072448  0  4.064847  0  0  -0.072993  0  4.08762  0  0  -0.098411  -0.071969  0  4.049684  0
C  C110  1  0.41128629  0.03154776  0.66748575  1  0  -0.186434  0  3.726522  0  0  -0.203514  0  3.968399  0  0  -0.20937  0  3.990621  0  0  -0.107429  -0.199502  0  3.953478  0
C  C111  1  0.74380928  0.46844098  0.33251550  1  0  -0.185722  0  3.725255  0  0  -0.202568  0  3.966867  0  0  -0.20841  0  3.989121  0  0  -0.107811  -0.198592  0  3.951937  0
C  C112  1  0.58871455  0.96845194  0.33251461  1  0  -0.186387  0  3.72659  0  0  -0.203422  0  3.968456  0  0  -0.209279  0  3.990681  0  0  -0.107374  -0.199409  0  3.953533  0
C  C113  1  0.25619057  0.53155873  0.66748383  1  0  -0.185648  0  3.725224  0  0  -0.20245  0  3.966819  0  0  -0.208293  0  3.989074  0  0  -0.10776  -0.198475  0  3.95189  0
N  N114  1  0.91680772  0.33880988  0.13454786  1  0  -0.345489  0  3.243523  0  0  -0.271103  0  3.508898  0  0  -0.291677  0  3.528743  0  0  -0.336143  -0.256957  0  3.495096  0
N  N115  1  0.78226913  0.16119649  0.86545688  1  0  -0.345261  0  3.241906  0  0  -0.271229  0  3.507725  0  0  -0.291813  0  3.527588  0  0  -0.335943  -0.257119  0  3.494004  0
N  N116  1  0.08319232  0.66119077  0.86545185  1  0  -0.345577  0  3.243445  0  0  -0.271188  0  3.50883  0  0  -0.291763  0  3.528679  0  0  -0.336187  -0.257042  0  3.495028  0
N  N117  1  0.21773072  0.83880321  0.13454388  1  0  -0.345211  0  3.242007  0  0  -0.27118  0  3.50781  0  0  -0.291764  0  3.527674  0  0  -0.335903  -0.25707  0  3.49409  0
N  N118  1  0.66352042  0.52260888  0.00822236  1  0  0.687226  0  4.164656  0  0  0.715681  0  4.462766  0  0  0.743976  0  4.468185  0  0  0.093991  0.696478  0  4.458785  0
N  N119  1  0.65531800  0.97739952  0.99178043  1  0  0.688019  0  4.165303  0  0  0.716605  0  4.463056  0  0  0.744908  0  4.468541  0  0  0.094772  0.697447  0  4.458983  0
N  N120  1  0.33647845  0.47739083  0.99177665  1  0  0.687249  0  4.16469  0  0  0.715729  0  4.462741  0  0  0.744022  0  4.468168  0  0  0.093987  0.696527  0  4.458758  0
N  N121  1  0.34468204  0.02260113  0.00821999  1  0  0.68806  0  4.165302  0  0  0.71663  0  4.463088  0  0  0.744929  0  4.468585  0  0  0.094796  0.697474  0  4.459014  0
N  N122  1  0.46047614  0.19943084  0.86208120  1  0  -0.668621  0  3.151995  0  0  -0.60921  0  3.387634  0  0  -0.631185  0  3.387054  0  0  -0.612929  -0.593711  0  3.387717  0
N  N123  1  0.59839058  0.30056912  0.13792353  1  0  -0.667118  0  3.150949  0  0  -0.608582  0  3.386592  0  0  -0.630489  0  3.386082  0  0  -0.613316  -0.593152  0  3.386687  0
N  N124  1  0.53952391  0.80056981  0.13791923  1  0  -0.668564  0  3.151923  0  0  -0.609149  0  3.387579  0  0  -0.631123  0  3.386997  0  0  -0.612895  -0.59365  0  3.387661  0
N  N125  1  0.40161045  0.69943153  0.86207649  1  0  -0.667085  0  3.150955  0  0  -0.608551  0  3.386608  0  0  -0.63046  0  3.386099  0  0  -0.613345  -0.593121  0  3.386704  0
O  O126  1  0.69655582  0.42688668  0.94479982  1  0  -0.500926  0  1.823274  0  0  -0.476408  0  2.062176  0  0  -0.494796  0  2.054248  0  0  -0.200003  -0.463212  0  2.067114  0
O  O127  1  0.75178278  0.07311468  0.05522353  1  0  -0.50196  0  1.82441  0  0  -0.476936  0  2.062849  0  0  -0.495353  0  2.054921  0  0  -0.200479  -0.463709  0  2.067767  0
O  O128  1  0.30344403  0.57311303  0.05519950  1  0  -0.500886  0  1.823289  0  0  -0.476382  0  2.062196  0  0  -0.494775  0  2.054272  0  0  -0.199971  -0.463186  0  2.067134  0
O  O129  1  0.24821805  0.92688502  0.94477683  1  0  -0.501977  0  1.824471  0  0  -0.476929  0  2.062863  0  0  -0.495343  0  2.054933  0  0  -0.200487  -0.463702  0  2.067779  0
O  O130  1  0.64851657  0.52276816  0.09366649  1  0  -0.467723  0  1.770915  0  0  -0.458841  0  1.992046  0  0  -0.473168  0  1.985594  0  0  -0.188764  -0.448796  0  1.996473  0
O  O131  1  0.55487234  0.97727409  0.90635332  1  0  -0.467732  0  1.769257  0  0  -0.459826  0  1.991512  0  0  -0.474178  0  1.985035  0  0  -0.189544  -0.449726  0  1.995915  0
O  O132  1  0.35148366  0.47723343  0.90633359  1  0  -0.467763  0  1.770912  0  0  -0.45888  0  1.992027  0  0  -0.4732  0  1.985575  0  0  -0.188786  -0.448834  0  1.996453  0
O  O133  1  0.44512770  0.02272656  0.09364854  1  0  -0.467776  0  1.769253  0  0  -0.45985  0  1.991502  0  0  -0.474207  0  1.985036  0  0  -0.189559  -0.449747  0  1.995903  0
O  O134  1  0.64758681  0.61586212  0.98430889  1  0  -0.448433  0  1.783828  0  0  -0.430917  0  1.993987  0  0  -0.445488  0  1.988609  0  0  -0.175634  -0.420593  0  1.997522  0
O  O135  1  0.66328427  0.88412172  0.01565960  1  0  -0.448125  0  1.784535  0  0  -0.430331  0  1.994308  0  0  -0.444823  0  1.988796  0  0  -0.175041  -0.420229  0  1.998084  0
O  O136  1  0.35241187  0.38413664  0.01568973  1  0  -0.448441  0  1.783829  0  0  -0.43095  0  1.99398  0  0  -0.445518  0  1.988602  0  0  -0.175631  -0.420625  0  1.997514  0
O  O137  1  0.33671578  0.11587893  0.98434083  1  0  -0.448125  0  1.784541  0  0  -0.430333  0  1.99432  0  0  -0.444825  0  1.988809  0  0  -0.175038  -0.420242  0  1.998107  0
F  F138  1  0.37047080  0.62502931  0.37136202  1  0  -0.172582  0  1.241797  0  0  -0.109941  0  1.400784  0  0  -0.119302  0  1.393393  0  0  -0.079476  -0.103114  0  1.405909  0
F  F139  1  0.99925557  0.87494799  0.62865449  1  0  -0.172466  0  1.242786  0  0  -0.110078  0  1.401415  0  0  -0.119442  0  1.394024  0  0  -0.07967  -0.103269  0  1.40659  0
F  F140  1  0.62952807  0.37497040  0.62863699  1  0  -0.172546  0  1.241787  0  0  -0.109933  0  1.40078  0  0  -0.119294  0  1.393388  0  0  -0.079466  -0.103106  0  1.405904  0
F  F141  1  0.00074330  0.12505171  0.37134452  1  0  -0.172464  0  1.2428  0  0  -0.110076  0  1.401416  0  0  -0.119439  0  1.394024  0  0  -0.079682  -0.103266  0  1.40659  0
F  F142  1  0.52266717  0.75622984  0.60386498  1  0  -0.157054  0  1.239587  0  0  -0.109254  0  1.413641  0  0  -0.118583  0  1.405968  0  0  -0.076542  -0.102392  0  1.418847  0
F  F143  1  0.91879441  0.74376832  0.39611400  1  0  -0.157113  0  1.240228  0  0  -0.109166  0  1.414296  0  0  -0.118503  0  1.406649  0  0  -0.076618  -0.102317  0  1.41953  0
F  F144  1  0.47733268  0.24376987  0.39613507  1  0  -0.157068  0  1.239586  0  0  -0.109268  0  1.413635  0  0  -0.118596  0  1.405962  0  0  -0.07655  -0.102406  0  1.418842  0
F  F145  1  0.08120563  0.25623233  0.60388571  1  0  -0.15714  0  1.240169  0  0  -0.109198  0  1.414235  0  0  -0.118534  0  1.406589  0  0  -0.076648  -0.102349  0  1.419471  0
