# generated using pymatgen
data_CdH32C40(N9O4)2
_symmetry_space_group_name_H-M   'P 1'
_cell_length_a   7.74073799
_cell_length_b   8.57475174
_cell_length_c   17.33975606
_cell_angle_alpha   78.94007718
_cell_angle_beta   83.58344239
_cell_angle_gamma   65.99016530
_symmetry_Int_Tables_number   1
_chemical_formula_structural   CdH32C40(N9O4)2
_chemical_formula_sum   'Cd1 H32 C40 N18 O8'
_cell_volume   1031.08595212
_cell_formula_units_Z   1
loop_
 _symmetry_equiv_pos_site_id
 _symmetry_equiv_pos_as_xyz
  1  'x, y, z'
loop_
 _atom_site_type_symbol
 _atom_site_label
 _atom_site_symmetry_multiplicity
 _atom_site_fract_x
 _atom_site_fract_y
 _atom_site_fract_z
 _atom_site_occupancy
 _atom_site_hle17_bader_spin_density
 _atom_site_hle17_ddec_charge
 _atom_site_hle17_ddec_spin_density
 _atom_site_hle17_ddec_sum_bond_order
 _atom_site_hle17_magmom
 _atom_site_hse06_10hf_bader_spin_density
 _atom_site_hse06_10hf_ddec_charge
 _atom_site_hse06_10hf_ddec_spin_density
 _atom_site_hse06_10hf_ddec_sum_bond_order
 _atom_site_hse06_10hf_magmom
 _atom_site_hse06_bader_spin_density
 _atom_site_hse06_ddec_charge
 _atom_site_hse06_ddec_spin_density
 _atom_site_hse06_ddec_sum_bond_order
 _atom_site_hse06_magmom
 _atom_site_pbe_bader_spin_density
 _atom_site_pbe_cm5_charge
 _atom_site_pbe_ddec_charge
 _atom_site_pbe_ddec_spin_density
 _atom_site_pbe_ddec_sum_bond_order
 _atom_site_pbe_magmom
Cd  Cd0  1  0.99999981  0.99999968  0.00000140  1  0  1.058639  0  1.789964  0  0  0.855906  0  2.24833  0  0  0.908707  0  2.202944  0  0  0.787306  0.818088  0  2.279517  0
H  H1  1  0.20012832  0.09921216  0.27517349  1  0  0.101562  0  0.961149  0  0  0.10905  0  1.028035  0  0  0.112108  0  1.025749  0  0  0.102925  0.106752  0  1.029845  0
H  H2  1  0.79987381  0.90078261  0.72482662  1  0  0.101599  0  0.96114  0  0  0.109087  0  1.028019  0  0  0.112146  0  1.025734  0  0  0.102942  0.106784  0  1.029832  0
H  H3  1  0.96426307  0.37300295  0.20696502  1  0  0.083749  0  0.97035  0  0  0.093683  0  1.036203  0  0  0.095611  0  1.036364  0  0  0.09561  0.092261  0  1.036217  0
H  H4  1  0.03573832  0.62699052  0.79303411  1  0  0.083787  0  0.970334  0  0  0.093691  0  1.036217  0  0  0.095618  0  1.03638  0  0  0.095617  0.092265  0  1.036236  0
H  H5  1  0.75991556  0.54926319  0.42880538  1  0  0.101013  0  0.984375  0  0  0.102353  0  1.059222  0  0  0.10644  0  1.056543  0  0  0.099342  0.099427  0  1.061184  0
H  H6  1  0.24007803  0.45073028  0.57119357  1  0  0.101028  0  0.984316  0  0  0.102342  0  1.059181  0  0  0.106441  0  1.056493  0  0  0.099342  0.099419  0  1.061142  0
H  H7  1  0.99451136  0.27446495  0.49815199  1  0  0.103743  0  0.933161  0  0  0.115741  0  0.988807  0  0  0.119105  0  0.986749  0  0  0.106969  0.113267  0  0.990414  0
H  H8  1  0.00548631  0.72553111  0.50184707  1  0  0.103746  0  0.933138  0  0  0.115757  0  0.988773  0  0  0.119111  0  0.986725  0  0  0.106964  0.113283  0  0.990385  0
H  H9  1  0.62746658  0.61999077  0.23068227  1  0  0.093763  0  0.954776  0  0  0.101426  0  1.028966  0  0  0.102645  0  1.028138  0  0  0.115293  0.100491  0  1.029611  0
H  H10  1  0.37253258  0.38000786  0.76931588  1  0  0.093796  0  0.954698  0  0  0.101484  0  1.028894  0  0  0.102692  0  1.028061  0  0  0.115312  0.100547  0  1.029541  0
H  H11  1  0.60703218  0.72490527  0.31255447  1  0  0.111837  0  0.936763  0  0  0.119101  0  1.006579  0  0  0.121378  0  1.003942  0  0  0.11883  0.117399  0  1.008553  0
H  H12  1  0.39296847  0.27508690  0.68744482  1  0  0.111841  0  0.936702  0  0  0.119157  0  1.006482  0  0  0.121422  0  1.00384  0  0  0.118864  0.117461  0  1.008448  0
H  H13  1  0.73436307  0.75674484  0.10466663  1  0  0.11632  0  0.961437  0  0  0.117652  0  1.039009  0  0  0.121297  0  1.033955  0  0  0.137926  0.11495  0  1.042604  0
H  H14  1  0.26563367  0.24325641  0.89533313  1  0  0.11633  0  0.961448  0  0  0.117679  0  1.039  0  0  0.121326  0  1.033943  0  0  0.137919  0.114961  0  1.042609  0
H  H15  1  0.06355543  0.95782643  0.19922105  1  0  0.096809  0  0.933993  0  0  0.105868  0  0.995467  0  0  0.107815  0  0.99313  0  0  0.135152  0.104329  0  0.997285  0
H  H16  1  0.93644261  0.04217485  0.80078152  1  0  0.096831  0  0.933978  0  0  0.105886  0  0.995456  0  0  0.107833  0  0.993118  0  0  0.135134  0.104357  0  0.997258  0
H  H17  1  0.29694214  0.98520659  0.65176735  1  0  0.102436  0  0.963263  0  0  0.105188  0  1.035786  0  0  0.109413  0  1.032143  0  0  0.102117  0.102168  0  1.038411  0
H  H18  1  0.70305460  0.01479467  0.34823356  1  0  0.102352  0  0.963281  0  0  0.105104  0  1.035812  0  0  0.109327  0  1.032168  0  0  0.102103  0.102086  0  1.038436  0
H  H19  1  0.39481820  0.85921524  0.78770003  1  0  0.093641  0  0.976018  0  0  0.102526  0  1.041285  0  0  0.104524  0  1.041459  0  0  0.099231  0.101094  0  1.041212  0
H  H20  1  0.60518616  0.14079248  0.21229986  1  0  0.093653  0  0.976066  0  0  0.102514  0  1.04136  0  0  0.104513  0  1.041534  0  0  0.099261  0.101083  0  1.041285  0
H  H21  1  0.73851933  0.36859740  0.71434214  1  0  0.096091  0  0.968641  0  0  0.103963  0  1.03355  0  0  0.106752  0  1.032405  0  0  0.101522  0.101972  0  1.034438  0
H  H22  1  0.26147555  0.63140515  0.28565816  1  0  0.09607  0  0.968678  0  0  0.103968  0  1.033565  0  0  0.106758  0  1.03242  0  0  0.101544  0.101978  0  1.034453  0
H  H23  1  0.63940107  0.49351263  0.57778507  1  0  0.105781  0  0.948395  0  0  0.11408  0  1.0114  0  0  0.117301  0  1.00932  0  0  0.108558  0.111761  0  1.01295  0
H  H24  1  0.36059660  0.50649251  0.42221599  1  0  0.105746  0  0.948329  0  0  0.114016  0  1.011383  0  0  0.117234  0  1.009303  0  0  0.108557  0.111702  0  1.012926  0
H  H25  1  0.69325911  0.38684961  0.85380086  1  0  0.104218  0  0.921445  0  0  0.115563  0  0.989253  0  0  0.117091  0  0.987659  0  0  0.117347  0.11442  0  0.990392  0
H  H26  1  0.30674544  0.61315162  0.14619850  1  0  0.104241  0  0.921347  0  0  0.115625  0  0.989142  0  0  0.117154  0  0.987544  0  0  0.117351  0.11448  0  0.990282  0
H  H27  1  0.71541631  0.58080200  0.86555273  1  0  0.09909  0  0.919109  0  0  0.111355  0  0.987505  0  0  0.112822  0  0.985636  0  0  0.118508  0.110227  0  0.98885  0
H  H28  1  0.28458452  0.41920185  0.13444830  1  0  0.0991  0  0.919112  0  0  0.111346  0  0.987545  0  0  0.112809  0  0.985682  0  0  0.118498  0.110221  0  0.988889  0
H  H29  1  0.46606396  0.77446818  0.95164763  1  0  0.112649  0  0.970194  0  0  0.113802  0  1.048457  0  0  0.117136  0  1.04379  0  0  0.137432  0.111287  0  1.051794  0
H  H30  1  0.53393464  0.22554079  0.04834897  1  0  0.112603  0  0.970277  0  0  0.11377  0  1.048504  0  0  0.117104  0  1.043837  0  0  0.137446  0.111256  0  1.051843  0
H  H31  1  0.04449354  0.58539498  0.94733437  1  0  0.091683  0  0.955476  0  0  0.101558  0  1.017984  0  0  0.103572  0  1.015203  0  0  0.130029  0.100006  0  1.020065  0
H  H32  1  0.95550654  0.41460754  0.05266451  1  0  0.091677  0  0.955449  0  0  0.101554  0  1.017958  0  0  0.103568  0  1.015176  0  0  0.130026  0.100002  0  1.020039  0
C  C33  1  0.24613136  0.00672592  0.43000946  1  0  0.348091  0  3.73114  0  0  0.312272  0  4.0159  0  0  0.32965  0  4.024366  0  0  0.21813  0.300724  0  4.010019  0
C  C34  1  0.75386910  0.99327274  0.56999094  1  0  0.348071  0  3.731293  0  0  0.312216  0  4.016086  0  0  0.329594  0  4.024553  0  0  0.218109  0.300662  0  4.010203  0
C  C35  1  0.11073836  0.16863256  0.39106873  1  0  -0.022178  0  3.829522  0  0  -0.005762  0  4.069445  0  0  -0.010019  0  4.092846  0  0  -0.01212  -0.003053  0  4.05357  0
C  C36  1  0.88926006  0.83136480  0.60893074  1  0  -0.022129  0  3.829493  0  0  -0.005685  0  4.06939  0  0  -0.009943  0  4.092789  0  0  -0.012105  -0.00298  0  4.053517  0
C  C37  1  0.10218753  0.19718050  0.30866431  1  0  -0.072573  0  3.723585  0  0  -0.094367  0  3.969552  0  0  -0.09563  0  3.991676  0  0  -0.080953  -0.093268  0  3.954521  0
C  C38  1  0.89781794  0.80281555  0.69133493  1  0  -0.072623  0  3.723718  0  0  -0.094414  0  3.969642  0  0  -0.095677  0  3.991766  0  0  -0.080983  -0.093307  0  3.95461  0
C  C39  1  0.97176813  0.35132999  0.27078240  1  0  -0.114953  0  3.743646  0  0  -0.135564  0  3.994794  0  0  -0.139613  0  4.018701  0  0  -0.092531  -0.132843  0  3.978544  0
C  C40  1  0.02823066  0.64866348  0.72921685  1  0  -0.114973  0  3.743816  0  0  -0.135546  0  3.994933  0  0  -0.139597  0  4.018847  0  0  -0.092514  -0.132824  0  3.978676  0
C  C41  1  0.84855298  0.47924119  0.31359988  1  0  0.093282  0  3.718696  0  0  0.109042  0  3.960455  0  0  0.109213  0  3.985135  0  0  -0.004056  0.109065  0  3.943553  0
C  C42  1  0.15144302  0.52074969  0.68639920  1  0  0.093315  0  3.718627  0  0  0.109084  0  3.960429  0  0  0.109239  0  3.985103  0  0  -0.004053  0.109109  0  3.943525  0
C  C43  1  0.85830651  0.45083987  0.39549482  1  0  -0.109015  0  3.727117  0  0  -0.126081  0  3.977433  0  0  -0.130261  0  3.998857  0  0  -0.087005  -0.123227  0  3.962816  0
C  C44  1  0.14169023  0.54915229  0.60450352  1  0  -0.10899  0  3.726858  0  0  -0.126041  0  3.977224  0  0  -0.130226  0  3.998626  0  0  -0.086973  -0.123191  0  3.962611  0
C  C45  1  0.98815284  0.29659679  0.43425422  1  0  -0.075276  0  3.716557  0  0  -0.104017  0  3.970834  0  0  -0.104028  0  3.99053  0  0  -0.0859  -0.103747  0  3.957331  0
C  C46  1  0.01184762  0.70340186  0.56574503  1  0  -0.075339  0  3.716512  0  0  -0.104096  0  3.970783  0  0  -0.104099  0  3.990484  0  0  -0.085922  -0.103829  0  3.957289  0
C  C47  1  0.70734451  0.64599719  0.27138739  1  0  -0.073507  0  3.632631  0  0  -0.147921  0  3.873559  0  0  -0.144276  0  3.882724  0  0  -0.044184  -0.150086  0  3.867194  0
C  C48  1  0.29265558  0.35399627  0.72861180  1  0  -0.073527  0  3.632417  0  0  -0.148076  0  3.873523  0  0  -0.144381  0  3.882622  0  0  -0.044256  -0.150247  0  3.867156  0
C  C49  1  0.80727362  0.79184642  0.14398172  1  0  0.173895  0  3.630889  0  0  0.09572  0  3.896816  0  0  0.109979  0  3.908272  0  0  0.159948  0.086592  0  3.88889  0
C  C50  1  0.19272312  0.20815483  0.85601862  1  0  0.173825  0  3.630985  0  0  0.095638  0  3.89687  0  0  0.109893  0  3.908331  0  0  0.159923  0.086523  0  3.888956  0
C  C51  1  0.97195438  0.89299968  0.19389482  1  0  0.187517  0  3.72883  0  0  0.135712  0  4.019652  0  0  0.147274  0  4.032279  0  0  0.140159  0.128189  0  4.010922  0
C  C52  1  0.02804570  0.10699384  0.80610840  1  0  0.187562  0  3.728759  0  0  0.13577  0  4.019566  0  0  0.147332  0  4.032194  0  0  0.140236  0.128237  0  4.010828  0
C  C53  1  0.40398367  0.81938464  0.52549874  1  0  0.350424  0  3.723858  0  0  0.313327  0  4.009978  0  0  0.330968  0  4.018418  0  0  0.219126  0.301608  0  4.004104  0
C  C54  1  0.59601586  0.18061920  0.47450177  1  0  0.350366  0  3.72388  0  0  0.313294  0  4.009957  0  0  0.330935  0  4.018397  0  0  0.219106  0.301563  0  4.004087  0
C  C55  1  0.46385528  0.74793157  0.60537118  1  0  -0.0302  0  3.834413  0  0  -0.014303  0  4.074981  0  0  -0.019238  0  4.098975  0  0  -0.01271  -0.01116  0  4.058713  0
C  C56  1  0.53614090  0.25207098  0.39462963  1  0  -0.030249  0  3.834491  0  0  -0.014344  0  4.075033  0  0  -0.019278  0  4.099025  0  0  -0.012726  -0.011198  0  4.058769  0
C  C57  1  0.39404365  0.85024257  0.66507742  1  0  -0.070287  0  3.722604  0  0  -0.097392  0  3.979834  0  0  -0.097913  0  4.000422  0  0  -0.085063  -0.096812  0  3.965785  0
C  C58  1  0.60595587  0.14976127  0.33492309  1  0  -0.070197  0  3.722497  0  0  -0.097302  0  3.979709  0  0  -0.097821  0  4.000299  0  0  -0.08508  -0.096724  0  3.965663  0
C  C59  1  0.44813373  0.77856195  0.74185926  1  0  -0.110386  0  3.734686  0  0  -0.131437  0  3.985544  0  0  -0.135531  0  4.009018  0  0  -0.092399  -0.128665  0  3.969515  0
C  C60  1  0.55186468  0.22144447  0.25814049  1  0  -0.110373  0  3.734749  0  0  -0.131399  0  3.985614  0  0  -0.135491  0  4.009084  0  0  -0.092398  -0.128627  0  3.969585  0
C  C61  1  0.57108870  0.60484363  0.76082869  1  0  0.076683  0  3.72614  0  0  0.096873  0  3.964824  0  0  0.096733  0  3.989113  0  0  -0.006926  0.097158  0  3.948097  0
C  C62  1  0.42891361  0.39516277  0.23917028  1  0  0.076563  0  3.726246  0  0  0.096751  0  3.964987  0  0  0.09661  0  3.989277  0  0  -0.006976  0.097036  0  3.948261  0
C  C63  1  0.64205642  0.50380166  0.70092898  1  0  -0.111807  0  3.731431  0  0  -0.128052  0  3.973678  0  0  -0.132079  0  3.996189  0  0  -0.086046  -0.125388  0  3.958372  0
C  C64  1  0.35794032  0.49619960  0.29907193  1  0  -0.111829  0  3.731526  0  0  -0.128075  0  3.973744  0  0  -0.132104  0  3.996264  0  0  -0.086125  -0.125411  0  3.958442  0
C  C65  1  0.58939090  0.57416003  0.62367190  1  0  -0.055435  0  3.690663  0  0  -0.077496  0  3.936751  0  0  -0.077689  0  3.957166  0  0  -0.073976  -0.077101  0  3.922787  0
C  C66  1  0.41061049  0.42584251  0.37632807  1  0  -0.055308  0  3.69049  0  0  -0.077362  0  3.936605  0  0  -0.077552  0  3.957016  0  0  -0.073927  -0.076968  0  3.922642  0
C  C67  1  0.62312972  0.52841252  0.84553330  1  0  -0.055851  0  3.619008  0  0  -0.136728  0  3.869446  0  0  -0.131966  0  3.877682  0  0  -0.04033  -0.139506  0  3.863559  0
C  C68  1  0.37687296  0.47159000  0.15446546  1  0  -0.055824  0  3.618883  0  0  -0.136755  0  3.869393  0  0  -0.131994  0  3.87763  0  0  -0.040254  -0.139531  0  3.863504  0
C  C69  1  0.38533541  0.70383376  0.94035993  1  0  0.178033  0  3.628891  0  0  0.096448  0  3.905195  0  0  0.111671  0  3.915807  0  0  0.158518  0.087029  0  3.897378  0
C  C70  1  0.61466226  0.29617135  0.05963882  1  0  0.178089  0  3.628893  0  0  0.096492  0  3.905193  0  0  0.111717  0  3.915805  0  0  0.158475  0.087069  0  3.897377  0
C  C71  1  0.17717555  0.60213562  0.93752381  1  0  0.193051  0  3.725252  0  0  0.14125  0  4.013875  0  0  0.152856  0  4.026748  0  0  0.138307  0.133769  0  4.004796  0
C  C72  1  0.82282880  0.39786304  0.06247639  1  0  0.193091  0  3.725169  0  0  0.141283  0  4.013788  0  0  0.152889  0  4.02666  0  0  0.138313  0.133801  0  4.004708  0
N  N73  1  0.35805101  0.86837543  0.40023492  1  0  -0.282122  0  2.909243  0  0  -0.260917  0  3.189214  0  0  -0.270679  0  3.200842  0  0  -0.22531  -0.254348  0  3.18135  0
N  N74  1  0.64195465  0.13162323  0.59976522  1  0  -0.282142  0  2.909326  0  0  -0.260933  0  3.189308  0  0  -0.270696  0  3.200936  0  0  -0.225324  -0.254365  0  3.181443  0
N  N75  1  0.45996623  0.74806259  0.46177162  1  0  -0.277616  0  2.932949  0  0  -0.253645  0  3.218305  0  0  -0.263755  0  3.229984  0  0  -0.218715  -0.246844  0  3.210428  0
N  N76  1  0.54003720  0.25194124  0.53822869  1  0  -0.27759  0  2.932866  0  0  -0.253632  0  3.218216  0  0  -0.263743  0  3.229896  0  0  -0.218699  -0.24683  0  3.21034  0
N  N77  1  0.32193474  0.50849792  0.89476602  1  0  -0.271899  0  2.87301  0  0  -0.266991  0  3.14427  0  0  -0.275467  0  3.157717  0  0  -0.217461  -0.260983  0  3.135218  0
N  N78  1  0.67806906  0.49150203  0.10523408  1  0  -0.271883  0  2.872995  0  0  -0.266977  0  3.144235  0  0  -0.275452  0  3.157681  0  0  -0.2174  -0.260972  0  3.135192  0
N  N79  1  0.45357910  0.57492367  0.89743153  1  0  0.047698  0  3.547652  0  0  0.167516  0  3.736234  0  0  0.156159  0  3.760683  0  0  -0.131006  0.173411  0  3.722358  0
N  N80  1  0.54642303  0.42508015  0.10256713  1  0  0.047708  0  3.547705  0  0  0.167564  0  3.736271  0  0  0.156205  0  3.76072  0  0  -0.131031  0.173459  0  3.722395  0
N  N81  1  0.20912613  0.72485126  0.96670859  1  0  -0.418873  0  3.160306  0  0  -0.348612  0  3.453493  0  0  -0.371036  0  3.467808  0  0  -0.351953  -0.333211  0  3.442892  0
N  N82  1  0.79087155  0.27515383  0.03328844  1  0  -0.418919  0  3.160278  0  0  -0.348623  0  3.453422  0  0  -0.371048  0  3.467737  0  0  -0.351944  -0.333225  0  3.442831  0
N  N83  1  0.80241711  0.74905305  0.22264799  1  0  0.062327  0  3.541682  0  0  0.182262  0  3.72609  0  0  0.172585  0  3.74803  0  0  -0.124904  0.187995  0  3.712187  0
N  N84  1  0.19758371  0.25094172  0.77735219  1  0  0.062312  0  3.541497  0  0  0.182313  0  3.7259  0  0  0.172634  0  3.747802  0  0  -0.12492  0.188044  0  3.711997  0
N  N85  1  0.90664179  0.81239824  0.25564362  1  0  -0.259533  0  2.846711  0  0  -0.257989  0  3.110412  0  0  -0.264783  0  3.121773  0  0  -0.216737  -0.253274  0  3.102774  0
N  N86  1  0.09335774  0.18759653  0.74435662  1  0  -0.259579  0  2.846612  0  0  -0.258054  0  3.110306  0  0  -0.264853  0  3.121673  0  0  -0.21678  -0.25334  0  3.102674  0
N  N87  1  0.91466178  0.88359764  0.12368501  1  0  -0.428293  0  3.222469  0  0  -0.353396  0  3.516901  0  0  -0.377617  0  3.533355  0  0  -0.355799  -0.336848  0  3.505126  0
N  N88  1  0.08533440  0.11640493  0.87631696  1  0  -0.428281  0  3.222644  0  0  -0.353388  0  3.517055  0  0  -0.377612  0  3.533515  0  0  -0.355758  -0.336838  0  3.505271  0
N  N89  1  0.69375103  0.92934791  0.91349646  1  0  0.687932  0  4.156559  0  0  0.721989  0  4.444228  0  0  0.749681  0  4.45015  0  0  0.094283  0.703025  0  4.440045  0
N  N90  1  0.30625166  0.07065464  0.08650460  1  0  0.687784  0  4.156718  0  0  0.722026  0  4.444205  0  0  0.74972  0  4.450132  0  0  0.094305  0.703061  0  4.440022  0
O  O91  1  0.26804554  0.98465730  0.50951756  1  0  -0.266689  0  2.2873  0  0  -0.193903  0  2.506282  0  0  -0.211148  0  2.506908  0  0  -0.102143  -0.182334  0  2.505665  0
O  O92  1  0.73195454  0.01534523  0.49048247  1  0  -0.26667  0  2.287389  0  0  -0.193881  0  2.506368  0  0  -0.211126  0  2.506992  0  0  -0.102123  -0.182294  0  2.505741  0
O  O93  1  0.72957196  0.05464166  0.92813108  1  0  -0.507691  0  1.815582  0  0  -0.482554  0  2.05942  0  0  -0.501057  0  2.049867  0  0  -0.217285  -0.469278  0  2.065577  0
O  O94  1  0.27042737  0.94535962  0.07187142  1  0  -0.507681  0  1.815641  0  0  -0.482612  0  2.059438  0  0  -0.501114  0  2.049883  0  0  -0.217318  -0.469336  0  2.065597  0
O  O95  1  0.74298684  0.78823808  0.96136693  1  0  -0.487431  0  1.750475  0  0  -0.479469  0  1.968343  0  0  -0.494078  0  1.961978  0  0  -0.200507  -0.469111  0  1.972563  0
O  O96  1  0.25701306  0.21176188  0.03863394  1  0  -0.487284  0  1.750532  0  0  -0.479413  0  1.968371  0  0  -0.494023  0  1.962009  0  0  -0.20047  -0.469053  0  1.972587  0
O  O97  1  0.60985168  0.95008287  0.85212139  1  0  -0.441033  0  1.735699  0  0  -0.436704  0  1.945601  0  0  -0.448295  0  1.939769  0  0  -0.182906  -0.428354  0  1.949491  0
O  O98  1  0.39015100  0.04991970  0.14788140  1  0  -0.441004  0  1.73568  0  0  -0.436728  0  1.945508  0  0  -0.448321  0  1.939676  0  0  -0.18293  -0.428378  0  1.949398  0
