# generated using pymatgen
data_ZnH13C22O5
_symmetry_space_group_name_H-M   'P 1'
_cell_length_a   6.58351917
_cell_length_b   11.89172313
_cell_length_c   15.65790304
_cell_angle_alpha   88.94106487
_cell_angle_beta   89.18855106
_cell_angle_gamma   78.91954600
_symmetry_Int_Tables_number   1
_chemical_formula_structural   ZnH13C22O5
_chemical_formula_sum   'Zn2 H26 C44 O10'
_cell_volume   1202.71995103
_cell_formula_units_Z   2
loop_
 _symmetry_equiv_pos_site_id
 _symmetry_equiv_pos_as_xyz
  1  'x, y, z'
loop_
 _atom_site_type_symbol
 _atom_site_label
 _atom_site_symmetry_multiplicity
 _atom_site_fract_x
 _atom_site_fract_y
 _atom_site_fract_z
 _atom_site_occupancy
 _atom_site_pbe_bader_charge
 _atom_site_pbe_bader_spin_density
 _atom_site_pbe_cm5_charge
 _atom_site_pbe_ddec_charge
 _atom_site_pbe_ddec_spin_density
 _atom_site_pbe_ddec_sum_bond_order
 _atom_site_pbe_magmom
Zn  Zn0  1  0.86644882  0.41819624  0.50196389  1  1.318272  0  0.664689  0.918415  0  2.298024  0
Zn  Zn1  1  0.13644450  0.57526364  0.49805883  1  1.317216  0  0.665138  0.918504  0  2.301269  0
H  H2  1  0.08465452  0.22647764  0.27263332  1  0.103032  0  0.10445  0.106127  0  1.016523  0
H  H3  1  0.92625286  0.76722862  0.26509937  1  0.096977  0  0.103941  0.103684  0  1.020113  0
H  H4  1  0.90487659  0.78258794  0.71637669  1  0.09738  0  0.103224  0.106125  0  1.010798  0
H  H5  1  0.09789100  0.21215020  0.72634652  1  0.097614  0  0.102367  0.103238  0  1.016335  0
H  H6  1  0.26742542  0.13911138  0.14238795  1  0.073769  0  0.094937  0.097321  0  1.046381  0
H  H7  1  0.74431334  0.85711788  0.13509883  1  0.097964  0  0.095388  0.097521  0  1.046624  0
H  H8  1  0.72895790  0.86790962  0.84869469  1  0.086288  0  0.094424  0.096576  0  1.050978  0
H  H9  1  0.27785031  0.12660390  0.85807855  1  0.068205  0  0.095109  0.098621  0  1.049784  0
H  H10  1  0.77868763  0.30534098  0.19332162  1  0.07153  0  0.10383  0.106581  0  1.002893  0
H  H11  1  0.23909615  0.68357515  0.19059755  1  0.061344  0  0.103923  0.107481  0  1.003292  0
H  H12  1  0.23285622  0.68573391  0.81017132  1  0.068176  0  0.103658  0.107835  0  0.99521  0
H  H13  1  0.76078393  0.31885768  0.81099590  1  0.051487  0  0.103971  0.108749  0  0.993402  0
H  H14  1  0.59477213  0.39413215  0.32153817  1  0.110989  0  0.105489  0.112088  0  1.021427  0
H  H15  1  0.42222659  0.59232891  0.31850119  1  0.119688  0  0.105596  0.112157  0  1.021651  0
H  H16  1  0.41675473  0.59252742  0.68317589  1  0.123169  0  0.102452  0.111931  0  1.051617  0
H  H17  1  0.57279635  0.41188597  0.68444256  1  0.131075  0  0.101495  0.110963  0  1.058036  0
H  H18  1  0.40123127  0.26911336  0.00243181  1  0.079747  0  0.105186  0.114555  0  0.991955  0
H  H19  1  0.60802700  0.72778053  0.99559045  1  0.05861  0  0.10508  0.114815  0  0.992146  0
H  H20  1  0.85129597  0.06940985  0.21814458  1  0.081183  0  0.106001  0.111204  0  1.000517  0
H  H21  1  0.16905110  0.92240019  0.21632943  1  0.099887  0  0.10615  0.110968  0  1.000757  0
H  H22  1  0.15675845  0.92638949  0.78098064  1  0.103086  0  0.104762  0.108121  0  1.004405  0
H  H23  1  0.83859686  0.07364434  0.78280620  1  0.089494  0  0.104722  0.107733  0  1.004488  0
H  H24  1  0.39864262  0.68796970  0.55227085  1  0.638137  0  0.323452  0.401281  0  0.887239  0
H  H25  1  0.60055264  0.30569159  0.56031901  1  0.641582  0  0.321583  0.398473  0  0.892412  0
H  H26  1  0.51282838  0.36600135  0.47332692  1  0.666007  0  0.298492  0.394798  0  0.944097  0
H  H27  1  0.49296604  0.62549121  0.46772944  1  0.659995  0  0.297874  0.39334  0  0.946668  0
C  C28  1  0.21089653  0.37307078  0.37999019  1  1.512071  0  0.221295  0.591653  0  4.148997  0
C  C29  1  0.80056588  0.61666395  0.37526165  1  1.538461  0  0.221842  0.592093  0  4.152033  0
C  C30  1  0.79118960  0.62080539  0.61819721  1  1.544105  0  0.20704  0.57461  0  4.202888  0
C  C31  1  0.20398706  0.37767518  0.62327654  1  1.555791  0  0.208814  0.578508  0  4.197143  0
C  C32  1  0.32659699  0.31626763  0.30506410  1  -0.004519  0  -0.023378  -0.051207  0  3.979028  0
C  C33  1  0.68722832  0.67370751  0.29971567  1  0.006114  0  -0.023489  -0.053016  0  3.981793  0
C  C34  1  0.67359820  0.68185930  0.69171661  1  -0.059696  0  -0.025141  -0.048198  0  3.990335  0
C  C35  1  0.32217599  0.31778911  0.69739528  1  -0.103087  0  -0.024246  -0.047608  0  3.988325  0
C  C36  1  0.23606305  0.24377755  0.25427195  1  -0.042005  0  -0.082122  -0.081022  0  3.975231  0
C  C37  1  0.77657926  0.74872641  0.24769209  1  -0.05728  0  -0.081088  -0.076913  0  3.972963  0
C  C38  1  0.75872576  0.76100242  0.73793553  1  -0.088021  0  -0.0844  -0.084914  0  3.980116  0
C  C39  1  0.24178902  0.23602040  0.74597730  1  -0.078062  0  -0.084144  -0.082308  0  3.978846  0
C  C40  1  0.33861964  0.19511997  0.18175699  1  -0.05195  0  -0.091978  -0.136334  0  3.97729  0
C  C41  1  0.67444819  0.79884734  0.17532555  1  -0.063627  0  -0.092452  -0.13683  0  3.974362  0
C  C42  1  0.65978395  0.80870019  0.81159998  1  0.036482  0  -0.091824  -0.131891  0  3.972693  0
C  C43  1  0.34302228  0.18817282  0.81929244  1  0.000146  0  -0.091949  -0.134555  0  3.972712  0
C  C44  1  0.53534510  0.21598156  0.15920015  1  -0.037035  0  0.000407  0.085934  0  3.997964  0
C  C45  1  0.47948155  0.77672534  0.15425132  1  -0.0212  0  0.000155  0.084084  0  4.00036  0
C  C46  1  0.47006211  0.78215428  0.83849572  1  -0.096414  0  -0.003365  0.078241  0  4.006699  0
C  C47  1  0.53041290  0.21729615  0.84351168  1  -0.028998  0  -0.003038  0.078938  0  4.004306  0
C  C48  1  0.62730337  0.28696639  0.21101148  1  -0.042862  0  -0.088718  -0.137258  0  3.966511  0
C  C49  1  0.38914746  0.70275747  0.20710729  1  -0.094376  0  -0.087827  -0.136209  0  3.968786  0
C  C50  1  0.38053590  0.70683748  0.78982350  1  -0.077027  0  -0.088305  -0.128901  0  3.971729  0
C  C51  1  0.61489533  0.29573171  0.79276649  1  0.010426  0  -0.088452  -0.128034  0  3.969749  0
C  C52  1  0.52367064  0.33722252  0.28297248  1  -0.036128  0  -0.078736  -0.073094  0  3.950603  0
C  C53  1  0.49224967  0.65120109  0.27890838  1  -0.010118  0  -0.079932  -0.073664  0  3.952154  0
C  C54  1  0.48311062  0.65529419  0.71799854  1  -0.022653  0  -0.090883  -0.107854  0  3.980256  0
C  C55  1  0.50999698  0.34726539  0.72121642  1  -0.069301  0  -0.092212  -0.110604  0  3.982115  0
C  C56  1  0.54432237  0.20513845  0.00172976  1  -0.06719  0  -0.087516  -0.178249  0  3.982451  0
C  C57  1  0.46473445  0.79162502  0.99653135  1  -0.017904  0  -0.087801  -0.179408  0  3.98246  0
C  C58  1  0.63719894  0.16714867  0.07950472  1  -0.036613  0  -0.003962  0.02922  0  3.982808  0
C  C59  1  0.37572530  0.82782599  0.07535023  1  -0.061579  0  -0.003167  0.030877  0  3.983032  0
C  C60  1  0.37120951  0.83005912  0.91907065  1  0.067109  0  -0.002697  0.0313  0  3.990324  0
C  C61  1  0.63318755  0.16798317  0.92321259  1  0.010491  0  -0.003088  0.030422  0  3.989533  0
C  C62  1  0.82279778  0.08402834  0.07988514  1  -0.027428  0  -0.007919  0.020265  0  4.005032  0
C  C63  1  0.19015163  0.91085595  0.07784047  1  0.043354  0  -0.008005  0.021006  0  4.003867  0
C  C64  1  0.18528167  0.91256011  0.91918742  1  -0.056712  0  -0.009683  0.019338  0  4.012172  0
C  C65  1  0.81841982  0.08501297  0.92124219  1  0.009453  0  -0.009136  0.020392  0  4.01073  0
C  C66  1  0.91244234  0.04142420  0.00008781  1  -0.034182  0  0.001179  0.003408  0  3.933384  0
C  C67  1  0.09587192  0.95482726  0.99906681  1  -0.020329  0  0.001137  0.002383  0  3.931569  0
C  C68  1  0.92068205  0.03788008  0.15743040  1  -0.019362  0  -0.088445  -0.127508  0  4.009501  0
C  C69  1  0.09645453  0.95524098  0.15644508  1  -0.109578  0  -0.087806  -0.125983  0  4.009355  0
C  C70  1  0.08724490  0.95812373  0.84162554  1  -0.127529  0  -0.088717  -0.127339  0  4.016576  0
C  C71  1  0.91161139  0.04068973  0.84262704  1  -0.036647  0  -0.088513  -0.125768  0  4.016587  0
O  O72  1  0.30440289  0.43468529  0.42700780  1  -1.174806  0  -0.314124  -0.589245  0  2.399578  0
O  O73  1  0.70475008  0.55545598  0.42448633  1  -1.200098  0  -0.3132  -0.58626  0  2.403207  0
O  O74  1  0.74945409  0.52313721  0.60125553  1  -1.171213  0  -0.315342  -0.565514  0  2.390583  0
O  O75  1  0.24407164  0.47551766  0.60255421  1  -1.17493  0  -0.316666  -0.567306  0  2.386649  0
O  O76  1  0.02605905  0.35998087  0.39337516  1  -1.152658  0  -0.300787  -0.519826  0  2.298143  0
O  O77  1  0.98510960  0.62954354  0.38730393  1  -1.150853  0  -0.301005  -0.520471  0  2.300992  0
O  O78  1  0.92318051  0.66878174  0.57871413  1  -1.159971  0  -0.31899  -0.54152  0  2.277644  0
O  O79  1  0.07370863  0.32837507  0.58673205  1  -1.161687  0  -0.319923  -0.543335  0  2.274766  0
O  O80  1  0.64161616  0.32292281  0.50219815  1  -1.255021  0  -0.557286  -0.696145  0  2.085551  0
O  O81  1  0.36216544  0.66991750  0.49468470  1  -1.245259  0  -0.557791  -0.697586  0  2.085683  0
