# generated using pymatgen
data_GdP2H17C16O11
_symmetry_space_group_name_H-M   'P 1'
_cell_length_a   5.59421240
_cell_length_b   9.29231012
_cell_length_c   18.37631836
_cell_angle_alpha   104.51696787
_cell_angle_beta   92.01178520
_cell_angle_gamma   96.51645903
_symmetry_Int_Tables_number   1
_chemical_formula_structural   GdP2H17C16O11
_chemical_formula_sum   'Gd2 P4 H34 C32 O22'
_cell_volume   916.77839520
_cell_formula_units_Z   2
loop_
 _symmetry_equiv_pos_site_id
 _symmetry_equiv_pos_as_xyz
  1  'x, y, z'
loop_
 _atom_site_type_symbol
 _atom_site_label
 _atom_site_symmetry_multiplicity
 _atom_site_fract_x
 _atom_site_fract_y
 _atom_site_fract_z
 _atom_site_occupancy
 _atom_site_hle17_bader_spin_density
 _atom_site_hle17_ddec_charge
 _atom_site_hle17_ddec_spin_density
 _atom_site_hle17_ddec_sum_bond_order
 _atom_site_hle17_magmom
 _atom_site_hse06_10hf_bader_spin_density
 _atom_site_hse06_10hf_ddec_charge
 _atom_site_hse06_10hf_ddec_spin_density
 _atom_site_hse06_10hf_ddec_sum_bond_order
 _atom_site_hse06_10hf_magmom
 _atom_site_hse06_bader_spin_density
 _atom_site_hse06_ddec_charge
 _atom_site_hse06_ddec_spin_density
 _atom_site_hse06_ddec_sum_bond_order
 _atom_site_hse06_magmom
 _atom_site_pbe_bader_spin_density
 _atom_site_pbe_cm5_charge
 _atom_site_pbe_ddec_charge
 _atom_site_pbe_ddec_spin_density
 _atom_site_pbe_ddec_sum_bond_order
 _atom_site_pbe_magmom
Gd  Gd0  1  0.11822728  0.80481548  0.00251859  1  0  2.300504  0  1.778571  0  0  2.226181  0  2.12573  0  0  2.275036  0  2.068907  0  0  1.547752  2.187732  0  2.172904  0
Gd  Gd1  1  0.88177596  0.19518482  0.99748079  1  0  2.300494  0  1.778653  0  0  2.226177  0  2.125807  0  0  2.27503  0  2.068979  0  0  1.547715  2.187725  0  2.172975  0
P  P2  1  0.38646645  0.09827449  0.10559733  1  0  1.561596  0  4.799598  0  0  1.40852  0  5.314793  0  0  1.457603  0  5.274691  0  0  0.333947  1.375153  0  5.339759  0
P  P3  1  0.61353535  0.90171908  0.89440009  1  0  1.561631  0  4.79963  0  0  1.40857  0  5.314828  0  0  1.457652  0  5.274725  0  0  0.333964  1.375182  0  5.339805  0
P  P4  1  0.25866121  0.53216690  0.10504155  1  0  1.590393  0  4.697191  0  0  1.444756  0  5.193937  0  0  1.493734  0  5.153938  0  0  0.387889  1.411413  0  5.219748  0
P  P5  1  0.74133511  0.46783456  0.89495953  1  0  1.590293  0  4.697308  0  0  1.444663  0  5.194032  0  0  1.493639  0  5.154038  0  0  0.387851  1.411307  0  5.219863  0
H  H6  1  0.60273933  0.14480073  0.31627424  1  0  0.09438  0  0.992526  0  0  0.101809  0  1.061528  0  0  0.104938  0  1.060324  0  0  0.098259  0.099749  0  1.062267  0
H  H7  1  0.39726875  0.85519730  0.68372817  1  0  0.094486  0  0.992495  0  0  0.101915  0  1.061474  0  0  0.105039  0  1.060275  0  0  0.098306  0.099855  0  1.062215  0
H  H8  1  0.48246000  0.00457543  0.40913916  1  0  0.11828  0  0.943731  0  0  0.126388  0  1.005194  0  0  0.130199  0  1.001988  0  0  0.111903  0.123799  0  1.007281  0
H  H9  1  0.51753299  0.99542717  0.59086202  1  0  0.118261  0  0.943693  0  0  0.126352  0  1.005171  0  0  0.130168  0  1.001967  0  0  0.111899  0.123764  0  1.007262  0
H  H10  1  0.77234694  0.88096093  0.29813557  1  0  0.091124  0  0.956614  0  0  0.10124  0  1.021139  0  0  0.104138  0  1.019193  0  0  0.103398  0.099222  0  1.022745  0
H  H11  1  0.22766274  0.11903596  0.70186182  1  0  0.09116  0  0.956692  0  0  0.101241  0  1.021248  0  0  0.104135  0  1.019309  0  0  0.103389  0.099226  0  1.022855  0
H  H12  1  0.88978491  0.02463725  0.20484745  1  0  0.100833  0  0.944471  0  0  0.115175  0  0.998715  0  0  0.118305  0  0.997763  0  0  0.105042  0.113076  0  0.999431  0
H  H13  1  0.11022631  0.97535851  0.79514927  1  0  0.100873  0  0.944471  0  0  0.115205  0  0.998718  0  0  0.118334  0  0.997767  0  0  0.1051  0.113118  0  0.999407  0
H  H14  1  0.50404090  0.26186918  0.22536651  1  0  0.137254  0  0.951234  0  0  0.151239  0  1.008331  0  0  0.153086  0  1.008822  0  0  0.110781  0.149987  0  1.008286  0
H  H15  1  0.49597460  0.73812993  0.77463340  1  0  0.137213  0  0.951252  0  0  0.151211  0  1.008365  0  0  0.153057  0  1.008856  0  0  0.110767  0.14995  0  1.008319  0
H  H16  1  0.20128999  0.26761554  0.19682751  1  0  0.149666  0  0.952375  0  0  0.162732  0  1.009338  0  0  0.16479  0  1.010479  0  0  0.115003  0.160973  0  1.009453  0
H  H17  1  0.79871276  0.73238251  0.80317322  1  0  0.149714  0  0.952351  0  0  0.16279  0  1.009307  0  0  0.164847  0  1.010447  0  0  0.115037  0.161022  0  1.009423  0
H  H18  1  0.53420784  0.65351487  0.31042481  1  0  0.10234  0  0.965399  0  0  0.109799  0  1.033074  0  0  0.113171  0  1.031627  0  0  0.100364  0.107472  0  1.034361  0
H  H19  1  0.46577517  0.34649114  0.68957669  1  0  0.10229  0  0.965357  0  0  0.109741  0  1.033066  0  0  0.11313  0  1.031577  0  0  0.100339  0.10741  0  1.034373  0
H  H20  1  0.47713638  0.52049442  0.41098098  1  0  0.11398  0  0.95353  0  0  0.123097  0  1.015273  0  0  0.126743  0  1.012225  0  0  0.111003  0.120618  0  1.017309  0
H  H21  1  0.52285807  0.47951490  0.58902106  1  0  0.114027  0  0.953569  0  0  0.123171  0  1.015257  0  0  0.126811  0  1.012211  0  0  0.111048  0.120698  0  1.017287  0
H  H22  1  0.74800606  0.35878589  0.32435785  1  0  0.085902  0  0.99113  0  0  0.095794  0  1.058049  0  0  0.09855  0  1.056128  0  0  0.102365  0.093748  0  1.059696  0
H  H23  1  0.25199132  0.64121219  0.67564281  1  0  0.085776  0  0.99119  0  0  0.095641  0  1.058167  0  0  0.098408  0  1.05623  0  0  0.102302  0.093572  0  1.059843  0
H  H24  1  0.80437051  0.48646995  0.22067974  1  0  0.10239  0  0.962297  0  0  0.111916  0  1.025569  0  0  0.115102  0  1.024293  0  0  0.101218  0.109772  0  1.026283  0
H  H25  1  0.19562354  0.51352927  0.77932103  1  0  0.10237  0  0.962272  0  0  0.111904  0  1.025538  0  0  0.115091  0  1.024265  0  0  0.101219  0.109763  0  1.02625  0
H  H26  1  0.35224710  0.74659359  0.20880547  1  0  0.150131  0  0.924351  0  0  0.165839  0  0.976092  0  0  0.168102  0  0.976429  0  0  0.114972  0.163989  0  0.976432  0
H  H27  1  0.64773827  0.25340680  0.79119372  1  0  0.150155  0  0.924284  0  0  0.165826  0  0.976067  0  0  0.168088  0  0.976407  0  0  0.114953  0.163973  0  0.976405  0
H  H28  1  0.03988693  0.70158574  0.18453206  1  0  0.143557  0  0.958669  0  0  0.156142  0  1.018796  0  0  0.158504  0  1.018602  0  0  0.114509  0.154342  0  1.019437  0
H  H29  1  0.96010462  0.29841012  0.81546663  1  0  0.143588  0  0.95871  0  0  0.156161  0  1.01883  0  0  0.158521  0  1.01864  0  0  0.11451  0.15436  0  1.019464  0
H  H30  1  0.17176995  0.81268278  0.51116955  1  0  0.394641  0  0.909187  0  0  0.363074  0  0.987038  0  0  0.376151  0  0.969199  0  0  0.303414  0.353858  0  0.996559  0
H  H31  1  0.82822484  0.18731980  0.48883057  1  0  0.394518  0  0.909233  0  0  0.363023  0  0.98696  0  0  0.376085  0  0.96925  0  0  0.303401  0.353814  0  0.996457  0
H  H32  1  0.54976788  0.38857865  0.10113377  1  0  0.43858  0  0.856981  0  0  0.406084  0  0.926767  0  0  0.417142  0  0.910717  0  0  0.32055  0.398669  0  0.937524  0
H  H33  1  0.45023405  0.61142390  0.89886643  1  0  0.438535  0  0.85703  0  0  0.406038  0  0.926837  0  0  0.417096  0  0.910786  0  0  0.320517  0.398624  0  0.937595  0
H  H34  1  0.20088695  0.30305119  0.52195185  1  0  0.395725  0  0.890682  0  0  0.363922  0  0.970007  0  0  0.377146  0  0.956206  0  0  0.304517  0.354592  0  0.97974  0
H  H35  1  0.79911450  0.69694911  0.47804860  1  0  0.395797  0  0.890744  0  0  0.363982  0  0.970076  0  0  0.377207  0  0.956273  0  0  0.304563  0.354656  0  0.979803  0
H  H36  1  0.72413831  0.66893557  0.08248462  1  0  0.45296  0  0.823662  0  0  0.426908  0  0.880348  0  0  0.436408  0  0.866328  0  0  0.321709  0.420221  0  0.890244  0
H  H37  1  0.27586268  0.33106249  0.91751227  1  0  0.452977  0  0.823679  0  0  0.426932  0  0.880324  0  0  0.43643  0  0.866306  0  0  0.321715  0.420242  0  0.890224  0
H  H38  1  0.66890329  0.83622847  0.08847606  1  0  0.469723  0  0.82148  0  0  0.437264  0  0.886526  0  0  0.448418  0  0.870306  0  0  0.306975  0.429337  0  0.898045  0
H  H39  1  0.33109284  0.16377185  0.91151998  1  0  0.469764  0  0.821414  0  0  0.43731  0  0.886449  0  0  0.448463  0  0.870231  0  0  0.30698  0.42938  0  0.897973  0
C  C40  1  0.25554177  0.09526158  0.25368681  1  0  0.168222  0  3.747132  0  0  0.183047  0  3.983458  0  0  0.186678  0  4.008378  0  0  0.001827  0.18066  0  3.968287  0
C  C41  1  0.74446764  0.90473419  0.74631316  1  0  0.168306  0  3.747225  0  0  0.183156  0  3.983513  0  0  0.186787  0  4.008427  0  0  0.001866  0.180759  0  3.968335  0
C  C42  1  0.42046910  0.08647886  0.31110217  1  0  -0.136254  0  3.724148  0  0  -0.156604  0  3.977493  0  0  -0.162468  0  3.998923  0  0  -0.094189  -0.1524  0  3.962943  0
C  C43  1  0.57954151  0.91352252  0.68890015  1  0  -0.136386  0  3.724294  0  0  -0.156735  0  3.977624  0  0  -0.162595  0  3.999056  0  0  -0.094204  -0.152537  0  3.963098  0
C  C44  1  0.35430213  0.00814625  0.36388155  1  0  -0.04154  0  3.704669  0  0  -0.068534  0  3.956244  0  0  -0.065746  0  3.974358  0  0  -0.077467  -0.069826  0  3.943921  0
C  C45  1  0.64570419  0.99185178  0.63611867  1  0  -0.041473  0  3.704715  0  0  -0.068444  0  3.956262  0  0  -0.065674  0  3.974407  0  0  -0.077473  -0.069739  0  3.943942  0
C  C46  1  0.11970238  0.93403607  0.35959648  1  0  -0.093618  0  3.780367  0  0  -0.073679  0  4.0198  0  0  -0.084215  0  4.044547  0  0  -0.02319  -0.066874  0  4.005507  0
C  C47  1  0.88030057  0.06596312  0.64040820  1  0  -0.093586  0  3.78041  0  0  -0.07367  0  4.019851  0  0  -0.084203  0  4.044593  0  0  -0.023154  -0.066858  0  4.00555  0
C  C48  1  0.95456468  0.93882519  0.30131040  1  0  -0.044677  0  3.727673  0  0  -0.069558  0  3.979322  0  0  -0.067064  0  3.99862  0  0  -0.076502  -0.071656  0  3.967834  0
C  C49  1  0.04544447  0.06116947  0.69868997  1  0  -0.044823  0  3.727777  0  0  -0.069675  0  3.979409  0  0  -0.06718  0  3.998702  0  0  -0.076524  -0.071786  0  3.967932  0
C  C50  1  0.02124246  0.01956670  0.24914258  1  0  -0.135099  0  3.702161  0  0  -0.154143  0  3.954907  0  0  -0.159563  0  3.97563  0  0  -0.089649  -0.150858  0  3.942268  0
C  C51  1  0.97876135  0.98042798  0.75085664  1  0  -0.135113  0  3.702309  0  0  -0.154161  0  3.955073  0  0  -0.159577  0  3.975789  0  0  -0.089751  -0.150877  0  3.94242  0
C  C52  1  0.33427052  0.19139354  0.20202323  1  0  -0.487579  0  3.6647  0  0  -0.50265  0  3.885811  0  0  -0.512543  0  3.893528  0  0  -0.158768  -0.496203  0  3.881843  0
C  C53  1  0.66574093  0.80860335  0.79797527  1  0  -0.487666  0  3.664745  0  0  -0.502744  0  3.885777  0  0  -0.51263  0  3.893486  0  0  -0.158826  -0.496256  0  3.881771  0
C  C54  1  0.05119119  0.85409460  0.41759363  1  0  0.659215  0  3.813585  0  0  0.603349  0  4.118808  0  0  0.637574  0  4.110712  0  0  0.235408  0.579327  0  4.125432  0
C  C55  1  0.94880499  0.14589788  0.58240468  1  0  0.659292  0  3.81354  0  0  0.603451  0  4.118725  0  0  0.637676  0  4.110625  0  0  0.235463  0.579431  0  4.125349  0
C  C56  1  0.17446079  0.57626253  0.25734689  1  0  0.164671  0  3.755475  0  0  0.181197  0  3.988855  0  0  0.184645  0  4.013254  0  0  0.00153  0.178218  0  3.975177  0
C  C57  1  0.82552832  0.42374681  0.74265347  1  0  0.16456  0  3.755556  0  0  0.18116  0  3.988814  0  0  0.184612  0  4.013206  0  0  0.001488  0.178183  0  3.975136  0
C  C58  1  0.36241789  0.58609941  0.31155741  1  0  -0.131317  0  3.698342  0  0  -0.151049  0  3.952163  0  0  -0.156779  0  3.973654  0  0  -0.090354  -0.147051  0  3.939061  0
C  C59  1  0.63757998  0.41390091  0.68844246  1  0  -0.131097  0  3.698348  0  0  -0.150868  0  3.952144  0  0  -0.156594  0  3.97363  0  0  -0.090281  -0.146878  0  3.93905  0
C  C60  1  0.33185517  0.51246989  0.36866294  1  0  -0.036687  0  3.686831  0  0  -0.063292  0  3.936295  0  0  -0.06045  0  3.954723  0  0  -0.076176  -0.065353  0  3.924027  0
C  C61  1  0.66814083  0.48753830  0.63133898  1  0  -0.036783  0  3.687095  0  0  -0.063356  0  3.936571  0  0  -0.060522  0  3.955038  0  0  -0.076175  -0.065421  0  3.924309  0
C  C62  1  0.11074608  0.42833125  0.37240754  1  0  -0.094516  0  3.791281  0  0  -0.074558  0  4.031149  0  0  -0.085331  0  4.056153  0  0  -0.023952  -0.066913  0  4.015502  0
C  C63  1  0.88924717  0.57167247  0.62759270  1  0  -0.094473  0  3.791471  0  0  -0.074635  0  4.031528  0  0  -0.08541  0  4.05653  0  0  -0.023999  -0.066984  0  4.01587  0
C  C64  1  0.92103642  0.42031421  0.31900444  1  0  -0.055321  0  3.75308  0  0  -0.084536  0  4.00742  0  0  -0.082509  0  4.02744  0  0  -0.081439  -0.085802  0  3.994678  0
C  C65  1  0.07895430  0.57968615  0.68099589  1  0  -0.05523  0  3.75308  0  0  -0.084402  0  4.007471  0  0  -0.082386  0  4.027507  0  0  -0.081407  -0.085648  0  3.994739  0
C  C66  1  0.95259393  0.49246799  0.26190165  1  0  -0.128604  0  3.711092  0  0  -0.146302  0  3.961827  0  0  -0.151017  0  3.981624  0  0  -0.0917  -0.142969  0  3.948986  0
C  C67  1  0.04740192  0.50753122  0.73809696  1  0  -0.128511  0  3.711025  0  0  -0.146232  0  3.961715  0  0  -0.150952  0  3.981517  0  0  -0.091669  -0.142891  0  3.948848  0
C  C68  1  0.20429127  0.65359256  0.19516100  1  0  -0.512175  0  3.714446  0  0  -0.532624  0  3.944835  0  0  -0.542985  0  3.953013  0  0  -0.160372  -0.52585  0  3.94047  0
C  C69  1  0.79570279  0.34640666  0.80483814  1  0  -0.512302  0  3.714522  0  0  -0.53273  0  3.944874  0  0  -0.543093  0  3.953057  0  0  -0.160391  -0.525943  0  3.940483  0
C  C70  1  0.06811439  0.34665942  0.43106708  1  0  0.661332  0  3.80247  0  0  0.605995  0  4.104418  0  0  0.640306  0  4.09617  0  0  0.24009  0.582211  0  4.10988  0
C  C71  1  0.93188278  0.65333754  0.56893018  1  0  0.661159  0  3.802476  0  0  0.605761  0  4.104532  0  0  0.640065  0  4.096298  0  0  0.23997  0.581978  0  4.109992  0
O  O72  1  0.45416532  0.93909849  0.09644164  1  0  -0.946308  0  1.951764  0  0  -0.875239  0  2.209063  0  0  -0.90152  0  2.18976  0  0  -0.41249  -0.856029  0  2.221321  0
O  O73  1  0.54583468  0.06089509  0.90355631  1  0  -0.946377  0  1.951712  0  0  -0.87534  0  2.209043  0  0  -0.90162  0  2.18974  0  0  -0.412522  -0.856123  0  2.221305  0
O  O74  1  0.14345128  0.07166731  0.05692502  1  0  -1.045595  0  2.051576  0  0  -0.983384  0  2.335653  0  0  -1.010294  0  2.315012  0  0  -0.52111  -0.963277  0  2.349004  0
O  O75  1  0.85654937  0.92833749  0.94307381  1  0  -1.045578  0  2.051601  0  0  -0.983368  0  2.335669  0  0  -1.01028  0  2.31503  0  0  -0.521112  -0.963261  0  2.34903  0
O  O76  1  0.58047554  0.20505326  0.08059192  1  0  -0.95389  0  1.975581  0  0  -0.883218  0  2.244918  0  0  -0.908613  0  2.222169  0  0  -0.451959  -0.864595  0  2.260003  0
O  O77  1  0.41953078  0.79494478  0.91940830  1  0  -0.953883  0  1.97561  0  0  -0.883224  0  2.244957  0  0  -0.908623  0  2.222208  0  0  -0.451939  -0.864601  0  2.260047  0
O  O78  1  0.21976012  0.87414262  0.47233220  1  0  -0.538605  0  2.11814  0  0  -0.487711  0  2.341069  0  0  -0.510154  0  2.32386  0  0  -0.321945  -0.471927  0  2.350534  0
O  O79  1  0.78024439  0.12585543  0.52767072  1  0  -0.538502  0  2.118406  0  0  -0.487628  0  2.341211  0  0  -0.510075  0  2.324122  0  0  -0.321886  -0.471847  0  2.350666  0
O  O80  1  0.85163429  0.77605492  0.41456113  1  0  -0.570979  0  1.993511  0  0  -0.517335  0  2.214486  0  0  -0.540847  0  2.207159  0  0  -0.283844  -0.501325  0  2.220105  0
O  O81  1  0.14836431  0.22394876  0.58543916  1  0  -0.57105  0  1.993335  0  0  -0.517386  0  2.214243  0  0  -0.540897  0  2.206915  0  0  -0.283885  -0.501378  0  2.219867  0
O  O82  1  0.25079936  0.62162695  0.04642746  1  0  -0.960171  0  1.991064  0  0  -0.898786  0  2.269812  0  0  -0.924773  0  2.248723  0  0  -0.48289  -0.880274  0  2.283695  0
O  O83  1  0.74920006  0.37837224  0.95357228  1  0  -0.960159  0  1.991098  0  0  -0.898781  0  2.269849  0  0  -0.924767  0  2.248762  0  0  -0.482887  -0.880262  0  2.283735  0
O  O84  1  0.53169008  0.49870729  0.11506120  1  0  -0.759941  0  1.988972  0  0  -0.683714  0  2.206315  0  0  -0.704587  0  2.180883  0  0  -0.374946  -0.669467  0  2.223525  0
O  O85  1  0.46830803  0.50129415  0.88493990  1  0  -0.759855  0  1.989036  0  0  -0.683634  0  2.206377  0  0  -0.704505  0  2.180947  0  0  -0.374895  -0.669389  0  2.223594  0
O  O86  1  0.08903812  0.38660722  0.08828783  1  0  -0.951826  0  1.985487  0  0  -0.888159  0  2.259064  0  0  -0.913814  0  2.238928  0  0  -0.465927  -0.869461  0  2.272339  0
O  O87  1  0.91096490  0.61339195  0.91170977  1  0  -0.951781  0  1.985503  0  0  -0.888115  0  2.259069  0  0  -0.913771  0  2.238935  0  0  -0.465931  -0.869407  0  2.272336  0
O  O88  1  0.24584895  0.36359672  0.48278517  1  0  -0.528859  0  2.107199  0  0  -0.477447  0  2.328645  0  0  -0.499642  0  2.314238  0  0  -0.316083  -0.461625  0  2.338166  0
O  O89  1  0.75414941  0.63640585  0.51721444  1  0  -0.528825  0  2.107496  0  0  -0.477353  0  2.32894  0  0  -0.499544  0  2.314535  0  0  -0.316056  -0.461533  0  2.338462  0
O  O90  1  0.87156166  0.26678926  0.43004722  1  0  -0.56244  0  2.030343  0  0  -0.506606  0  2.24848  0  0  -0.529947  0  2.240003  0  0  -0.280338  -0.49005  0  2.253514  0
O  O91  1  0.12844171  0.73322001  0.56995656  1  0  -0.562449  0  2.0303  0  0  -0.506487  0  2.248415  0  0  -0.529836  0  2.239915  0  0  -0.280211  -0.489924  0  2.253446  0
O  O92  1  0.79982429  0.76863165  0.08080872  1  0  -0.931342  0  1.804826  0  0  -0.892352  0  2.00045  0  0  -0.911603  0  1.968065  0  0  -0.639156  -0.878376  0  2.023783  0
O  O93  1  0.20017362  0.23136867  0.91918734  1  0  -0.931393  0  1.804843  0  0  -0.892396  0  2.000395  0  0  -0.911643  0  1.968014  0  0  -0.639157  -0.878422  0  2.023728  0
