# generated using pymatgen
data_Zn2H21C22N8Cl
_symmetry_space_group_name_H-M   'P 1'
_cell_length_a   13.00382245
_cell_length_b   13.32801433
_cell_length_c   14.45689547
_cell_angle_alpha   98.35135445
_cell_angle_beta   114.48227209
_cell_angle_gamma   108.86700704
_symmetry_Int_Tables_number   1
_chemical_formula_structural   Zn2H21C22N8Cl
_chemical_formula_sum   'Zn4 H42 C44 N16 Cl2'
_cell_volume   2041.20926087
_cell_formula_units_Z   2
loop_
 _symmetry_equiv_pos_site_id
 _symmetry_equiv_pos_as_xyz
  1  'x, y, z'
loop_
 _atom_site_type_symbol
 _atom_site_label
 _atom_site_symmetry_multiplicity
 _atom_site_fract_x
 _atom_site_fract_y
 _atom_site_fract_z
 _atom_site_occupancy
 _atom_site_pbe_bader_charge
 _atom_site_pbe_bader_spin_density
 _atom_site_pbe_cm5_charge
 _atom_site_pbe_ddec_charge
 _atom_site_pbe_ddec_spin_density
 _atom_site_pbe_ddec_sum_bond_order
 _atom_site_pbe_magmom
C  C0  1  0.54327150  0.77481460  0.11777694  1  0.343594  0  0.006208  -0.038873  0  3.95258  0
C  C1  1  0.54222316  0.11692151  0.13641168  1  0.07016  0  -0.03851  0.035555  0  4.116069  0
C  C2  1  0.72778647  0.41835747  0.88879767  1  -0.01665  0  -0.041032  0.034349  0  4.107506  0
C  C3  1  0.16503055  0.17571165  0.69966470  1  -0.0423  0  -0.025602  -0.034704  0  3.995725  0
C  C4  1  0.49178952  0.64723520  0.69928214  1  -0.012316  0  -0.037163  -0.053393  0  4.020046  0
C  C5  1  0.93842193  0.87131722  0.50831223  1  -0.006355  0  -0.160779  -0.186807  0  3.856294  0
C  C6  1  0.63510346  0.66995859  0.51100486  1  -0.035439  0  -0.160534  -0.179669  0  3.854754  0
C  C7  1  0.94746264  0.49791250  0.66668775  1  0.454822  0  -0.022995  -0.069086  0  4.082126  0
C  C8  1  0.01373900  0.97207588  0.61344525  1  0.012452  0  -0.158874  -0.183091  0  3.864001  0
C  C9  1  0.63241136  0.68648751  0.61803852  1  -0.045632  0  -0.164781  -0.186783  0  3.86606  0
C  C10  1  0.11741725  0.94170580  0.47263849  1  -0.007935  0  -0.160857  -0.185974  0  3.870447  0
C  C11  1  0.45411176  0.48385080  0.43857014  1  -0.05739  0  -0.163475  -0.185009  0  3.878607  0
C  C12  1  0.94128928  0.99840804  0.39844768  1  -0.00576  0  -0.160393  -0.183713  0  3.871709  0
C  C13  1  0.41805711  0.65369189  0.41026566  1  -0.025694  0  -0.159364  -0.182964  0  3.858918  0
C  C14  1  0.97473691  0.90089595  0.42316907  1  0.061403  0  -0.010815  0.127995  0  3.838217  0
C  C15  1  0.50346397  0.59419497  0.41522743  1  0.066469  0  -0.01085  0.125878  0  3.825663  0
C  C16  1  0.09425748  0.07608236  0.59923721  1  0.08236  0  -0.009965  0.128744  0  3.832186  0
C  C17  1  0.49732331  0.63458444  0.59682276  1  0.076459  0  -0.011892  0.130646  0  3.834828  0
C  C18  1  0.18735510  0.04764984  0.57245294  1  -0.034059  0  -0.158231  -0.184383  0  3.860437  0
C  C19  1  0.43742237  0.50678337  0.53735829  1  -0.020629  0  -0.166612  -0.187352  0  3.870454  0
C  C20  1  0.40516051  0.49230257  0.21024057  1  0.364576  0  0.008529  -0.045518  0  3.965057  0
C  C21  1  0.83475232  0.79218678  0.21675628  1  0.372986  0  -0.002421  -0.069158  0  4.017036  0
C  C22  1  0.00690471  0.09921018  0.50238211  1  -0.049634  0  -0.159872  -0.1867  0  3.863676  0
C  C23  1  0.64875778  0.22074370  0.18515216  1  0.414696  0  0.013778  -0.049694  0  3.954654  0
C  C24  1  0.42343611  0.68616029  0.52052674  1  0.015493  0  -0.159711  -0.186352  0  3.863403  0
C  C25  1  0.81344218  0.41533082  0.84995179  1  0.01798  0  -0.121404  -0.235013  0  4.049388  0
C  C26  1  0.53847955  0.00770177  0.13846886  1  0.106669  0  -0.112399  -0.219528  0  4.03494  0
C  C27  1  0.81952739  0.43666090  0.76292384  1  0.033851  0  0.004467  0.113529  0  4.087645  0
C  C28  1  0.43988071  0.91050565  0.11150092  1  -0.030249  0  0.008535  0.116602  0  4.063953  0
C  C29  1  0.73051329  0.38862737  0.97928141  1  0.423658  0  0.003571  -0.054533  0  3.960532  0
C  C30  1  0.04243458  0.46290789  0.81631725  1  0.382253  0  -0.016093  -0.07354  0  4.004536  0
C  C31  1  0.33745029  0.69837020  0.02017013  1  0.398289  0  0.005578  -0.042726  0  3.963171  0
C  C32  1  0.89193296  0.69032291  0.31668419  1  0.38304  0  0.002113  -0.064677  0  4.005654  0
C  C33  1  0.61115919  0.57202891  0.30193208  1  0.392875  0  0.005716  -0.046292  0  3.971807  0
C  C34  1  0.43994497  0.80054071  0.09139136  1  0.104979  0  -0.047747  -0.058388  0  4.124577  0
C  C35  1  0.92687532  0.46047475  0.74721811  1  -0.005373  0  -0.063573  -0.080162  0  4.165784  0
C  C36  1  0.50611650  0.56183308  0.31237210  1  0.032263  0  -0.027584  -0.035538  0  3.97592  0
C  C37  1  0.90611269  0.80055105  0.32377642  1  0.023217  0  -0.031289  -0.044206  0  4.012433  0
C  C38  1  0.64591596  0.47093649  0.86658298  1  0.3903  0  0.002374  -0.046808  0  3.922777  0
C  C39  1  0.44473285  0.14438555  0.07612973  1  0.339459  0  0.002937  -0.057128  0  3.983888  0
C  C40  1  0.21989737  0.17725673  0.80610845  1  0.37895  0  -0.00065  -0.067781  0  3.999884  0
C  C41  1  0.58903560  0.68380133  0.80536232  1  0.390575  0  -0.00277  -0.070611  0  4.021156  0
C  C42  1  0.38388953  0.60044583  0.70757404  1  0.391844  0  0.002829  -0.060259  0  3.985389  0
C  C43  1  0.19692655  0.28957119  0.70945568  1  0.424585  0  0.013565  -0.041588  0  3.951875  0
Cl  Cl44  1  0.69247134  0.44471239  0.66100712  1  -0.251387  0  0.005249  -0.078464  0  1.625851  0
Cl  Cl45  1  0.29430137  0.90772753  0.08268255  1  -0.241245  0  -0.022026  -0.097744  0  1.469787  0
H  H46  1  0.64155463  0.82793830  0.17274575  1  0.112085  0  0.109131  0.089107  0  1.05523  0
H  H47  1  0.68599378  0.64744368  0.66821502  1  0.038663  0  0.078154  0.071986  0  1.039108  0
H  H48  1  0.07466186  0.95124963  0.67957980  1  0.001455  0  0.088283  0.083228  0  0.986878  0
H  H49  1  0.14166101  0.87331112  0.49377428  1  0.021441  0  0.089945  0.087447  0  0.981814  0
H  H50  1  0.52073613  0.44633994  0.45038300  1  0.030699  0  0.082875  0.082094  0  1.002701  0
H  H51  1  0.25343789  0.03573277  0.64280520  1  0.030438  0  0.089411  0.08582  0  0.985198  0
H  H52  1  0.47856732  0.46546540  0.59334275  1  0.022867  0  0.079959  0.079013  0  1.032634  0
H  H53  1  0.88235294  0.51028951  0.59750962  1  0.059929  0  0.095872  0.085182  0  1.029695  0
H  H54  1  0.96839280  0.02349658  0.33971759  1  -0.010582  0  0.085931  0.078971  0  0.989848  0
H  H55  1  0.32175513  0.59778887  0.34667575  1  -0.006234  0  0.085058  0.079531  0  0.987882  0
H  H56  1  0.83917534  0.96858667  0.36026759  1  0.017907  0  0.086271  0.078766  0  0.995388  0
H  H57  1  0.44699757  0.72830778  0.38672331  1  0.030268  0  0.087952  0.084769  0  0.985676  0
H  H58  1  0.93811789  0.11645626  0.51932873  1  0.040102  0  0.091602  0.090028  0  0.976486  0
H  H59  1  0.46869747  0.77775714  0.55852050  1  -0.007318  0  0.087507  0.084323  0  0.983879  0
H  H60  1  0.06110849  0.17541019  0.49266372  1  0.013409  0  0.088251  0.082055  0  0.9929  0
H  H61  1  0.32877164  0.65719596  0.51015588  1  0.0017  0  0.08685  0.083001  0  0.991288  0
H  H62  1  0.14329172  0.95816228  0.41112353  1  0.016013  0  0.088573  0.08421  0  0.985138  0
H  H63  1  0.36553258  0.42386762  0.36727358  1  0.034897  0  0.082815  0.076012  0  0.998673  0
H  H64  1  0.30541463  0.46234270  0.18037719  1  0.091682  0  0.117157  0.104932  0  0.995623  0
H  H65  1  0.82140665  0.85766377  0.18317890  1  0.052127  0  0.11624  0.101791  0  1.012123  0
H  H66  1  0.24285763  0.12031735  0.55934405  1  0.011985  0  0.089367  0.087145  0  0.98069  0
H  H67  1  0.33779640  0.47309651  0.51398046  1  0.002136  0  0.084856  0.080242  0  0.98915  0
H  H68  1  0.89454539  0.40580957  0.90629410  1  0.049294  0  0.09901  0.115162  0  1.001583  0
H  H69  1  0.83748032  0.84617390  0.47454469  1  0.007078  0  0.086508  0.07921  0  1.009304  0
H  H70  1  0.62532651  0.99990006  0.15636530  1  0.049263  0  0.103257  0.119224  0  0.997532  0
H  H71  1  0.07229528  0.44112740  0.88972979  1  0.071049  0  0.106609  0.093279  0  1.015173  0
H  H72  1  0.23888523  0.67959534  0.97721649  1  0.119757  0  0.114938  0.108142  0  1.020906  0
H  H73  1  0.93170556  0.65643725  0.37974195  1  0.088409  0  0.119201  0.107905  0  0.991981  0
H  H74  1  0.70953454  0.61908813  0.36045285  1  0.096304  0  0.113573  0.096455  0  1.047666  0
H  H75  1  0.67062732  0.75093249  0.49869224  1  0.023668  0  0.085818  0.080083  0  0.996387  0
H  H76  1  0.61621136  0.50808033  0.80418898  1  0.145208  0  0.106616  0.095892  0  1.07057  0
H  H77  1  0.34617631  0.09030905  0.02391195  1  0.146602  0  0.107769  0.097067  0  1.041838  0
H  H78  1  0.22044366  0.10853410  0.83817787  1  0.081289  0  0.115977  0.104091  0  1.017493  0
H  H79  1  0.68937047  0.72421388  0.83732898  1  0.092517  0  0.115957  0.105987  0  1.000324  0
H  H80  1  0.28578965  0.56294363  0.64656355  1  0.076233  0  0.114483  0.102359  0  1.021216  0
H  H81  1  0.17260185  0.32843918  0.64738721  1  0.101199  0  0.122889  0.112388  0  1.001491  0
H  H82  1  0.74561411  0.23936239  0.23855156  1  0.088804  0  0.121038  0.111974  0  0.985333  0
H  H83  1  0.78203466  0.34614529  0.02412547  1  0.071609  0  0.11504  0.103302  0  0.995901  0
H  H84  1  0.95462484  0.79806858  0.52431656  1  -0.007731  0  0.089604  0.085841  0  0.988319  0
H  H85  1  0.69922589  0.63174045  0.51361586  1  0.014658  0  0.085972  0.079458  0  1.003975  0
H  H86  1  0.95110399  0.99262361  0.63749050  1  0.000863  0  0.088241  0.083595  0  0.985618  0
H  H87  1  0.67642101  0.77617439  0.66430174  1  0.00854  0  0.085794  0.081214  0  0.984008  0
N  N88  1  0.50518127  0.66705568  0.06342371  1  -0.785071  0  -0.273104  -0.171344  0  3.553799  0
N  N89  1  0.37753996  0.61958306  0.00304637  1  -0.805037  0  -0.286763  -0.192979  0  3.572483  0
N  N90  1  0.12175226  0.49900750  0.77829744  1  -0.826075  0  -0.293057  -0.168232  0  3.689359  0
N  N91  1  0.81562095  0.62169231  0.21392481  1  -0.793109  0  -0.282839  -0.180709  0  3.565971  0
N  N92  1  0.57575707  0.51116487  0.20223980  1  -0.791021  0  -0.289038  -0.1987  0  3.632348  0
N  N93  1  0.60805574  0.47597862  0.94081453  1  -0.801719  0  -0.287002  -0.205838  0  3.556916  0
N  N94  1  0.49011658  0.25443498  0.08868839  1  -0.825356  0  -0.287264  -0.192683  0  3.621434  0
N  N95  1  0.06426090  0.52112980  0.68561310  1  -0.708475  0  -0.288975  -0.262515  0  3.2466  0
N  N96  1  0.27903493  0.28446224  0.87351172  1  -0.796599  0  -0.299029  -0.200382  0  3.707113  0
N  N97  1  0.54247730  0.65887479  0.87158379  1  -0.800518  0  -0.286223  -0.195403  0  3.555796  0
N  N98  1  0.41507936  0.60653730  0.81003585  1  -0.799897  0  -0.281856  -0.160311  0  3.581629  0
N  N99  1  0.26503841  0.35408684  0.81341795  1  -0.775534  0  -0.271455  -0.173913  0  3.584288  0
N  N100  1  0.61658997  0.30260386  0.15734625  1  -0.79336  0  -0.272887  -0.174576  0  3.568127  0
N  N101  1  0.65944803  0.42356710  0.00939844  1  -0.815856  0  -0.296851  -0.20535  0  3.656391  0
N  N102  1  0.44868643  0.46221150  0.14557963  1  -0.808784  0  -0.297159  -0.201209  0  3.691037  0
N  N103  1  0.77878567  0.68504405  0.15107403  1  -0.785361  0  -0.278831  -0.184151  0  3.510858  0
Zn  Zn104  1  0.61216600  0.62287108  0.01005960  1  1.187272  0  0.726191  0.608212  0  2.437459  0
Zn  Zn105  1  0.39278356  0.33742884  0.02342153  1  1.165681  0  0.782714  0.695281  0  2.284609  0
Zn  Zn106  1  0.29540768  0.51814476  0.85183484  1  1.186961  0  0.732396  0.584109  0  2.590149  0
Zn  Zn107  1  0.68648934  0.46318095  0.15870703  1  1.179362  0  0.745491  0.59932  0  2.514093  0
