# generated using pymatgen
data_Co2H15C15(NO5)2
_symmetry_space_group_name_H-M   'P 1'
_cell_length_a   9.14840766
_cell_length_b   9.49119425
_cell_length_c   13.96997528
_cell_angle_alpha   78.03336563
_cell_angle_beta   85.10545781
_cell_angle_gamma   65.08132276
_symmetry_Int_Tables_number   1
_chemical_formula_structural   Co2H15C15(NO5)2
_chemical_formula_sum   'Co4 H30 C30 N4 O20'
_cell_volume   1076.17167032
_cell_formula_units_Z   2
loop_
 _symmetry_equiv_pos_site_id
 _symmetry_equiv_pos_as_xyz
  1  'x, y, z'
loop_
 _atom_site_type_symbol
 _atom_site_label
 _atom_site_symmetry_multiplicity
 _atom_site_fract_x
 _atom_site_fract_y
 _atom_site_fract_z
 _atom_site_occupancy
 _atom_site_pbe_bader_charge
 _atom_site_pbe_bader_spin_density
 _atom_site_pbe_cm5_charge
 _atom_site_pbe_ddec_charge
 _atom_site_pbe_ddec_spin_density
 _atom_site_pbe_ddec_sum_bond_order
 _atom_site_pbe_magmom
Co  Co0  1  0.78126637  0.00132518  0.17955402  1  1.260004  2.60038  0.653374  0.885658  2.788984  2.352474  2.572
Co  Co1  1  0.21867945  0.99869538  0.82047671  1  1.2599  2.600172  0.653155  0.885308  2.788881  2.35276  2.572
Co  Co2  1  0.49990201  0.00004435  0.99998253  1  1.331769  2.575226  0.66285  1.047304  2.777123  2.400012  2.565
Co  Co3  1  0.99996431  0.49996363  0.00008334  1  1.343083  2.662137  0.638989  1.101272  2.87229  2.221057  2.65
H  H4  1  0.27297311  0.63536311  0.25510829  1  0.042783  0.000165  0.100032  0.07806  -4.2e-05  1.00188  0.0
H  H5  1  0.72686871  0.36468161  0.74498386  1  0.041798  0.000163  0.099989  0.077905  -4.3e-05  1.002184  0.0
H  H6  1  0.33368765  0.81088035  0.33393734  1  0.056197  0.000246  0.089402  0.092549  8e-05  0.990565  0.0
H  H7  1  0.66629929  0.18917301  0.66607537  1  0.055864  0.000246  0.089299  0.092456  8e-05  0.990684  0.0
H  H8  1  0.31006405  0.94664625  0.22133788  1  0.065498  0.000257  0.100772  0.114801  1.1e-05  0.995525  0.0
H  H9  1  0.68985389  0.05346297  0.77860189  1  0.066209  0.000255  0.101  0.115435  1e-05  0.995441  0.0
H  H10  1  0.58943014  0.63150915  0.28874793  1  0.058685  0.001365  0.093158  0.074235  0.000619  1.03283  0.001
H  H11  1  0.41058236  0.36866593  0.71123395  1  0.059815  0.001361  0.093222  0.074404  0.000617  1.032361  0.001
H  H12  1  0.55979355  0.52310030  0.17018159  1  0.079376  0.000496  0.103359  0.09473  0.000205  0.984367  0.0
H  H13  1  0.44019502  0.47689822  0.82990960  1  0.080985  0.000495  0.10327  0.094579  0.000205  0.984616  0.0
H  H14  1  0.32185805  0.62057450  0.08646572  1  0.042021  0.00076  0.101838  0.086023  0.000244  1.002912  0.0
H  H15  1  0.67814941  0.37942967  0.91357799  1  0.040986  0.000759  0.101845  0.086067  0.000244  1.002628  0.0
H  H16  1  0.39200651  0.20235384  0.18999246  1  0.181106  0.000816  0.132364  0.142309  5.4e-05  1.002153  0.001
H  H17  1  0.60802493  0.79758639  0.80991034  1  0.177858  0.000816  0.132244  0.141923  5.3e-05  1.00218  0.001
H  H18  1  0.26271564  0.39868293  0.32560972  1  0.139488  0.000977  0.130053  0.131507  0.000482  1.004346  0.0
H  H19  1  0.73733955  0.60128676  0.67428995  1  0.138927  0.000975  0.130141  0.131561  0.00048  1.004141  0.0
H  H20  1  0.77545165  0.19900189  0.33828261  1  0.147635  0.000316  0.14974  0.119689  -0.000276  0.977032  0.001
H  H21  1  0.22463801  0.80093320  0.66160701  1  0.147328  0.000316  0.14968  0.119718  -0.000274  0.976489  0.001
H  H22  1  0.74838859  0.40509075  0.40018803  1  0.096671  3.6e-05  0.122361  0.129777  -1e-06  0.977596  0.0
H  H23  1  0.25172224  0.59484156  0.59967357  1  0.05515  3.4e-05  0.122129  0.129453  -0.0  0.978164  0.0
H  H24  1  0.26738831  0.44081636  0.47558176  1  0.08595  0.000138  0.11945  0.127695  6.6e-05  0.978354  0.0
H  H25  1  0.73262380  0.55915218  0.52428661  1  0.085231  0.000139  0.11951  0.127909  6.6e-05  0.978237  0.0
H  H26  1  0.13078631  0.17056046  0.04159239  1  0.649185  0.001093  0.300124  0.404363  0.000431  0.923538  0.002
H  H27  1  0.86913273  0.82942376  0.95848897  1  0.648853  0.001094  0.300188  0.404672  0.000428  0.923219  0.002
H  H28  1  0.94091748  0.24193954  0.05065987  1  0.632631  0.000778  0.305137  0.399036  0.000372  0.917656  0.001
H  H29  1  0.05899317  0.75805960  0.94941022  1  0.632083  0.000779  0.305048  0.398791  0.000371  0.917906  0.001
H  H30  1  0.21683528  0.45373877  0.12064007  1  0.595917  -0.000105  0.304943  0.373505  -0.000356  0.944566  0.0
H  H31  1  0.78308339  0.54631274  0.87936922  1  0.617675  -7.7e-05  0.305266  0.373921  -0.000351  0.944104  0.0
H  H32  1  0.06932392  0.61668953  0.13437069  1  0.648306  0.000762  0.28935  0.384224  0.000546  0.959834  0.001
H  H33  1  0.93058978  0.38334722  0.86566489  1  0.648603  0.000769  0.28941  0.384359  0.00055  0.959557  0.001
C  C34  1  0.62247294  0.82841062  0.21143763  1  1.490883  -0.001522  0.211427  0.604475  -0.003034  4.085162  -0.002
C  C35  1  0.37741115  0.17154549  0.78861218  1  1.490128  -0.001505  0.211676  0.604525  -0.003013  4.084664  -0.002
C  C36  1  0.64453715  0.65298208  0.05826654  1  1.572835  -3.1e-05  0.208804  0.597765  -0.001295  4.165772  0.0
C  C37  1  0.35546015  0.34699059  0.94182496  1  1.569579  3.5e-05  0.20853  0.597487  -0.001233  4.166536  0.0
C  C38  1  0.28165476  0.85916835  0.02946105  1  1.551946  0.008961  0.223454  0.614576  0.005865  4.09771  0.007
C  C39  1  0.71834548  0.14094191  0.97054239  1  1.552844  0.008923  0.223233  0.614283  0.00584  4.098245  0.007
C  C40  1  0.07726960  0.84608531  0.19817985  1  1.519944  -0.003568  0.202028  0.577919  -0.006038  4.127337  -0.005
C  C41  1  0.92287210  0.15382708  0.80186152  1  1.516894  -0.003591  0.201839  0.577776  -0.006063  4.126056  -0.005
C  C42  1  0.25702605  0.75042572  0.20916387  1  0.010313  0.002052  -0.082734  -0.10632  0.001349  3.85616  0.001
C  C43  1  0.74304214  0.24953056  0.79089069  1  0.011716  0.002043  -0.082751  -0.105888  0.001343  3.855059  0.001
C  C44  1  0.35086776  0.82099621  0.25449921  1  -0.027381  0.001612  -0.16116  -0.178627  0.000813  3.867734  0.001
C  C45  1  0.64906447  0.17910103  0.74550923  1  -0.027268  0.001609  -0.161649  -0.179987  0.000811  3.867073  0.001
C  C46  1  0.52885771  0.72710976  0.22763544  1  0.022842  0.002396  -0.083113  -0.116542  0.001033  3.795694  0.002
C  C47  1  0.47098128  0.27294631  0.77236315  1  0.020155  0.002391  -0.082828  -0.115972  0.00103  3.792549  0.002
C  C48  1  0.52232670  0.64954151  0.13956147  1  -0.028022  0.006635  -0.079403  -0.134002  0.003106  3.764288  0.005
C  C49  1  0.47759315  0.35046481  0.86048941  1  -0.028213  0.006627  -0.07938  -0.133928  0.003104  3.763737  0.005
C  C50  1  0.34278896  0.71328575  0.11058401  1  0.011335  0.007833  -0.085514  -0.150752  0.004111  3.819786  0.006
C  C51  1  0.65715884  0.28676421  0.88942897  1  0.012725  0.007815  -0.085497  -0.150846  0.0041  3.819961  0.006
C  C52  1  0.45143842  0.23088640  0.24228172  1  0.472516  -0.001014  0.011978  -0.006167  -0.001947  3.945118  -0.001
C  C53  1  0.54862427  0.76904442  0.75763629  1  0.4749  -0.00101  0.012021  -0.006476  -0.001937  3.945937  -0.001
C  C54  1  0.38692820  0.32786048  0.30926156  1  0.20596  0.005303  0.001057  -0.116026  0.002853  3.92406  0.003
C  C55  1  0.61314381  0.67210308  0.69064080  1  0.209271  0.005281  0.000879  -0.115489  0.002842  3.923537  0.003
C  C56  1  0.65422043  0.22718451  0.31598314  1  0.965893  -0.002667  0.155135  0.104169  -0.00331  3.88577  -0.001
C  C57  1  0.34588108  0.77277135  0.68392716  1  0.964918  -0.002642  0.155459  0.104628  -0.003285  3.884594  -0.001
C  C58  1  0.50868890  0.41224101  0.42904647  1  0.325167  -0.000746  0.099989  0.160262  -0.001175  4.024891  0.0
C  C59  1  0.49137362  0.58774558  0.57082943  1  0.316322  -0.000752  0.10006  0.160217  -0.00118  4.02491  0.0
C  C60  1  0.64016427  0.44392068  0.44476485  1  -0.049819  -0.000827  -0.078826  -0.150519  -0.000998  3.991938  0.0
C  C61  1  0.35992782  0.55602711  0.55511103  1  -0.019257  -0.000818  -0.078514  -0.149891  -0.000989  3.991758  0.0
C  C62  1  0.36860008  0.46871138  0.48465959  1  0.040492  0.000279  -0.077775  -0.137203  3.5e-05  3.966438  0.0
C  C63  1  0.63143798  0.53125793  0.51521307  1  0.038205  0.00028  -0.077727  -0.137278  3.8e-05  3.967271  0.0
N  N64  1  0.61796683  0.16869528  0.24769850  1  -1.225382  0.049699  -0.350602  -0.290606  0.026217  3.634913  0.038
N  N65  1  0.38213109  0.83122429  0.75224403  1  -1.223738  0.049596  -0.350314  -0.290328  0.02616  3.633994  0.038
N  N66  1  0.51672112  0.32552423  0.35609152  1  -1.244499  0.002159  -0.225799  0.00455  0.000638  3.802938  0.002
N  N67  1  0.48338055  0.67444730  0.64379622  1  -1.246273  0.002151  -0.225928  0.003619  0.000636  3.802707  0.002
O  O68  1  0.58940498  0.94556116  0.13809883  1  -1.166495  0.099279  -0.313214  -0.596734  0.052787  2.518972  0.085
O  O69  1  0.41055269  0.05444013  0.86200439  1  -1.167133  0.099338  -0.313198  -0.596647  0.052818  2.519387  0.085
O  O70  1  0.73138731  0.80495578  0.27037508  1  -1.133878  0.084929  -0.314397  -0.528117  0.043122  2.114958  0.071
O  O71  1  0.26860638  0.19491840  0.72963387  1  -1.131493  0.084933  -0.314287  -0.527916  0.043125  2.116284  0.071
O  O72  1  0.78340728  0.54068259  0.07311620  1  -1.166084  0.070844  -0.314023  -0.556006  0.036444  2.318559  0.062
O  O73  1  0.21654788  0.45929059  0.92700322  1  -1.163428  0.070806  -0.314287  -0.556095  0.036424  2.317793  0.062
O  O74  1  0.60488652  0.76283585  0.98245886  1  -1.174906  0.044812  -0.320745  -0.58708  0.022003  2.334108  0.038
O  O75  1  0.39523204  0.23715056  0.01764773  1  -1.175527  0.044732  -0.320349  -0.586837  0.021955  2.335036  0.038
O  O76  1  0.22515560  0.85169266  0.95154815  1  -1.1547  0.094113  -0.29601  -0.533456  0.048284  2.348571  0.077
O  O77  1  0.77479797  0.14851710  0.04847657  1  -1.153902  0.094007  -0.296103  -0.53376  0.048234  2.346614  0.077
O  O78  1  0.28809661  0.98478575  0.04554440  1  -1.178091  0.053897  -0.312482  -0.582548  0.026834  2.405757  0.041
O  O79  1  0.71205808  0.01526958  0.95449808  1  -1.180992  0.053617  -0.312408  -0.582536  0.0267  2.404819  0.041
O  O80  1  0.00088845  0.80646738  0.14348477  1  -1.169091  0.053249  -0.303569  -0.546032  0.025959  2.293368  0.047
O  O81  1  0.99921282  0.19352509  0.85655396  1  -1.166695  0.053382  -0.303707  -0.54629  0.026025  2.29284  0.047
O  O82  1  0.00047356  0.96278020  0.24086155  1  -1.142588  0.078251  -0.318023  -0.532219  0.039896  2.167149  0.065
O  O83  1  0.99957128  0.03717062  0.75912248  1  -1.14186  0.078232  -0.317601  -0.531644  0.039891  2.166605  0.065
O  O84  1  0.03476145  0.26584533  0.05314127  1  -1.22579  0.059711  -0.573985  -0.771984  0.030732  2.152261  0.048
O  O85  1  0.96514551  0.73411839  0.94693228  1  -1.224947  0.059659  -0.57392  -0.772079  0.030723  2.151522  0.048
O  O86  1  0.10080104  0.50264234  0.13080524  1  -1.21086  0.057576  -0.569041  -0.755016  0.02975  2.130755  0.046
O  O87  1  0.89912338  0.49736717  0.86931597  1  -1.233038  0.057507  -0.569399  -0.755609  0.02972  2.129957  0.046
