# generated using pymatgen
data_FeH10Au2(C9N4)2
_symmetry_space_group_name_H-M   'P 1'
_cell_length_a   10.00108050
_cell_length_b   10.00108996
_cell_length_c   30.36420177
_cell_angle_alpha   94.06311571
_cell_angle_beta   94.06379949
_cell_angle_gamma   92.76668151
_symmetry_Int_Tables_number   1
_chemical_formula_structural   FeH10Au2(C9N4)2
_chemical_formula_sum   'Fe4 H40 Au8 C72 N32'
_cell_volume   3017.49180452
_cell_formula_units_Z   4
loop_
 _symmetry_equiv_pos_site_id
 _symmetry_equiv_pos_as_xyz
  1  'x, y, z'
loop_
 _atom_site_type_symbol
 _atom_site_label
 _atom_site_symmetry_multiplicity
 _atom_site_fract_x
 _atom_site_fract_y
 _atom_site_fract_z
 _atom_site_occupancy
 _atom_site_pbe_bader_charge
 _atom_site_pbe_bader_spin_density
 _atom_site_pbe_cm5_charge
 _atom_site_pbe_ddec_charge
 _atom_site_pbe_ddec_spin_density
 _atom_site_pbe_ddec_sum_bond_order
 _atom_site_pbe_magmom
Fe  Fe0  1  0.18372559  0.22350144  0.44948677  1  1.272465  0  0.91836  0.585292  0  3.983959  0
Fe  Fe1  1  0.77649563  0.81627645  0.05051286  1  1.272876  0  0.91832  0.585264  0  3.984092  0
Fe  Fe2  1  0.81627405  0.77649310  0.55051318  1  1.272576  0  0.918357  0.585308  0  3.984059  0
Fe  Fe3  1  0.22350005  0.18372095  0.94948673  1  1.272746  0  0.918316  0.585267  0  3.984072  0
H  H4  1  0.34965380  0.35448343  0.38872745  1  0.135008  0  0.125681  0.099343  0  1.001244  0
H  H5  1  0.64552007  0.65035253  0.11127448  1  0.13516  0  0.125643  0.099275  0  1.001248  0
H  H6  1  0.65034591  0.64551612  0.61127426  1  0.135054  0  0.125673  0.099377  0  1.001148  0
H  H7  1  0.35447669  0.34965091  0.88872759  1  0.135105  0  0.125691  0.099305  0  1.001129  0
H  H8  1  0.37376355  0.34365969  0.30819982  1  0.060019  0  0.107511  0.110171  0  1.003281  0
H  H9  1  0.65635312  0.62624499  0.19180246  1  0.060545  0  0.107518  0.110162  0  1.003296  0
H  H10  1  0.62623932  0.65635000  0.69180255  1  0.060444  0  0.10752  0.11017  0  1.003311  0
H  H11  1  0.34365071  0.37376172  0.80820019  1  0.060173  0  0.107503  0.110132  0  1.003292  0
H  H12  1  0.02711799  0.06287243  0.29152084  1  0.127673  0  0.107215  0.112092  0  1.057989  0
H  H13  1  0.93713142  0.97290086  0.20847805  1  0.12744  0  0.107223  0.112133  0  1.057964  0
H  H14  1  0.97288986  0.93713246  0.70847758  1  0.127683  0  0.10721  0.112138  0  1.057907  0
H  H15  1  0.06287147  0.02710785  0.79152034  1  0.127585  0  0.107195  0.112105  0  1.057927  0
H  H16  1  0.02012350  0.08172318  0.37297109  1  0.146289  0  0.122349  0.094236  0  1.021221  0
H  H17  1  0.91826987  0.97989347  0.12702678  1  0.146271  0  0.122347  0.094277  0  1.02104  0
H  H18  1  0.97988613  0.91826774  0.62702703  1  0.146384  0  0.122371  0.094288  0  1.021055  0
H  H19  1  0.08172490  0.02010992  0.87297161  1  0.146156  0  0.122361  0.094292  0  1.021032  0
H  H20  1  0.43976845  0.21311524  0.25084198  1  0.097441  0  0.116194  0.1208  0  0.981675  0
H  H21  1  0.78689236  0.56024631  0.24915906  1  0.097447  0  0.116214  0.120768  0  0.981586  0
H  H22  1  0.56023765  0.78690663  0.74915746  1  0.09732  0  0.116131  0.120604  0  0.981703  0
H  H23  1  0.21312657  0.43976300  0.75084138  1  0.097674  0  0.116195  0.120798  0  0.981705  0
H  H24  1  0.45362603  0.20391377  0.16834094  1  0.06725  0  0.118588  0.126117  0  0.974633  0
H  H25  1  0.79608139  0.54638609  0.33165978  1  0.067282  0  0.118663  0.126098  0  0.974695  0
H  H26  1  0.54637788  0.79609598  0.83165815  1  0.067382  0  0.11863  0.126187  0  0.974643  0
H  H27  1  0.20392843  0.45361786  0.66834064  1  0.067211  0  0.118632  0.126077  0  0.974723  0
H  H28  1  0.03966258  0.25984806  0.09989204  1  0.13228  0  0.104341  0.107958  0  1.033479  0
H  H29  1  0.74014850  0.96034106  0.40010957  1  0.132245  0  0.104336  0.107964  0  1.033541  0
H  H30  1  0.96033603  0.74014444  0.90010783  1  0.132312  0  0.104339  0.107933  0  1.033573  0
H  H31  1  0.25985629  0.03966269  0.59989171  1  0.132266  0  0.104325  0.107955  0  1.033563  0
H  H32  1  0.04504868  0.26921750  0.01881584  1  0.102415  0  0.115577  0.090077  0  1.037115  0
H  H33  1  0.73077385  0.95494364  0.48118503  1  0.102544  0  0.115581  0.090049  0  1.03715  0
H  H34  1  0.95494585  0.73077083  0.98118383  1  0.102537  0  0.115581  0.090029  0  1.037149  0
H  H35  1  0.26922985  0.04505405  0.51881641  1  0.102543  0  0.115588  0.090065  0  1.037099  0
H  H36  1  0.41240727  0.09271885  0.01880936  1  0.117206  0  0.122509  0.100049  0  1.003025  0
H  H37  1  0.90726895  0.58758528  0.48119020  1  0.117182  0  0.122512  0.10005  0  1.002976  0
H  H38  1  0.58758824  0.90726751  0.98118997  1  0.117256  0  0.122508  0.100006  0  1.002974  0
H  H39  1  0.09271557  0.41240368  0.51880859  1  0.117152  0  0.122525  0.100071  0  1.003034  0
H  H40  1  0.42736796  0.08494110  0.09978682  1  0.100721  0  0.108173  0.117105  0  1.003172  0
H  H41  1  0.91505211  0.57263472  0.40021315  1  0.100782  0  0.108163  0.117101  0  1.003238  0
H  H42  1  0.57262963  0.91505036  0.90021234  1  0.100754  0  0.108145  0.117041  0  1.00318  0
H  H43  1  0.08493550  0.42735937  0.59978550  1  0.100838  0  0.108178  0.117124  0  1.00323  0
Au  Au44  1  0.68535135  0.23333128  0.45403890  1  0.243117  0  0.254775  0.006264  0  2.982705  0
Au  Au45  1  0.76665421  0.31464974  0.04595579  1  0.243121  0  0.254835  0.006433  0  2.982685  0
Au  Au46  1  0.31464929  0.76666329  0.54596140  1  0.243127  0  0.254792  0.00635  0  2.982681  0
Au  Au47  1  0.23334452  0.68534781  0.95403926  1  0.243112  0  0.25484  0.006445  0  2.982819  0
Au  Au48  1  0.19863896  0.72377679  0.44595666  1  0.248703  0  0.255144  -0.001174  0  3.038506  0
Au  Au49  1  0.27621861  0.80135583  0.05404345  1  0.248668  0  0.255214  -0.001109  0  3.038543  0
Au  Au50  1  0.80135366  0.27621749  0.55404311  1  0.248664  0  0.255245  -0.00104  0  3.038667  0
Au  Au51  1  0.72377402  0.19863847  0.94595369  1  0.248737  0  0.255151  -0.001204  0  3.038531  0
C  C52  1  0.20481651  0.52821367  0.44848324  1  0.792026  0  -0.011594  0.025842  0  3.94244  0
C  C53  1  0.47178150  0.79518342  0.05151771  1  0.792359  0  -0.011605  0.025781  0  3.942251  0
C  C54  1  0.79518106  0.47177678  0.55151721  1  0.793072  0  -0.011765  0.025591  0  3.942391  0
C  C55  1  0.52821222  0.20481692  0.94848125  1  0.791725  0  -0.011539  0.025919  0  3.942306  0
C  C56  1  0.87966224  0.23416630  0.44747379  1  0.74831  0  -0.01416  0.031378  0  3.940999  0
C  C57  1  0.76582067  0.12033922  0.05252035  1  0.748218  0  -0.014256  0.031228  0  3.940901  0
C  C58  1  0.12034037  0.76582536  0.55252484  1  0.748181  0  -0.014208  0.031256  0  3.940905  0
C  C59  1  0.23417894  0.87965134  0.94747555  1  0.748012  0  -0.014214  0.031269  0  3.940472  0
C  C60  1  0.18232562  0.91809627  0.44312278  1  0.759964  0  -0.007497  0.04065  0  3.918737  0
C  C61  1  0.08190240  0.81766978  0.05687833  1  0.759954  0  -0.007563  0.040619  0  3.918796  0
C  C62  1  0.81766904  0.08190008  0.55687742  1  0.75994  0  -0.00755  0.040625  0  3.918762  0
C  C63  1  0.91809517  0.18231968  0.94311980  1  0.760453  0  -0.007576  0.040605  0  3.918864  0
C  C64  1  0.48950512  0.22543826  0.45682181  1  0.747197  0  -0.011334  0.03413  0  3.93982  0
C  C65  1  0.77454634  0.51050141  0.04317724  1  0.747082  0  -0.011423  0.033953  0  3.940215  0
C  C66  1  0.51049854  0.77455742  0.54318024  1  0.747286  0  -0.011413  0.033998  0  3.940255  0
C  C67  1  0.22544536  0.48949785  0.95682164  1  0.746743  0  -0.011347  0.034078  0  3.940031  0
C  C68  1  0.28188361  0.28968166  0.36610903  1  0.451716  0  0.048103  0.085703  0  3.921775  0
C  C69  1  0.71032129  0.71812539  0.13389262  1  0.451695  0  0.048168  0.085878  0  3.921595  0
C  C70  1  0.71812012  0.71031804  0.63389213  1  0.451803  0  0.048114  0.085696  0  3.921637  0
C  C71  1  0.28967648  0.28187809  0.86610914  1  0.451653  0  0.048124  0.085907  0  3.921487  0
C  C72  1  0.29462872  0.28191556  0.32091844  1  0.018814  0  -0.08708  -0.179327  0  3.987747  0
C  C73  1  0.71809666  0.70538160  0.17908416  1  0.018514  0  -0.087101  -0.179402  0  3.987728  0
C  C74  1  0.70537313  0.71809309  0.67908355  1  0.018438  0  -0.087064  -0.179305  0  3.987789  0
C  C75  1  0.28190716  0.29462411  0.82091780  1  0.018825  0  -0.087067  -0.179378  0  3.987769  0
C  C76  1  0.20500510  0.19811368  0.29241535  1  -0.10661  0  0.003859  0.070216  0  4.004025  0
C  C77  1  0.80189687  0.79500773  0.20758529  1  -0.106762  0  0.003886  0.07034  0  4.003785  0
C  C78  1  0.79499880  0.80189607  0.70758441  1  -0.106739  0  0.003721  0.070115  0  4.004088  0
C  C79  1  0.19811000  0.20500012  0.79241548  1  -0.106643  0  0.003842  0.070299  0  4.003992  0
C  C80  1  0.10209919  0.12764569  0.31164988  1  0.01893  0  -0.078124  -0.155679  0  3.919818  0
C  C81  1  0.87235592  0.89791320  0.18834915  1  0.019024  0  -0.078094  -0.155807  0  3.919707  0
C  C82  1  0.89790461  0.87235704  0.68834905  1  0.018972  0  -0.078059  -0.155762  0  3.919762  0
C  C83  1  0.12764491  0.10209243  0.81164977  1  0.018818  0  -0.078108  -0.155781  0  3.91972  0
C  C84  1  0.09691363  0.13842365  0.35737333  1  0.455895  0  0.053901  0.093748  0  3.874995  0
C  C85  1  0.86157537  0.90309907  0.14262594  1  0.455745  0  0.05386  0.09377  0  3.874946  0
C  C86  1  0.90309107  0.86157309  0.64262613  1  0.455734  0  0.053898  0.093833  0  3.874892  0
C  C87  1  0.13842442  0.09690450  0.85737324  1  0.455915  0  0.053924  0.093797  0  3.874861  0
C  C88  1  0.22185277  0.18551636  0.24453103  1  0.539844  0  0.119407  0.159405  0  3.999089  0
C  C89  1  0.81449529  0.77815851  0.25547031  1  0.539909  0  0.119286  0.159253  0  3.99912  0
C  C90  1  0.77815222  0.81449943  0.75546956  1  0.539884  0  0.119369  0.15935  0  3.999184  0
C  C91  1  0.18551258  0.22184937  0.74453081  1  0.539871  0  0.119361  0.159424  0  3.999041  0
C  C92  1  0.34977133  0.19917124  0.22821113  1  -0.0848  0  -0.065644  -0.120735  0  3.950457  0
C  C93  1  0.80083704  0.65024100  0.27179071  1  -0.084705  0  -0.065623  -0.120678  0  3.950175  0
C  C94  1  0.65023167  0.80084549  0.77178910  1  -0.084779  0  -0.065541  -0.120393  0  3.950354  0
C  C95  1  0.19917286  0.34976797  0.72821049  1  -0.08499  0  -0.065614  -0.120736  0  3.950453  0
C  C96  1  0.35759056  0.19241497  0.18295884  1  0.014935  0  -0.06343  -0.116119  0  3.940035  0
C  C97  1  0.80758712  0.64241705  0.31704145  1  0.015038  0  -0.063556  -0.11606  0  3.940177  0
C  C98  1  0.64241231  0.80759373  0.81704087  1  0.014912  0  -0.06352  -0.116323  0  3.940292  0
C  C99  1  0.19241871  0.35758775  0.68295889  1  0.015096  0  -0.063505  -0.116096  0  3.94012  0
C  C100  1  0.23700590  0.17272055  0.15599882  1  0.486386  0  0.123566  0.166768  0  3.98485  0
C  C101  1  0.82728189  0.76300555  0.34400302  1  0.486616  0  0.123538  0.166726  0  3.984906  0
C  C102  1  0.76299790  0.82728317  0.84400145  1  0.486537  0  0.123562  0.166874  0  3.984801  0
C  C103  1  0.17271891  0.23699906  0.65599786  1  0.48655  0  0.123565  0.166847  0  3.984772  0
C  C104  1  0.23426897  0.17348972  0.10750596  1  -0.05748  0  0.005391  0.0714  0  4.001324  0
C  C105  1  0.82650740  0.76573627  0.39249460  1  -0.057187  0  0.005456  0.071384  0  4.001417  0
C  C106  1  0.76573066  0.82650382  0.89249363  1  -0.057151  0  0.005443  0.071298  0  4.001287  0
C  C107  1  0.17349234  0.23426528  0.60750617  1  -0.057114  0  0.005444  0.071373  0  4.001196  0
C  C108  1  0.12524230  0.22309791  0.08333488  1  -0.010974  0  -0.076575  -0.15009  0  3.9346  0
C  C109  1  0.77689654  0.87475864  0.41666586  1  -0.011834  0  -0.076588  -0.150113  0  3.934816  0
C  C110  1  0.87475527  0.77689255  0.91666459  1  -0.011852  0  -0.076577  -0.150032  0  3.934605  0
C  C111  1  0.22310520  0.12524199  0.58333527  1  -0.011898  0  -0.076576  -0.150149  0  3.934779  0
C  C112  1  0.12710320  0.22769206  0.03787485  1  0.475798  0  0.053557  0.099776  0  3.873178  0
C  C113  1  0.77229860  0.87289175  0.46212499  1  0.476094  0  0.053537  0.099855  0  3.87318  0
C  C114  1  0.87289132  0.77229527  0.96212447  1  0.476051  0  0.05357  0.099913  0  3.873052  0
C  C115  1  0.22770110  0.12710680  0.53787604  1  0.476113  0  0.05355  0.099881  0  3.873125  0
C  C116  1  0.33283568  0.13096168  0.03792068  1  0.473155  0  0.04806  0.090348  0  3.909748  0
C  C117  1  0.86903054  0.66716067  0.46207983  1  0.473644  0  0.048041  0.090381  0  3.909659  0
C  C118  1  0.66716090  0.86902874  0.96207844  1  0.473688  0  0.048007  0.090397  0  3.90971  0
C  C119  1  0.13096308  0.33283365  0.53791963  1  0.47333  0  0.048067  0.09034  0  3.909712  0
C  C120  1  0.34014190  0.12750423  0.08365914  1  -0.006966  0  -0.087414  -0.177997  0  3.989321  0
C  C121  1  0.87248921  0.65985450  0.41634043  1  -0.007175  0  -0.087397  -0.178023  0  3.989089  0
C  C122  1  0.65985465  0.87248518  0.91633995  1  -0.007308  0  -0.087328  -0.177869  0  3.989116  0
C  C123  1  0.12750141  0.34014070  0.58365931  1  -0.007283  0  -0.087416  -0.178015  0  3.989148  0
N  N124  1  0.19799902  0.41169762  0.45080150  1  -1.296129  0  -0.387419  -0.293855  0  3.646699  0
N  N125  1  0.58830225  0.80200384  0.04919820  1  -1.296458  0  -0.387453  -0.293855  0  3.646642  0
N  N126  1  0.80199871  0.58830286  0.54919887  1  -1.297124  0  -0.387332  -0.293704  0  3.646535  0
N  N127  1  0.41169348  0.19799757  0.95080181  1  -1.295832  0  -0.387494  -0.293937  0  3.646676  0
N  N128  1  0.99591849  0.22900464  0.44583850  1  -1.239406  0  -0.386475  -0.290166  0  3.627049  0
N  N129  1  0.77099059  0.00408246  0.05415738  1  -1.239312  0  -0.386422  -0.290077  0  3.626838  0
N  N130  1  0.00407910  0.77098682  0.55416067  1  -1.239257  0  -0.386431  -0.290061  0  3.626809  0
N  N131  1  0.22901122  0.99592121  0.94583922  1  -1.239089  0  -0.386484  -0.290164  0  3.626298  0
N  N132  1  0.17422075  0.03474045  0.44525061  1  -1.260242  0  -0.383889  -0.287063  0  3.619245  0
N  N133  1  0.96525692  0.82577743  0.05474994  1  -1.26039  0  -0.383878  -0.287102  0  3.619337  0
N  N134  1  0.82577691  0.96525602  0.55474966  1  -1.260363  0  -0.38385  -0.287063  0  3.619296  0
N  N135  1  0.03473465  0.17421380  0.94524907  1  -1.260795  0  -0.383779  -0.286973  0  3.619229  0
N  N136  1  0.37209437  0.22136549  0.45525508  1  -1.246385  0  -0.382446  -0.285195  0  3.627123  0
N  N137  1  0.77862516  0.62790660  0.04474639  1  -1.246458  0  -0.382338  -0.285011  0  3.627409  0
N  N138  1  0.62790528  0.77863004  0.54474621  1  -1.246488  0  -0.382352  -0.285062  0  3.62746  0
N  N139  1  0.22136448  0.37209056  0.95525469  1  -1.246217  0  -0.382421  -0.285179  0  3.627293  0
N  N140  1  0.18620819  0.21701985  0.38460825  1  -1.169  0  -0.322189  -0.133817  0  3.577706  0
N  N141  1  0.78298046  0.81380093  0.11539198  1  -1.168978  0  -0.322159  -0.133893  0  3.57784  0
N  N142  1  0.81379651  0.78297689  0.61539187  1  -1.169014  0  -0.32221  -0.133966  0  3.577945  0
N  N143  1  0.21701728  0.18620056  0.88460842  1  -1.168931  0  -0.322228  -0.134006  0  3.577841  0
N  N144  1  0.11730866  0.15412819  0.17344082  1  -0.561489  0  -0.173768  -0.156763  0  3.254449  0
N  N145  1  0.84587986  0.88270060  0.32656024  1  -0.561764  0  -0.173712  -0.156643  0  3.254276  0
N  N146  1  0.88269509  0.84587253  0.82655905  1  -0.561603  0  -0.173802  -0.156813  0  3.254348  0
N  N147  1  0.15412095  0.11730501  0.67344131  1  -0.561624  0  -0.173786  -0.156783  0  3.254464  0
N  N148  1  0.10997127  0.15994605  0.21700085  1  -0.617874  0  -0.176906  -0.160765  0  3.268477  0
N  N149  1  0.84006422  0.89004098  0.28300064  1  -0.617982  0  -0.176897  -0.160793  0  3.268694  0
N  N150  1  0.89003356  0.84005972  0.78299949  1  -0.617882  0  -0.176826  -0.160701  0  3.268661  0
N  N151  1  0.15993766  0.10996868  0.71700071  1  -0.617957  0  -0.176916  -0.160842  0  3.268558  0
N  N152  1  0.22858256  0.18128701  0.01493998  1  -1.176144  0  -0.316288  -0.130111  0  3.552969  0
N  N153  1  0.81870362  0.77141127  0.48505979  1  -1.17649  0  -0.316318  -0.130208  0  3.553036  0
N  N154  1  0.77141299  0.81870236  0.98505941  1  -1.176398  0  -0.316331  -0.130252  0  3.55301  0
N  N155  1  0.18129201  0.22858312  0.51494038  1  -1.176084  0  -0.316323  -0.130141  0  3.552936  0
