# generated using pymatgen
data_GdH12C10NO11
_symmetry_space_group_name_H-M   'P 1'
_cell_length_a   6.07306070
_cell_length_b   15.33749508
_cell_length_c   16.55270000
_cell_angle_alpha   115.07988892
_cell_angle_beta   90.00000000
_cell_angle_gamma   90.00000000
_symmetry_Int_Tables_number   1
_chemical_formula_structural   GdH12C10NO11
_chemical_formula_sum   'Gd4 H48 C40 N4 O44'
_cell_volume   1396.44465558
_cell_formula_units_Z   4
loop_
 _symmetry_equiv_pos_site_id
 _symmetry_equiv_pos_as_xyz
  1  'x, y, z'
loop_
 _atom_site_type_symbol
 _atom_site_label
 _atom_site_symmetry_multiplicity
 _atom_site_fract_x
 _atom_site_fract_y
 _atom_site_fract_z
 _atom_site_occupancy
 _atom_site_hle17_bader_spin_density
 _atom_site_hle17_ddec_charge
 _atom_site_hle17_ddec_spin_density
 _atom_site_hle17_ddec_sum_bond_order
 _atom_site_hle17_magmom
 _atom_site_hse06_10hf_bader_spin_density
 _atom_site_hse06_10hf_ddec_charge
 _atom_site_hse06_10hf_ddec_spin_density
 _atom_site_hse06_10hf_ddec_sum_bond_order
 _atom_site_hse06_10hf_magmom
 _atom_site_hse06_bader_spin_density
 _atom_site_hse06_ddec_charge
 _atom_site_hse06_ddec_spin_density
 _atom_site_hse06_ddec_sum_bond_order
 _atom_site_hse06_magmom
 _atom_site_pbe_bader_charge
 _atom_site_pbe_bader_spin_density
 _atom_site_pbe_cm5_charge
 _atom_site_pbe_ddec_charge
 _atom_site_pbe_ddec_spin_density
 _atom_site_pbe_ddec_sum_bond_order
 _atom_site_pbe_magmom
Gd  Gd0  1  0.04885510  0.85038413  0.59467315  1  0  2.174774  0  1.752231  0  0  2.066185  0  2.106726  0  0  2.117804  0  2.058854  0  2.209498  0  1.459628  2.025454  0  2.146497  0
Gd  Gd1  1  0.54885175  0.14961300  0.90532397  1  0  2.174796  0  1.752129  0  0  2.066177  0  2.106654  0  0  2.11781  0  2.058755  0  2.209555  0  1.459583  2.025442  0  2.146427  0
Gd  Gd2  1  0.95114643  0.14961516  0.40532724  1  0  2.174808  0  1.752137  0  0  2.066273  0  2.106567  0  0  2.117852  0  2.058749  0  2.209538  0  1.459603  2.025528  0  2.146364  0
Gd  Gd3  1  0.45114484  0.85038701  0.09467609  1  0  2.174772  0  1.752232  0  0  2.066181  0  2.106718  0  0  2.117793  0  2.058852  0  2.209556  0  1.45962  2.025444  0  2.146496  0
H  H4  1  0.82965579  0.82201126  0.83889856  1  0  0.112889  0  0.903945  0  0  0.120084  0  0.967128  0  0  0.122964  0  0.964342  0  0.121996  0  0.118557  0.117998  0  0.969279  0
H  H5  1  0.32965750  0.17799019  0.66110026  1  0  0.112845  0  0.90398  0  0  0.120073  0  0.967132  0  0  0.122952  0  0.964346  0  0.121888  0  0.118576  0.117987  0  0.969284  0
H  H6  1  0.17034244  0.17798947  0.16110118  1  0  0.112878  0  0.903921  0  0  0.12009  0  0.967095  0  0  0.12297  0  0.964309  0  0.12193  0  0.118554  0.118002  0  0.96925  0
H  H7  1  0.67034074  0.82201054  0.33890130  1  0  0.112858  0  0.903951  0  0  0.120086  0  0.967081  0  0  0.122966  0  0.964292  0  0.121877  0  0.118581  0.117998  0  0.969234  0
H  H8  1  0.59315067  0.78839776  0.76730717  1  0  0.103785  0  0.939654  0  0  0.11266  0  1.003086  0  0  0.114597  0  1.001765  0  0.108823  0  0.116842  0.111285  0  1.00415  0
H  H9  1  0.09314908  0.21160442  0.73269012  1  0  0.103804  0  0.939684  0  0  0.112652  0  1.003163  0  0  0.114582  0  1.001851  0  0.108777  0  0.116848  0.111277  0  1.004226  0
H  H10  1  0.40685086  0.21160226  0.23269169  1  0  0.103783  0  0.939727  0  0  0.112665  0  1.003148  0  0  0.114602  0  1.001828  0  0.108804  0  0.116854  0.11129  0  1.004212  0
H  H11  1  0.90685245  0.78839488  0.26730966  1  0  0.103807  0  0.939682  0  0  0.112634  0  1.003164  0  0  0.114567  0  1.001847  0  0.108781  0  0.116847  0.111259  0  1.004226  0
H  H12  1  0.68896067  0.64724248  0.76406962  1  0  0.116552  0  0.954879  0  0  0.125522  0  1.018161  0  0  0.129031  0  1.016001  0  0.081878  0  0.106167  0.123002  0  1.019809  0
H  H13  1  0.18895909  0.35275897  0.73593040  1  0  0.116565  0  0.954957  0  0  0.125533  0  1.018223  0  0  0.129042  0  1.016063  0  0.081905  0  0.106166  0.123013  0  1.019871  0
H  H14  1  0.31104086  0.35275825  0.23592952  1  0  0.116555  0  0.954925  0  0  0.125522  0  1.018203  0  0  0.129031  0  1.016043  0  0.081866  0  0.106167  0.123002  0  1.01985  0
H  H15  1  0.81104080  0.64724032  0.26406998  1  0  0.116551  0  0.954975  0  0  0.125512  0  1.018253  0  0  0.129021  0  1.016093  0  0.081907  0  0.106153  0.122992  0  1.0199  0
H  H16  1  0.77944388  0.47421506  0.71284173  1  0  0.094858  0  0.958963  0  0  0.104642  0  1.019439  0  0  0.107362  0  1.018723  0  0.095267  0  0.097787  0.10265  0  1.020078  0
H  H17  1  0.27944394  0.52578567  0.78715499  1  0  0.094835  0  0.958907  0  0  0.104633  0  1.019374  0  0  0.107354  0  1.018658  0  0.095201  0  0.097784  0.10264  0  1.020015  0
H  H18  1  0.22055436  0.52578495  0.28715652  1  0  0.094818  0  0.958989  0  0  0.104622  0  1.019448  0  0  0.107342  0  1.018732  0  0.095238  0  0.097784  0.10263  0  1.020087  0
H  H19  1  0.72055595  0.47421362  0.21284298  1  0  0.094816  0  0.958955  0  0  0.104618  0  1.019414  0  0  0.107338  0  1.018697  0  0.095226  0  0.097781  0.102626  0  1.020052  0
H  H20  1  0.07558133  0.39944599  0.59943880  1  0  0.111629  0  0.970154  0  0  0.120137  0  1.032576  0  0  0.124082  0  1.029825  0  0.099383  0  0.102413  0.117313  0  1.03456  0
H  H21  1  0.57558292  0.60055618  0.90055909  1  0  0.111572  0  0.970217  0  0  0.120099  0  1.032614  0  0  0.124041  0  1.029868  0  0.099341  0  0.1024  0.117275  0  1.034599  0
H  H22  1  0.92441856  0.60055474  0.40056155  1  0  0.111639  0  0.970161  0  0  0.120143  0  1.032585  0  0  0.124088  0  1.029836  0  0.099376  0  0.102398  0.117319  0  1.034571  0
H  H23  1  0.42441861  0.39944455  0.09943884  1  0  0.111594  0  0.970217  0  0  0.120115  0  1.032622  0  0  0.124059  0  1.029873  0  0.099355  0  0.102385  0.11729  0  1.034608  0
H  H24  1  0.27478895  0.49688586  0.53665412  1  0  0.0983  0  0.972575  0  0  0.109629  0  1.03713  0  0  0.112013  0  1.036479  0  0.079545  0  0.102263  0.107887  0  1.037748  0
H  H25  1  0.77478890  0.50311559  0.96334349  1  0  0.098338  0  0.972629  0  0  0.109665  0  1.037188  0  0  0.112035  0  1.036554  0  0.07962  0  0.102265  0.107927  0  1.0378  0
H  H26  1  0.72521258  0.50311343  0.46334567  1  0  0.098325  0  0.972557  0  0  0.109673  0  1.037096  0  0  0.112044  0  1.03646  0  0.07956  0  0.102275  0.107935  0  1.037705  0
H  H27  1  0.22521263  0.49688514  0.03665504  1  0  0.09834  0  0.97259  0  0  0.109653  0  1.037164  0  0  0.112031  0  1.03652  0  0.079602  0  0.102252  0.107915  0  1.037769  0
H  H28  1  0.39984451  0.60526267  0.47444905  1  0  0.09907  0  0.911366  0  0  0.11205  0  0.971226  0  0  0.11345  0  0.970328  0  0.108265  0  0.117781  0.111044  0  0.97201  0
H  H29  1  0.89983952  0.39473806  0.02555130  1  0  0.099097  0  0.911419  0  0  0.112068  0  0.971243  0  0  0.113468  0  0.970347  0  0.108256  0  0.117789  0.111061  0  0.97203  0
H  H30  1  0.60016031  0.39473734  0.52555162  1  0  0.09909  0  0.911357  0  0  0.112059  0  0.971186  0  0  0.113457  0  0.970292  0  0.108267  0  0.117782  0.111052  0  0.971973  0
H  H31  1  0.10015708  0.60526339  0.97444993  1  0  0.099077  0  0.911436  0  0  0.112043  0  0.971273  0  0  0.113442  0  0.970378  0  0.108215  0  0.117769  0.111036  0  0.972059  0
H  H32  1  0.50929674  0.62587105  0.58205571  1  0  0.094137  0  0.933815  0  0  0.10299  0  1.001166  0  0  0.104237  0  1.00061  0  0.095628  0  0.11393  0.101944  0  1.00197  0
H  H33  1  0.00929186  0.37412824  0.91794347  1  0  0.094116  0  0.933854  0  0  0.102936  0  1.001215  0  0  0.104184  0  1.000658  0  0.095971  0  0.113911  0.10189  0  1.002019  0
H  H34  1  0.49070644  0.37412824  0.41794468  1  0  0.094166  0  0.933826  0  0  0.103002  0  1.001166  0  0  0.104249  0  1.000611  0  0.095664  0  0.113935  0.101956  0  1.00197  0
H  H35  1  0.99070144  0.62587033  0.08205664  1  0  0.094137  0  0.933817  0  0  0.102974  0  1.001163  0  0  0.104221  0  1.000606  0  0.09592  0  0.11392  0.101928  0  1.001966  0
H  H36  1  0.62353073  0.90276243  0.54717069  1  0  0.444608  0  0.845852  0  0  0.414504  0  0.907064  0  0  0.426051  0  0.890063  0  0.657362  0  0.306071  0.406293  0  0.91913  0
H  H37  1  0.12352915  0.09723614  0.95282760  1  0  0.444613  0  0.845842  0  0  0.414501  0  0.907069  0  0  0.42605  0  0.890065  0  0.657366  0  0.306065  0.40629  0  0.919135  0
H  H38  1  0.37647080  0.09723686  0.45282849  1  0  0.44461  0  0.845848  0  0  0.41451  0  0.907055  0  0  0.426056  0  0.890056  0  0.657363  0  0.30607  0.406299  0  0.919121  0
H  H39  1  0.87646745  0.90276387  0.04717246  1  0  0.444605  0  0.845872  0  0  0.414505  0  0.907073  0  0  0.426051  0  0.890074  0  0.657419  0  0.306084  0.406293  0  0.919136  0
H  H40  1  0.28045496  0.95371467  0.76217337  1  0  0.43096  0  0.879219  0  0  0.401183  0  0.941372  0  0  0.412676  0  0.924642  0  0.640556  0  0.300805  0.393126  0  0.953067  0
H  H41  1  0.78045161  0.04628750  0.73782634  1  0  0.431018  0  0.879143  0  0  0.401237  0  0.941304  0  0  0.412731  0  0.924572  0  0.64056  0  0.300809  0.393178  0  0.952999  0
H  H42  1  0.71954657  0.04628606  0.23782759  1  0  0.430977  0  0.879202  0  0  0.401192  0  0.941366  0  0  0.412684  0  0.924637  0  0.64057  0  0.300808  0.393134  0  0.953061  0
H  H43  1  0.21954663  0.95371323  0.26217341  1  0  0.430977  0  0.879204  0  0  0.401194  0  0.941368  0  0  0.412687  0  0.924637  0  0.640574  0  0.300806  0.393135  0  0.953061  0
H  H44  1  0.77223335  0.98895148  0.54298341  1  0  0.452392  0  0.827972  0  0  0.424695  0  0.884611  0  0  0.435266  0  0.868924  0  0.658623  0  0.310848  0.417159  0  0.89578  0
H  H45  1  0.27223341  0.01104637  0.95701520  1  0  0.452371  0  0.827993  0  0  0.42467  0  0.88464  0  0  0.435242  0  0.868952  0  0.658603  0  0.310828  0.417133  0  0.89581  0
H  H46  1  0.22776654  0.01104709  0.45701549  1  0  0.452376  0  0.827991  0  0  0.424675  0  0.884638  0  0  0.435247  0  0.86895  0  0.658616  0  0.310832  0.417138  0  0.895808  0
H  H47  1  0.72776483  0.98895220  0.04298430  1  0  0.452388  0  0.827979  0  0  0.424684  0  0.884626  0  0  0.435257  0  0.868936  0  0.658616  0  0.310847  0.417146  0  0.895799  0
H  H48  1  0.23608359  0.85403962  0.77124044  1  0  0.429121  0  0.872061  0  0  0.399107  0  0.935252  0  0  0.40979  0  0.919274  0  0.637818  0  0.300945  0.391569  0  0.94651  0
H  H49  1  0.73608354  0.14596255  0.72875867  1  0  0.42916  0  0.871992  0  0  0.399145  0  0.935187  0  0  0.40983  0  0.919205  0  0.6378  0  0.300942  0.391604  0  0.946448  0
H  H50  1  0.76391629  0.14596039  0.22875842  1  0  0.429147  0  0.872014  0  0  0.399125  0  0.935221  0  0  0.40981  0  0.91924  0  0.637807  0  0.30095  0.391585  0  0.946483  0
H  H51  1  0.26391470  0.85403818  0.27124108  1  0  0.429175  0  0.87197  0  0  0.399162  0  0.935159  0  0  0.409846  0  0.919179  0  0.637812  0  0.30097  0.391622  0  0.946419  0
C  C52  1  0.73891242  0.92040567  0.78168371  1  0  0.745793  0  3.788022  0  0  0.699089  0  4.084378  0  0  0.734144  0  4.072436  0  1.628176  0  0.241055  0.675076  0  4.091876  0
C  C53  1  0.23890589  0.07959146  0.71830979  1  0  0.745538  0  3.788381  0  0  0.698959  0  4.084542  0  0  0.73401  0  4.07261  0  1.628888  0  0.241023  0.674933  0  4.092061  0
C  C54  1  0.26109075  0.07959362  0.21831426  1  0  0.745872  0  3.788044  0  0  0.699161  0  4.084425  0  0  0.734213  0  4.072484  0  1.628176  0  0.241074  0.675166  0  4.091899  0
C  C55  1  0.76108740  0.92040567  0.28168612  1  0  0.74562  0  3.788028  0  0  0.698886  0  4.084414  0  0  0.733938  0  4.072476  0  1.628655  0  0.240977  0.674883  0  4.091899  0
C  C56  1  0.75964497  0.81957523  0.77664543  1  0  -0.071587  0  3.586955  0  0  -0.126566  0  3.84238  0  0  -0.124439  0  3.843  0  0.372336  0  -0.057929  -0.128164  0  3.842192  0
C  C57  1  0.25963844  0.18042622  0.72335157  1  0  -0.071441  0  3.586763  0  0  -0.126523  0  3.842229  0  0  -0.124392  0  3.842853  0  0.372361  0  -0.05795  -0.128121  0  3.842045  0
C  C58  1  0.24035656  0.18042550  0.22335431  1  0  -0.071509  0  3.586813  0  0  -0.12652  0  3.84226  0  0  -0.124395  0  3.842887  0  0.372382  0  -0.057885  -0.128123  0  3.842058  0
C  C59  1  0.74035980  0.81957379  0.27664910  1  0  -0.071449  0  3.586719  0  0  -0.126424  0  3.842107  0  0  -0.124286  0  3.842724  0  0.372374  0  -0.057917  -0.128027  0  3.841916  0
C  C60  1  0.93124213  0.66963685  0.67912590  1  0  0.188762  0  3.796544  0  0  0.173226  0  4.063169  0  0  0.181739  0  4.078523  0  0.516896  0  0.077908  0.167261  0  4.052814  0
C  C61  1  0.43123560  0.33036244  0.82087207  1  0  0.188658  0  3.796441  0  0  0.173083  0  4.063057  0  0  0.1816  0  4.078411  0  0.51688  0  0.077832  0.167088  0  4.052739  0
C  C62  1  0.06875940  0.33036244  0.32087207  1  0  0.188655  0  3.796491  0  0  0.17309  0  4.063153  0  0  0.181601  0  4.078513  0  0.516909  0  0.077862  0.167101  0  4.052826  0
C  C63  1  0.56876099  0.66963757  0.17912921  1  0  0.188587  0  3.796555  0  0  0.173106  0  4.063086  0  0  0.181622  0  4.078446  0  0.51687  0  0.077812  0.167114  0  4.052765  0
C  C64  1  0.81668705  0.61458280  0.71398597  1  0  -0.193367  0  3.773011  0  0  -0.216091  0  4.030652  0  0  -0.219913  0  4.049634  0  0.028767  0  -0.111738  -0.213499  0  4.01812  0
C  C65  1  0.31668546  0.38541793  0.78601257  1  0  -0.193395  0  3.773024  0  0  -0.21611  0  4.030647  0  0  -0.219936  0  4.049633  0  0.028714  0  -0.111727  -0.213511  0  4.018126  0
C  C66  1  0.18331284  0.38541793  0.28601257  1  0  -0.193341  0  3.773002  0  0  -0.216046  0  4.030631  0  0  -0.219872  0  4.049624  0  0.02876  0  -0.11171  -0.213448  0  4.018106  0
C  C67  1  0.68331443  0.61458136  0.21398721  1  0  -0.193348  0  3.773122  0  0  -0.216083  0  4.03073  0  0  -0.219904  0  4.049709  0  0.02871  0  -0.111695  -0.213485  0  4.018206  0
C  C68  1  0.86916635  0.51692842  0.68522820  1  0  -0.071281  0  3.801443  0  0  -0.085775  0  4.057163  0  0  -0.086645  0  4.07742  0  -0.120895  0  -0.10273  -0.085124  0  4.04348  0
C  C69  1  0.36916641  0.48307304  0.81477001  1  0  -0.071245  0  3.801305  0  0  -0.085744  0  4.057005  0  0  -0.086617  0  4.077264  0  -0.120807  0  -0.102714  -0.085094  0  4.043321  0
C  C70  1  0.13083353  0.48307232  0.31477094  1  0  -0.071232  0  3.801474  0  0  -0.085738  0  4.057179  0  0  -0.08661  0  4.077439  0  -0.12082  0  -0.102731  -0.085087  0  4.043495  0
C  C71  1  0.63083512  0.51692698  0.18522945  1  0  -0.071217  0  3.801443  0  0  -0.085725  0  4.057166  0  0  -0.086595  0  4.077424  0  -0.12083  0  -0.102738  -0.085074  0  4.043482  0
C  C72  1  0.03536767  0.47531430  0.62267134  1  0  -0.07485  0  3.77995  0  0  -0.095326  0  4.040096  0  0  -0.09663  0  4.059365  0  -0.007961  0  -0.10421  -0.094364  0  4.026953  0
C  C73  1  0.53536596  0.52468787  0.87732716  1  0  -0.074702  0  3.779881  0  0  -0.095184  0  4.039993  0  0  -0.096489  0  4.059262  0  -0.008043  0  -0.104177  -0.094222  0  4.026849  0
C  C74  1  0.96463386  0.52468571  0.37732812  1  0  -0.07488  0  3.779927  0  0  -0.095352  0  4.040071  0  0  -0.096654  0  4.059331  0  -0.008013  0  -0.104201  -0.094391  0  4.026928  0
C  C75  1  0.46463557  0.47531286  0.12267137  1  0  -0.074791  0  3.779907  0  0  -0.095268  0  4.040025  0  0  -0.096573  0  4.059293  0  -0.008003  0  -0.104162  -0.094308  0  4.026883  0
C  C76  1  0.14965765  0.53058431  0.58741762  1  0  -0.174335  0  3.797561  0  0  -0.195335  0  4.051036  0  0  -0.198694  0  4.072118  0  -0.015824  0  -0.10681  -0.193017  0  4.037087  0
C  C77  1  0.64965430  0.46941714  0.91258120  1  0  -0.174516  0  3.797662  0  0  -0.195547  0  4.051145  0  0  -0.198896  0  4.072233  0  -0.015727  0  -0.106842  -0.19323  0  4.037192  0
C  C78  1  0.85034388  0.46941642  0.41258273  1  0  -0.174485  0  3.797549  0  0  -0.195516  0  4.051045  0  0  -0.198865  0  4.072131  0  -0.015842  0  -0.106878  -0.193195  0  4.037095  0
C  C79  1  0.35034394  0.53058359  0.08741794  1  0  -0.174489  0  3.7976  0  0  -0.195485  0  4.051109  0  0  -0.198841  0  4.072196  0  -0.01587  0  -0.106841  -0.193164  0  4.037159  0
C  C80  1  0.09811198  0.62718769  0.61512825  1  0  0.175443  0  3.759571  0  0  0.163792  0  4.020701  0  0  0.170569  0  4.036323  0  0.345701  0  0.076186  0.158993  0  4.010109  0
C  C81  1  0.59810863  0.37281377  0.88487178  1  0  0.17563  0  3.759487  0  0  0.164008  0  4.020543  0  0  0.170775  0  4.036167  0  0.345626  0  0.076286  0.159209  0  4.00996  0
C  C82  1  0.90188955  0.37281305  0.38487089  1  0  0.175762  0  3.759405  0  0  0.164083  0  4.020548  0  0  0.170851  0  4.03617  0  0.345683  0  0.076341  0.15928  0  4.009962  0
C  C83  1  0.40188961  0.62718697  0.11512978  1  0  0.175705  0  3.759437  0  0  0.163975  0  4.020592  0  0  0.17074  0  4.036218  0  0.345704  0  0.076289  0.159178  0  4.010007  0
C  C84  1  0.41654285  0.65815352  0.54454989  1  0  -0.058011  0  3.573213  0  0  -0.116023  0  3.830178  0  0  -0.112582  0  3.829922  0  0.355408  0  -0.055982  -0.118506  0  3.830309  0
C  C85  1  0.91653620  0.34184721  0.95544985  1  0  -0.058074  0  3.573427  0  0  -0.116004  0  3.83024  0  0  -0.112574  0  3.829988  0  0.355414  0  -0.055981  -0.118493  0  3.830372  0
C  C86  1  0.58346033  0.34184577  0.45545050  1  0  -0.058098  0  3.573353  0  0  -0.116033  0  3.830146  0  0  -0.112605  0  3.829895  0  0.355393  0  -0.055983  -0.118526  0  3.830277  0
C  C87  1  0.08345874  0.65815424  0.04455138  1  0  -0.058042  0  3.573412  0  0  -0.115992  0  3.830223  0  0  -0.112562  0  3.829971  0  0.355411  0  -0.055966  -0.118477  0  3.830356  0
C  C88  1  0.54217966  0.74557570  0.54759569  1  0  0.725101  0  3.81237  0  0  0.681685  0  4.107905  0  0  0.715969  0  4.097604  0  1.644409  0  0.232906  0.658411  0  4.113855  0
C  C89  1  0.04216490  0.25442431  0.95240438  1  0  0.72517  0  3.812308  0  0  0.681715  0  4.107845  0  0  0.716004  0  4.097549  0  1.644035  0  0.232961  0.658439  0  4.113795  0
C  C90  1  0.45782846  0.25442359  0.45240530  1  0  0.725258  0  3.812246  0  0  0.681837  0  4.107751  0  0  0.716123  0  4.097452  0  1.644401  0  0.233054  0.658562  0  4.113702  0
C  C91  1  0.95782510  0.74557642  0.04759597  1  0  0.725  0  3.812509  0  0  0.681587  0  4.108015  0  0  0.715873  0  4.09772  0  1.644371  0  0.232881  0.658303  0  4.113979  0
N  N92  1  0.18082480  0.80625768  0.40611850  1  0  0.700822  0  4.148439  0  0  0.725584  0  4.452617  0  0  0.754518  0  4.458186  0  0.844262  0  0.093038  0.708232  0  4.447813  0
N  N93  1  0.68081816  0.19374018  0.09388011  1  0  0.700883  0  4.148415  0  0  0.725668  0  4.452571  0  0  0.754603  0  4.458138  0  0.844271  0  0.093076  0.708316  0  4.447766  0
N  N94  1  0.81917838  0.19374162  0.59388068  1  0  0.700893  0  4.148281  0  0  0.725649  0  4.452497  0  0  0.754583  0  4.458064  0  0.844265  0  0.093064  0.708289  0  4.447693  0
N  N95  1  0.31918008  0.80625912  0.90611967  1  0  0.700859  0  4.148328  0  0  0.725622  0  4.452542  0  0  0.754553  0  4.458119  0  0.844261  0  0.093052  0.70827  0  4.447737  0
O  O96  1  0.79976971  0.93274133  0.71346991  1  0  -0.713595  0  2.135296  0  0  -0.660119  0  2.373827  0  0  -0.686618  0  2.362343  0  -1.194141  0  -0.374903  -0.641204  0  2.381207  0
O  O97  1  0.29976483  0.06725221  0.78651734  1  0  -0.713455  0  2.135625  0  0  -0.65998  0  2.37403  0  0  -0.686484  0  2.362554  0  -1.194664  0  -0.374859  -0.641064  0  2.381414  0
O  O98  1  0.20022853  0.06725653  0.28652749  1  0  -0.713715  0  2.135409  0  0  -0.660197  0  2.37388  0  0  -0.686692  0  2.362398  0  -1.194112  0  -0.374931  -0.641289  0  2.381254  0
O  O99  1  0.70023341  0.93274420  0.21348011  1  0  -0.713509  0  2.135585  0  0  -0.659967  0  2.374043  0  0  -0.686463  0  2.362563  0  -1.194571  0  -0.374866  -0.64106  0  2.38142  0
O  O100  1  0.65945002  0.98478273  0.85203376  1  0  -0.672643  0  1.985411  0  0  -0.629381  0  2.226979  0  0  -0.654883  0  2.216376  0  -1.198393  0  -0.374319  -0.611145  0  2.233789  0
O  O101  1  0.15943526  0.01521513  0.64795760  1  0  -0.672552  0  1.985428  0  0  -0.629364  0  2.227011  0  0  -0.654865  0  2.216412  0  -1.198521  0  -0.374299  -0.611125  0  2.233829  0
O  O102  1  0.34054822  0.01521657  0.14796481  1  0  -0.672664  0  1.985499  0  0  -0.629418  0  2.22709  0  0  -0.654919  0  2.216491  0  -1.198441  0  -0.374327  -0.61119  0  2.233891  0
O  O103  1  0.84056463  0.98478489  0.35204246  1  0  -0.672602  0  1.985179  0  0  -0.629389  0  2.226843  0  0  -0.654889  0  2.216246  0  -1.198432  0  -0.374313  -0.611155  0  2.23365  0
O  O104  1  0.89723128  0.76548509  0.70210078  1  0  -0.312399  0  2.533389  0  0  -0.242135  0  2.772836  0  0  -0.260114  0  2.778744  0  -1.102205  0  -0.192175  -0.22906  0  2.767996  0
O  O105  1  0.39722145  0.23451421  0.79789779  1  0  -0.312407  0  2.533169  0  0  -0.2421  0  2.772679  0  0  -0.260065  0  2.778523  0  -1.102146  0  -0.192188  -0.229005  0  2.767825  0
O  O106  1  0.10277355  0.23451565  0.29789956  1  0  -0.312371  0  2.533389  0  0  -0.24211  0  2.772928  0  0  -0.260078  0  2.778803  0  -1.10219  0  -0.19219  -0.229018  0  2.768077  0
O  O107  1  0.60277349  0.76548580  0.20210288  1  0  -0.312406  0  2.533291  0  0  -0.242126  0  2.772701  0  0  -0.260109  0  2.778581  0  -1.102111  0  -0.192165  -0.229034  0  2.767851  0
O  O108  1  0.20224069  0.68750685  0.58391714  1  0  -0.323074  0  2.44139  0  0  -0.251596  0  2.677796  0  0  -0.268383  0  2.681006  0  -1.086849  0  -0.207283  -0.239261  0  2.674987  0
O  O109  1  0.70223569  0.31249604  0.91608406  1  0  -0.323164  0  2.441443  0  0  -0.251656  0  2.677762  0  0  -0.268432  0  2.680967  0  -1.086863  0  -0.207367  -0.239308  0  2.67495  0
O  O110  1  0.79776084  0.31249460  0.41608349  1  0  -0.32325  0  2.441477  0  0  -0.251715  0  2.677798  0  0  -0.268478  0  2.680993  0  -1.086834  0  -0.207362  -0.239357  0  2.674983  0
O  O111  1  0.29775925  0.68750613  0.08391927  1  0  -0.32318  0  2.441421  0  0  -0.251641  0  2.677759  0  0  -0.268405  0  2.680954  0  -1.087036  0  -0.207312  -0.239294  0  2.674946  0
O  O112  1  0.43379115  0.82099697  0.55959282  1  0  -0.702902  0  2.117822  0  0  -0.653929  0  2.35561  0  0  -0.681072  0  2.346834  0  -1.187981  0  -0.366271  -0.634606  0  2.360928  0
O  O113  1  0.93379109  0.17900520  0.94040870  1  0  -0.702768  0  2.11781  0  0  -0.653779  0  2.355614  0  0  -0.680926  0  2.346836  0  -1.188025  0  -0.366212  -0.63446  0  2.360937  0
O  O114  1  0.56621038  0.17900304  0.44040725  1  0  -0.702851  0  2.117797  0  0  -0.65391  0  2.355614  0  0  -0.681049  0  2.346838  0  -1.188066  0  -0.366284  -0.634587  0  2.360933  0
O  O115  1  0.06621044  0.82099553  0.05959225  1  0  -0.702824  0  2.117855  0  0  -0.653865  0  2.355645  0  0  -0.681009  0  2.34687  0  -1.188009  0  -0.366256  -0.634541  0  2.360971  0
O  O116  1  0.74795235  0.73612528  0.53702703  1  0  -0.682764  0  2.029525  0  0  -0.646136  0  2.280235  0  0  -0.672156  0  2.271529  0  -1.202616  0  -0.369195  -0.627567  0  2.285406  0
O  O117  1  0.24795240  0.26387689  0.96297509  1  0  -0.682901  0  2.029374  0  0  -0.646293  0  2.280136  0  0  -0.672312  0  2.271402  0  -1.202483  0  -0.369264  -0.627722  0  2.285307  0
O  O118  1  0.25204754  0.26387617  0.46297481  1  0  -0.682903  0  2.029387  0  0  -0.646342  0  2.280185  0  0  -0.67235  0  2.27145  0  -1.202549  0  -0.369312  -0.627771  0  2.285357  0
O  O119  1  0.75204419  0.73612456  0.03702614  1  0  -0.682723  0  2.029568  0  0  -0.646136  0  2.280308  0  0  -0.672152  0  2.271578  0  -1.202536  0  -0.369193  -0.627564  0  2.285485  0
O  O120  1  0.09518265  0.74625526  0.43150333  1  0  -0.506227  0  1.839431  0  0  -0.50274  0  2.075972  0  0  -0.51979  0  2.070131  0  -0.558906  0  -0.216562  -0.491275  0  2.079522  0
O  O121  1  0.59517930  0.25374476  0.06849795  1  0  -0.50617  0  1.83947  0  0  -0.50269  0  2.075998  0  0  -0.519731  0  2.070131  0  -0.558908  0  -0.216518  -0.491225  0  2.079548  0
O  O122  1  0.90482053  0.25374476  0.56849734  1  0  -0.506241  0  1.839448  0  0  -0.50274  0  2.075963  0  0  -0.519779  0  2.070102  0  -0.558901  0  -0.216562  -0.49127  0  2.079514  0
O  O123  1  0.40481729  0.74625526  0.93150333  1  0  -0.506169  0  1.83944  0  0  -0.502674  0  2.075977  0  0  -0.519709  0  2.070104  0  -0.558913  0  -0.216505  -0.491207  0  2.079525  0
O  O124  1  0.20005893  0.89300534  0.46395625  1  0  -0.485511  0  1.837403  0  0  -0.468975  0  2.055675  0  0  -0.484684  0  2.047575  0  -0.553421  0  -0.181611  -0.458737  0  2.061161  0
O  O125  1  0.70005228  0.10699395  0.03604293  1  0  -0.485559  0  1.837424  0  0  -0.469044  0  2.055703  0  0  -0.484761  0  2.047616  0  -0.55347  0  -0.181643  -0.458804  0  2.061188  0
O  O126  1  0.79994425  0.10699395  0.53604293  1  0  -0.485583  0  1.837334  0  0  -0.469059  0  2.055604  0  0  -0.484763  0  2.047499  0  -0.553439  0  -0.181675  -0.45882  0  2.061094  0
O  O127  1  0.29994596  0.89300534  0.96395686  1  0  -0.485512  0  1.8374  0  0  -0.468995  0  2.055682  0  0  -0.484702  0  2.047581  0  -0.553452  0  -0.181632  -0.458759  0  2.061172  0
O  O128  1  0.24393631  0.77918561  0.32709012  1  0  -0.426369  0  1.827398  0  0  -0.409958  0  2.037851  0  0  -0.425249  0  2.031378  0  -0.534644  0  -0.155958  -0.400431  0  2.042325  0
O  O129  1  0.74392966  0.22081152  0.17291123  1  0  -0.426427  0  1.827295  0  0  -0.410016  0  2.037741  0  0  -0.425307  0  2.031261  0  -0.53462  0  -0.155988  -0.400492  0  2.042218  0
O  O130  1  0.75606522  0.22081296  0.67290999  1  0  -0.426384  0  1.827353  0  0  -0.409966  0  2.037811  0  0  -0.425259  0  2.031336  0  -0.534628  0  -0.155933  -0.400433  0  2.042282  0
O  O131  1  0.25607022  0.77918777  0.82708855  1  0  -0.426425  0  1.827284  0  0  -0.410029  0  2.03774  0  0  -0.42532  0  2.031263  0  -0.534634  0  -0.155999  -0.400502  0  2.042214  0
O  O132  1  0.77294139  0.92236371  0.53697437  1  0  -0.904758  0  1.87051  0  0  -0.86593  0  2.054671  0  0  -0.884312  0  2.020864  0  -1.289973  0  -0.641343  -0.852292  0  2.078339  0
O  O133  1  0.27294145  0.07763486  0.96302452  1  0  -0.904751  0  1.870499  0  0  -0.865921  0  2.054657  0  0  -0.884305  0  2.020845  0  -1.289954  0  -0.641312  -0.852281  0  2.078327  0
O  O134  1  0.22705849  0.07763558  0.46302541  1  0  -0.904767  0  1.870533  0  0  -0.865945  0  2.05468  0  0  -0.884323  0  2.020878  0  -1.289971  0  -0.641338  -0.852304  0  2.078352  0
O  O135  1  0.72705679  0.92236443  0.03697526  1  0  -0.904739  0  1.870515  0  0  -0.865919  0  2.054687  0  0  -0.8843  0  2.020878  0  -1.290018  0  -0.64135  -0.852274  0  2.078367  0
O  O136  1  0.25695775  0.88271987  0.72863218  1  0  -0.925359  0  1.953918  0  0  -0.89075  0  2.151459  0  0  -0.910104  0  2.120963  0  -1.276794  0  -0.656104  -0.876441  0  2.172526  0
O  O137  1  0.75695440  0.11728230  0.77136873  1  0  -0.925446  0  1.953757  0  0  -0.890841  0  2.151325  0  0  -0.9102  0  2.120825  0  -1.276785  0  -0.656107  -0.876528  0  2.172401  0
O  O138  1  0.74304543  0.11728086  0.27136816  1  0  -0.925386  0  1.953805  0  0  -0.890803  0  2.151396  0  0  -0.910154  0  2.120904  0  -1.276779  0  -0.656105  -0.876491  0  2.172467  0
O  O139  1  0.24304384  0.88271915  0.22863190  1  0  -0.925394  0  1.953802  0  0  -0.890809  0  2.151393  0  0  -0.910164  0  2.120897  0  -1.276794  0  -0.656118  -0.876496  0  2.172468  0
