# generated using pymatgen
data_AlH6C12S3(NO2)3
_symmetry_space_group_name_H-M   'P 1'
_cell_length_a   3.88859027
_cell_length_b   20.13084619
_cell_length_c   20.13100680
_cell_angle_alpha   119.99973960
_cell_angle_beta   89.99988330
_cell_angle_gamma   90.00049732
_symmetry_Int_Tables_number   1
_chemical_formula_structural   AlH6C12S3(NO2)3
_chemical_formula_sum   'Al2 H12 C24 S6 N6 O12'
_cell_volume   1364.74490686
_cell_formula_units_Z   2
loop_
 _symmetry_equiv_pos_site_id
 _symmetry_equiv_pos_as_xyz
  1  'x, y, z'
loop_
 _atom_site_type_symbol
 _atom_site_label
 _atom_site_symmetry_multiplicity
 _atom_site_fract_x
 _atom_site_fract_y
 _atom_site_fract_z
 _atom_site_occupancy
 _atom_site_pbe_bader_charge
 _atom_site_pbe_bader_spin_density
 _atom_site_pbe_cm5_charge
 _atom_site_pbe_ddec_charge
 _atom_site_pbe_ddec_spin_density
 _atom_site_pbe_ddec_sum_bond_order
 _atom_site_pbe_magmom
Al  Al0  1  0.00486360  0.49999848  0.49999926  1  2.499942  0  0.416366  1.581938  0  2.566327  0
Al  Al1  1  0.00491365  0.16666669  0.83333467  1  2.49952  0  0.416348  1.581557  0  2.566664  0
H  H2  1  0.60661808  0.52658439  0.77483575  1  0.413218  0  0.299449  0.293413  0  0.949401  0
H  H3  1  0.42633489  0.53980853  0.70621489  1  0.428794  0  0.303978  0.309286  0  0.938806  0
H  H4  1  0.60664158  0.14008161  0.55848899  1  0.413479  0  0.29943  0.29332  0  0.949322  0
H  H5  1  0.42634936  0.12686401  0.62711377  1  0.428968  0  0.304008  0.309279  0  0.938989  0
H  H6  1  0.60663484  0.74825598  0.47341374  1  0.415827  0  0.299422  0.293305  0  0.949359  0
H  H7  1  0.42631583  0.66641778  0.46019580  1  0.430051  0  0.303987  0.309225  0  0.939097  0
H  H8  1  0.60663140  0.91841016  0.85991656  1  0.416909  0  0.299427  0.293357  0  0.949245  0
H  H9  1  0.42632728  0.00025188  0.87313573  1  0.43  0  0.304003  0.309264  0  0.938989  0
H  H10  1  0.60663221  0.22516104  0.25174667  1  0.415135  0  0.299445  0.293341  0  0.949316  0
H  H11  1  0.42633144  0.29378267  0.33358712  1  0.484593  0  0.304042  0.309362  0  0.938865  0
H  H12  1  0.60664301  0.44151305  0.08159116  1  0.41503  0  0.299401  0.293269  0  0.949328  0
H  H13  1  0.42633481  0.37289003  0.99975031  1  0.484668  0  0.303987  0.309265  0  0.939063  0
C  C14  1  0.50414674  0.44311909  0.38128002  1  1.551643  0  0.262814  0.671769  0  4.095299  0
C  C15  1  0.50415342  0.43815845  0.55687550  1  1.556716  0  0.262716  0.671371  0  4.095616  0
C  C16  1  0.50415737  0.61871615  0.56183602  1  1.524924  0  0.262834  0.671675  0  4.09563  0
C  C17  1  0.50421708  0.22850549  0.77644904  1  1.558493  0  0.262608  0.671192  0  4.095786  0
C  C18  1  0.50419513  0.04794612  0.77149317  1  1.526211  0  0.262744  0.671442  0  4.095732  0
C  C19  1  0.50420061  0.22355228  0.95205597  1  1.550719  0  0.262761  0.671398  0  4.095364  0
C  C20  1  0.48022616  0.42852402  0.67762204  1  0.420046  0  0.089766  0.252581  0  4.098644  0
C  C21  1  0.48030695  0.23814507  0.65570424  1  0.419128  0  0.089796  0.252637  0  4.098356  0
C  C22  1  0.49292454  0.39541421  0.59801855  1  -0.06743  0  -0.036384  -0.240981  0  3.922443  0
C  C23  1  0.49301109  0.27125376  0.73530889  1  -0.06726  0  -0.036355  -0.240913  0  3.922254  0
C  C24  1  0.51505100  0.29604644  0.63516680  1  -0.186802  0  -0.028542  -0.097711  0  4.067574  0
C  C25  1  0.51503945  0.37062619  0.69816298  1  -0.132066  0  -0.028617  -0.097999  0  4.067573  0
C  C26  1  0.48028007  0.74910519  0.57147470  1  0.494627  0  0.08972  0.252516  0  4.098566  0
C  C27  1  0.48027249  0.91756391  0.76185530  1  0.494315  0  0.089779  0.252531  0  4.09856  0
C  C28  1  0.49296470  0.70260581  0.60458417  1  -0.10268  0  -0.036389  -0.241171  0  3.922239  0
C  C29  1  0.49296466  0.96405755  0.72874466  1  -0.102349  0  -0.036381  -0.240951  0  3.922497  0
C  C30  1  0.51506002  0.83912149  0.70395370  1  -0.191005  0  -0.028578  -0.097875  0  4.067703  0
C  C31  1  0.51507045  0.82754069  0.62937736  1  -0.107512  0  -0.028566  -0.097778  0  4.067496  0
C  C32  1  0.48025694  0.32237204  0.25089610  1  0.494394  0  0.089748  0.2525  0  4.098614  0
C  C33  1  0.48025831  0.34429753  0.08243797  1  0.494383  0  0.089749  0.25252  0  4.098615  0
C  C34  1  0.49293656  0.40198076  0.29739363  1  -0.135703  0  -0.036371  -0.241156  0  3.922454  0
C  C35  1  0.49296835  0.26469140  0.03594186  1  -0.136215  0  -0.036415  -0.240905  0  3.922257  0
C  C36  1  0.51502930  0.36483568  0.16087807  1  -0.114537  0  -0.028618  -0.097885  0  4.067706  0
C  C37  1  0.51504071  0.30183652  0.17245744  1  -0.196392  0  -0.028561  -0.097802  0  4.0676  0
S  S38  1  0.52046729  0.29573316  0.54956058  1  0.240907  0  0.053821  0.096086  0  2.835753  0
S  S39  1  0.52052943  0.37093500  0.78376874  1  0.24117  0  0.053775  0.09611  0  2.835606  0
S  S40  1  0.52049970  0.75382691  0.70426625  1  0.230696  0  0.053825  0.096188  0  2.835729  0
S  S41  1  0.52052160  0.91283784  0.62906622  1  0.23027  0  0.053776  0.09608  0  2.835706  0
S  S42  1  0.52046715  0.45043928  0.24617204  1  0.230834  0  0.053837  0.096199  0  2.835894  0
S  S43  1  0.52051427  0.21623094  0.08716148  1  0.231374  0  0.05385  0.096141  0  2.835656  0
N  N44  1  0.43634279  0.50601943  0.73052363  1  -1.15524  0  -0.596222  -0.611102  0  3.271288  0
N  N45  1  0.43638729  0.16065156  0.60280461  1  -1.155582  0  -0.596279  -0.611067  0  3.271294  0
N  N46  1  0.43637714  0.72451186  0.49398407  1  -1.160857  0  -0.596204  -0.610896  0  3.271575  0
N  N47  1  0.43636467  0.94215493  0.83934713  1  -1.161783  0  -0.596253  -0.61101  0  3.271265  0
N  N48  1  0.43636056  0.26947357  0.27549228  1  -1.20961  0  -0.596298  -0.611079  0  3.271362  0
N  N49  1  0.43635937  0.39719824  0.05784639  1  -1.20965  0  -0.596155  -0.610906  0  3.271638  0
O  O50  1  0.74068698  0.58421417  0.57712378  1  -1.266027  0  -0.243979  -0.59886  0  2.350337  0
O  O51  1  0.74068067  0.49291023  0.41578615  1  -1.261434  0  -0.244002  -0.598991  0  2.350275  0
O  O52  1  0.74068894  0.42287335  0.50708745  1  -1.262333  0  -0.243915  -0.598799  0  2.350422  0
O  O53  1  0.27538761  0.58441720  0.50947148  1  -1.251326  0  -0.243441  -0.601445  0  2.344431  0
O  O54  1  0.27539034  0.49053073  0.57493982  1  -1.247884  0  -0.243366  -0.601286  0  2.344225  0
O  O55  1  0.27537688  0.42505362  0.41558341  1  -1.247394  0  -0.243393  -0.601424  0  2.344109  0
O  O56  1  0.74075329  0.17376076  0.91755085  1  -1.261218  0  -0.243913  -0.598674  0  2.350171  0
O  O57  1  0.74075532  0.24379055  0.82624074  1  -1.263365  0  -0.243803  -0.598496  0  2.350323  0
O  O58  1  0.74074185  0.08245155  0.75621253  1  -1.266094  0  -0.243875  -0.598622  0  2.350415  0
O  O59  1  0.27543448  0.24161347  0.91774633  1  -1.24635  0  -0.243452  -0.601454  0  2.344477  0
O  O60  1  0.27542890  0.08225326  0.82386680  1  -1.252487  0  -0.243453  -0.60149  0  2.344412  0
O  O61  1  0.27543903  0.17613617  0.75838514  1  -1.248398  0  -0.24343  -0.601391  0  2.344383  0
