# generated using pymatgen
data_CdH16C20(N3O5)2
_symmetry_space_group_name_H-M   'P 1'
_cell_length_a   6.36779602
_cell_length_b   7.47435600
_cell_length_c   11.10200382
_cell_angle_alpha   82.37007986
_cell_angle_beta   87.84489882
_cell_angle_gamma   84.49930669
_symmetry_Int_Tables_number   1
_chemical_formula_structural   CdH16C20(N3O5)2
_chemical_formula_sum   'Cd1 H16 C20 N6 O10'
_cell_volume   521.14603277
_cell_formula_units_Z   1
loop_
 _symmetry_equiv_pos_site_id
 _symmetry_equiv_pos_as_xyz
  1  'x, y, z'
loop_
 _atom_site_type_symbol
 _atom_site_label
 _atom_site_symmetry_multiplicity
 _atom_site_fract_x
 _atom_site_fract_y
 _atom_site_fract_z
 _atom_site_occupancy
 _atom_site_hle17_bader_spin_density
 _atom_site_hle17_ddec_charge
 _atom_site_hle17_ddec_spin_density
 _atom_site_hle17_ddec_sum_bond_order
 _atom_site_hle17_magmom
 _atom_site_hse06_10hf_bader_spin_density
 _atom_site_hse06_10hf_ddec_charge
 _atom_site_hse06_10hf_ddec_spin_density
 _atom_site_hse06_10hf_ddec_sum_bond_order
 _atom_site_hse06_10hf_magmom
 _atom_site_hse06_bader_spin_density
 _atom_site_hse06_ddec_charge
 _atom_site_hse06_ddec_spin_density
 _atom_site_hse06_ddec_sum_bond_order
 _atom_site_hse06_magmom
 _atom_site_pbe_bader_spin_density
 _atom_site_pbe_cm5_charge
 _atom_site_pbe_ddec_charge
 _atom_site_pbe_ddec_spin_density
 _atom_site_pbe_ddec_sum_bond_order
 _atom_site_pbe_magmom
Cd  Cd0  1  0.00000193  0.49999877  0.49999662  1  0  1.246291  0  1.627808  0  0  1.071276  0  2.076677  0  0  1.121039  0  2.023533  0  0  0.814162  1.035626  0  2.113376  0
H  H1  1  0.34475982  0.72002757  0.80355086  1  0  0.405092  0  0.868658  0  0  0.372721  0  0.948242  0  0  0.386609  0  0.933097  0  0  0.301935  0.362955  0  0.958742  0
H  H2  1  0.65523094  0.27997386  0.19645101  1  0  0.405146  0  0.868565  0  0  0.37284  0  0.948039  0  0  0.386723  0  0.932905  0  0  0.302  0.363074  0  0.958543  0
H  H3  1  0.39705581  0.46246296  0.63871138  1  0  0.433127  0  0.86114  0  0  0.400176  0  0.927204  0  0  0.411363  0  0.910909  0  0  0.288582  0.392234  0  0.938752  0
H  H4  1  0.60293675  0.53753586  0.36129433  1  0  0.433152  0  0.861085  0  0  0.400207  0  0.927139  0  0  0.411394  0  0.910843  0  0  0.288583  0.39226  0  0.938689  0
H  H5  1  0.31343542  0.26510036  0.65244449  1  0  0.423704  0  0.874294  0  0  0.392305  0  0.939102  0  0  0.402233  0  0.924578  0  0  0.291048  0.385305  0  0.949349  0
H  H6  1  0.68656155  0.73490123  0.34756356  1  0  0.423641  0  0.874403  0  0  0.392253  0  0.93919  0  0  0.402181  0  0.924665  0  0  0.291039  0.385249  0  0.949443  0
H  H7  1  0.24742502  0.82829412  0.08060418  1  0  0.115547  0  0.949142  0  0  0.125338  0  1.012532  0  0  0.128699  0  1.010549  0  0  0.112822  0.122852  0  1.014145  0
H  H8  1  0.75258200  0.17170185  0.91939885  1  0  0.115478  0  0.949226  0  0  0.125296  0  1.012591  0  0  0.128638  0  1.010631  0  0  0.112821  0.12281  0  1.014203  0
H  H9  1  0.24820549  0.33164005  0.84305168  1  0  0.101943  0  0.96116  0  0  0.110744  0  1.026377  0  0  0.114839  0  1.022936  0  0  0.107891  0.107692  0  1.028962  0
H  H10  1  0.75179746  0.66835029  0.15694480  1  0  0.102039  0  0.961099  0  0  0.110828  0  1.026304  0  0  0.114918  0  1.022861  0  0  0.107955  0.10777  0  1.028919  0
H  H11  1  0.27368896  0.90780486  0.57239886  1  0  0.110338  0  0.949706  0  0  0.114311  0  1.016578  0  0  0.117671  0  1.012453  0  0  0.13462  0.111674  0  1.019837  0
H  H12  1  0.72633110  0.09218686  0.42759986  1  0  0.110298  0  0.94964  0  0  0.11421  0  1.016595  0  0  0.117625  0  1.012407  0  0  0.134596  0.111576  0  1.01985  0
H  H13  1  0.27110503  0.49479558  0.02042698  1  0  0.106307  0  0.945799  0  0  0.117085  0  1.005317  0  0  0.120329  0  1.003942  0  0  0.106129  0.114741  0  1.006457  0
H  H14  1  0.72889593  0.50519884  0.97956911  1  0  0.106293  0  0.945805  0  0  0.117143  0  1.005245  0  0  0.120388  0  1.003866  0  0  0.10613  0.114799  0  1.006384  0
H  H15  1  0.08635456  0.73374147  0.25110499  1  0  0.103443  0  0.959165  0  0  0.112035  0  1.025303  0  0  0.114064  0  1.022182  0  0  0.140834  0.110405  0  1.027443  0
H  H16  1  0.91363869  0.26626663  0.74889345  1  0  0.103408  0  0.959141  0  0  0.112013  0  1.02527  0  0  0.114045  0  1.022146  0  0  0.140832  0.110383  0  1.027408  0
C  C17  1  0.24777041  0.06922346  0.16905648  1  0  0.15153  0  3.745958  0  0  0.124604  0  3.996013  0  0  0.131275  0  4.015878  0  0  0.103414  0.121319  0  3.982654  0
C  C18  1  0.75224648  0.93078442  0.83093704  1  0  0.151396  0  3.746137  0  0  0.124408  0  3.996254  0  0  0.131074  0  4.016111  0  0  0.103343  0.121124  0  3.982888  0
C  C19  1  0.24478279  0.97511407  0.06871778  1  0  -0.145981  0  3.725691  0  0  -0.18176  0  3.98737  0  0  -0.183772  0  4.007748  0  0  -0.083466  -0.180448  0  3.973817  0
C  C20  1  0.75521308  0.02488333  0.93128621  1  0  -0.145899  0  3.725294  0  0  -0.181685  0  3.987023  0  0  -0.183683  0  4.007418  0  0  -0.083482  -0.180372  0  3.973466  0
C  C21  1  0.29728940  0.36375255  0.25595609  1  0  0.692117  0  3.912997  0  0  0.626682  0  4.236791  0  0  0.663013  0  4.224601  0  0  0.219591  0.601916  0  4.244224  0
C  C22  1  0.70272594  0.63625426  0.74404657  1  0  0.691935  0  3.913279  0  0  0.626364  0  4.237227  0  0  0.662692  0  4.225044  0  0  0.219365  0.601595  0  4.244657  0
C  C23  1  0.26456451  0.96606964  0.84398996  1  0  0.644801  0  3.832081  0  0  0.588424  0  4.140141  0  0  0.621773  0  4.131862  0  0  0.228824  0.565617  0  4.145712  0
C  C24  1  0.73543332  0.03394179  0.15598463  1  0  0.644307  0  3.832105  0  0  0.588124  0  4.139931  0  0  0.62148  0  4.131656  0  0  0.22875  0.565309  0  4.145502  0
C  C25  1  0.24826379  0.25699380  0.93423303  1  0  -0.056791  0  3.701418  0  0  -0.08506  0  3.955403  0  0  -0.084359  0  3.973919  0  0  -0.080634  -0.085269  0  3.942963  0
C  C26  1  0.75173682  0.74298848  0.06576612  1  0  -0.05673  0  3.701457  0  0  -0.084962  0  3.955447  0  0  -0.084246  0  3.97395  0  0  -0.080685  -0.085186  0  3.943017  0
C  C27  1  0.24298672  0.90213953  0.47739311  1  0  0.228109  0  3.643465  0  0  0.173454  0  3.937166  0  0  0.186004  0  3.947426  0  0  0.157375  0.165229  0  3.929838  0
C  C28  1  0.75701302  0.09786601  0.52261087  1  0  0.228363  0  3.642839  0  0  0.173742  0  3.936571  0  0  0.186255  0  3.946804  0  0  0.157495  0.16551  0  3.929256  0
C  C29  1  0.26557139  0.25661414  0.15283087  1  0  -0.084346  0  3.677567  0  0  -0.072159  0  3.92389  0  0  -0.074895  0  3.938574  0  0  0.000554  -0.070684  0  3.91405  0
C  C30  1  0.73442684  0.74339127  0.84716865  1  0  -0.084203  0  3.677569  0  0  -0.071912  0  3.923856  0  0  -0.074647  0  3.938542  0  0  0.00056  -0.070437  0  3.91401  0
C  C31  1  0.24644014  0.06776095  0.95094170  1  0  -0.078537  0  3.810482  0  0  -0.05509  0  4.046735  0  0  -0.063355  0  4.071746  0  0  -0.025827  -0.049875  0  4.030407  0
C  C32  1  0.75356844  0.93222003  0.04906014  1  0  -0.078316  0  3.810275  0  0  -0.054943  0  4.046532  0  0  -0.063217  0  4.07154  0  0  -0.025767  -0.049727  0  4.030215  0
C  C33  1  0.26098213  0.34865375  0.03438370  1  0  -0.065253  0  3.70948  0  0  -0.087574  0  3.96143  0  0  -0.089756  0  3.980895  0  0  -0.081522  -0.086175  0  3.948451  0
C  C34  1  0.73902513  0.65134062  0.96561138  1  0  -0.065385  0  3.709645  0  0  -0.087834  0  3.96167  0  0  -0.090015  0  3.981125  0  0  -0.081439  -0.086433  0  3.94869  0
C  C35  1  0.14880885  0.81049313  0.31527974  1  0  0.184048  0  3.671557  0  0  0.107723  0  3.934764  0  0  0.125475  0  3.945544  0  0  0.160512  0.097541  0  3.927038  0
C  C36  1  0.85118255  0.18951769  0.68471845  1  0  0.184003  0  3.6718  0  0  0.107638  0  3.935067  0  0  0.125384  0  3.945843  0  0  0.160511  0.097456  0  3.927335  0
N  N37  1  0.23257417  0.97021524  0.28666976  1  0  0.008061  0  3.58889  0  0  0.123076  0  3.771235  0  0  0.106576  0  3.800154  0  0  -0.120319  0.130975  0  3.754739  0
N  N38  1  0.76742089  0.02979026  0.71333251  1  0  0.007992  0  3.589101  0  0  0.123027  0  3.771456  0  0  0.106542  0  3.800357  0  0  -0.120333  0.130928  0  3.754954  0
N  N39  1  0.15235925  0.76404937  0.43488985  1  0  -0.417784  0  3.178984  0  0  -0.342757  0  3.466432  0  0  -0.365433  0  3.478322  0  0  -0.34582  -0.327438  0  3.457419  0
N  N40  1  0.84766222  0.23595882  0.56511435  1  0  -0.417836  0  3.179025  0  0  -0.342792  0  3.466492  0  0  -0.365469  0  3.478397  0  0  -0.345875  -0.327476  0  3.457484  0
N  N41  1  0.29337042  0.03047884  0.38996126  1  0  -0.233502  0  2.830772  0  0  -0.231857  0  3.100892  0  0  -0.23933  0  3.115551  0  0  -0.203603  -0.225745  0  3.091263  0
N  N42  1  0.70664532  0.96950888  0.61003975  1  0  -0.233452  0  2.830437  0  0  -0.231809  0  3.100554  0  0  -0.239289  0  3.115224  0  0  -0.203561  -0.225698  0  3.090928  0
O  O43  1  0.26762416  0.78713496  0.87115010  1  0  -0.555658  0  2.119339  0  0  -0.501753  0  2.34551  0  0  -0.525932  0  2.333732  0  0  -0.327388  -0.484959  0  2.353478  0
O  O44  1  0.73236477  0.21285309  0.12885858  1  0  -0.55543  0  2.119932  0  0  -0.501624  0  2.346022  0  0  -0.525801  0  2.334247  0  0  -0.327268  -0.484825  0  2.353992  0
O  O45  1  0.13211332  0.42399149  0.30846804  1  0  -0.647468  0  2.017266  0  0  -0.591783  0  2.280699  0  0  -0.619858  0  2.267563  0  0  -0.323411  -0.571667  0  2.288907  0
O  O46  1  0.86787055  0.57603257  0.69151812  1  0  -0.647228  0  2.017709  0  0  -0.59151  0  2.281205  0  0  -0.619581  0  2.268076  0  0  -0.323219  -0.571398  0  2.289406  0
O  O47  1  0.48822626  0.39318614  0.27246181  1  0  -0.629  0  1.973716  0  0  -0.565189  0  2.195619  0  0  -0.593325  0  2.184263  0  0  -0.298688  -0.545162  0  2.202676  0
O  O48  1  0.51176350  0.60680981  0.72753884  1  0  -0.629118  0  1.973413  0  0  -0.565191  0  2.195352  0  0  -0.593335  0  2.18399  0  0  -0.29869  -0.545163  0  2.202409  0
O  O49  1  0.28136146  0.04245303  0.73831184  1  0  -0.575096  0  2.023864  0  0  -0.526971  0  2.25662  0  0  -0.547375  0  2.247915  0  0  -0.278308  -0.513094  0  2.262586  0
O  O50  1  0.71861517  0.95753235  0.26169735  1  0  -0.575033  0  2.022962  0  0  -0.52704  0  2.2557  0  0  -0.547458  0  2.247009  0  0  -0.278444  -0.513149  0  2.261659  0
O  O51  1  0.31329623  0.38175130  0.59943687  1  0  -0.841936  0  1.836664  0  0  -0.782401  0  2.028848  0  0  -0.803096  0  1.994911  0  0  -0.59227  -0.767783  0  2.052475  0
O  O52  1  0.68670668  0.61825417  0.40056525  1  0  -0.84193  0  1.836727  0  0  -0.782389  0  2.028919  0  0  -0.803075  0  1.994964  0  0  -0.592258  -0.76776  0  2.052569  0
