# generated using pymatgen
data_Zn4H8C42O25F4
_symmetry_space_group_name_H-M   'P 1'
_cell_length_a   20.93107756
_cell_length_b   20.94632705
_cell_length_c   20.94630896
_cell_angle_alpha   103.22154911
_cell_angle_beta   112.51996199
_cell_angle_gamma   112.51996250
_symmetry_Int_Tables_number   1
_chemical_formula_structural   Zn4H8C42O25F4
_chemical_formula_sum   'Zn8 H16 C84 O50 F8'
_cell_volume   7037.20174171
_cell_formula_units_Z   2
loop_
 _symmetry_equiv_pos_site_id
 _symmetry_equiv_pos_as_xyz
  1  'x, y, z'
loop_
 _atom_site_type_symbol
 _atom_site_label
 _atom_site_symmetry_multiplicity
 _atom_site_fract_x
 _atom_site_fract_y
 _atom_site_fract_z
 _atom_site_occupancy
 _atom_site_pbe_bader_charge
 _atom_site_pbe_bader_spin_density
 _atom_site_pbe_cm5_charge
 _atom_site_pbe_ddec_charge
 _atom_site_pbe_ddec_spin_density
 _atom_site_pbe_ddec_sum_bond_order
 _atom_site_pbe_magmom
Zn  Zn0  1  0.56707501  0.27542991  0.70252189  1  1.318617  0  0.68254  0.967699  0  2.367692  0
Zn  Zn1  1  0.56841235  0.86449717  0.29309640  1  1.315047  0  0.679181  0.969666  0  2.356044  0
Zn  Zn2  1  0.56943111  0.29576527  0.86116932  1  1.313606  0  0.678691  0.967854  0  2.361164  0
Zn  Zn3  1  0.43158555  0.70690110  0.13550142  1  1.315011  0  0.679112  0.969504  0  2.356156  0
Zn  Zn4  1  0.43056638  0.13882846  0.70423218  1  1.313596  0  0.678686  0.967818  0  2.361222  0
Zn  Zn5  1  0.42774941  0.72260162  0.28831006  1  1.322609  0  0.684069  0.97291  0  2.359021  0
Zn  Zn6  1  0.43292360  0.29747747  0.72456893  1  1.318653  0  0.682549  0.967718  0  2.367732  0
Zn  Zn7  1  0.57224810  0.71168865  0.27739681  1  1.322588  0  0.684055  0.972881  0  2.359074  0
H  H8  1  0.39455573  0.53199825  0.96346372  1  0.122845  0  0.11727  0.130883  0  0.98071  0
H  H9  1  0.91087622  0.77814088  0.48553493  1  0.616718  0  0.35338  0.389946  0  0.837708  0
H  H10  1  0.94009114  0.45734269  0.80469312  1  0.611038  0  0.350938  0.393091  0  0.836447  0
H  H11  1  0.08912328  0.51446627  0.22185713  1  0.616489  0  0.353415  0.389918  0  0.837749  0
H  H12  1  0.05990988  0.19531190  0.54265600  1  0.611033  0  0.350908  0.393062  0  0.836396  0
H  H13  1  0.28344356  0.50299922  0.61501905  1  0.630172  0  0.355128  0.396092  0  0.828736  0
H  H14  1  0.68633284  0.58412776  0.44786775  1  0.615258  0  0.354544  0.390734  0  0.836437  0
H  H15  1  0.71655804  0.38498731  0.49700983  1  0.631036  0  0.355097  0.39606  0  0.828724  0
H  H16  1  0.60742226  0.46720552  0.04260552  1  0.113932  0  0.116989  0.131361  0  0.978901  0
H  H17  1  0.31366463  0.55213172  0.41587203  1  0.615101  0  0.354546  0.390715  0  0.836459  0
H  H18  1  0.52542111  0.61514409  0.87483976  1  0.616817  0  0.353204  0.388813  0  0.840976  0
H  H19  1  0.46572550  0.37324839  0.12629463  1  0.60849  0  0.353135  0.390052  0  0.835952  0
H  H20  1  0.47457710  0.12516500  0.38485986  1  0.616684  0  0.353168  0.388819  0  0.840932  0
H  H21  1  0.53427407  0.87370470  0.62675076  1  0.608498  0  0.353144  0.390042  0  0.835994  0
H  H22  1  0.60544172  0.03653612  0.46799936  1  0.122886  0  0.11728  0.130901  0  0.980677  0
H  H23  1  0.39257819  0.95739372  0.53279500  1  0.113919  0  0.117026  0.131381  0  0.978814  0
C  C24  1  0.50000061  0.14214170  0.85785665  1  1.672661  0  0.235637  0.661748  0  4.261861  0
C  C25  1  0.68337771  0.58249271  0.29354767  1  0.071282  0  0.003906  -0.05037  0  3.916491  0
C  C26  1  0.50174319  0.61398724  0.11217888  1  1.562299  0  0.235308  0.616512  0  4.148978  0
C  C27  1  0.49702001  0.10809331  0.60990782  1  1.550617  0  0.232676  0.612047  0  4.156515  0
C  C28  1  0.49825634  0.88782103  0.38601070  1  1.562426  0  0.235333  0.616541  0  4.149087  0
C  C29  1  0.50297955  0.39009208  0.89190679  1  1.550613  0  0.232653  0.611988  0  4.15655  0
C  C30  1  0.28182588  0.14621521  0.64021363  1  1.722725  0  0.235707  0.66169  0  4.251973  0
C  C31  1  0.72098913  0.86417992  0.35774010  1  1.648224  0  0.235675  0.660805  0  4.257376  0
C  C32  1  0.71817416  0.35978614  0.85378185  1  1.722305  0  0.235679  0.66152  0  4.25226  0
C  C33  1  0.27900926  0.64225917  0.13582039  1  1.648317  0  0.235663  0.660851  0  4.257415  0
C  C34  1  0.70736121  0.28779306  0.59508840  1  0.026069  0  0.017497  -0.010944  0  3.866845  0
C  C35  1  0.80535433  0.40391676  0.89698607  1  -0.282442  0  -0.000204  -0.121701  0  3.823215  0
C  C36  1  0.19173779  0.59860905  0.09094117  1  0.294586  0  0.001121  -0.119274  0  3.823665  0
C  C37  1  0.19464487  0.10300892  0.59608553  1  -0.282552  0  -0.000164  -0.121836  0  3.822999  0
C  C38  1  0.80826052  0.90905634  0.40139143  1  0.294475  0  0.001128  -0.119213  0  3.823518  0
C  C39  1  0.31662141  0.70645102  0.41750597  1  0.071132  0  0.003922  -0.050393  0  3.916422  0
C  C40  1  0.87974133  0.44155848  0.93451469  1  0.171567  0  -0.002887  0.036852  0  4.241826  0
C  C41  1  0.11732896  0.56120530  0.05320390  1  -0.342513  0  -0.005011  0.030684  0  4.244461  0
C  C42  1  0.12025659  0.06548204  0.55844223  1  0.171542  0  -0.002878  0.037047  0  4.241623  0
C  C43  1  0.88267063  0.94679252  0.43880165  1  -0.342846  0  -0.005035  0.030646  0  4.244391  0
C  C44  1  0.96106827  0.48260481  0.97487506  1  -0.022701  0  0.002673  0.000308  0  4.176356  0
C  C45  1  0.29264122  0.40491626  0.71220853  1  0.025597  0  0.017506  -0.011695  0  3.866398  0
C  C46  1  0.03597847  0.52028909  0.01223959  1  -0.003207  0  0.002248  -0.001503  0  4.176731  0
C  C47  1  0.03893060  0.02512351  0.51739837  1  -0.022515  0  0.002538  0.00011  0  4.176276  0
C  C48  1  0.96401987  0.98775349  0.47971486  1  -0.002951  0  0.002388  -0.001393  0  4.176682  0
C  C49  1  0.50000045  0.40493174  0.59507298  1  0.03426  0  0.013954  -0.09592  0  3.797958  0
C  C50  1  0.49999721  0.59877704  0.40121832  1  0.207832  0  0.001  -0.118158  0  3.823955  0
C  C51  1  0.50000102  0.44225541  0.55774944  1  -0.003437  0  0.007431  0.042941  0  4.216676  0
C  C52  1  0.49999955  0.56141891  0.43857680  1  -0.220517  0  -0.004988  0.029144  0  4.251063  0
C  C53  1  0.14976012  0.29405049  0.61694339  1  1.545962  0  0.236508  0.599212  0  4.113546  0
C  C54  1  0.83019615  0.68288866  0.39878048  1  1.574737  0  0.234067  0.602368  0  4.13241  0
C  C55  1  0.85024080  0.38305443  0.70595287  1  1.545686  0  0.236495  0.599764  0  4.113118  0
C  C56  1  0.16980409  0.60122047  0.31711155  1  1.574734  0  0.234017  0.602266  0  4.132465  0
C  C57  1  0.28925021  0.42771333  0.64798906  1  1.59519  0  0.232458  0.590391  0  4.154579  0
C  C58  1  0.66729803  0.55207815  0.34719810  1  1.554127  0  0.236151  0.586203  0  4.126023  0
C  C59  1  0.71075384  0.35201377  0.57229473  1  1.594485  0  0.232481  0.590449  0  4.154748  0
C  C60  1  0.33270049  0.65280048  0.44792140  1  1.554399  0  0.236149  0.586211  0  4.125881  0
C  C61  1  0.43353315  0.51789553  0.79934579  1  1.520067  0  0.23263  0.581874  0  4.113703  0
C  C62  1  0.53801254  0.47997456  0.18971866  1  1.542898  0  0.235116  0.591884  0  4.134928  0
C  C63  1  0.56646764  0.20065751  0.48210767  1  1.520101  0  0.232718  0.58206  0  4.113369  0
C  C64  1  0.46198748  0.81027929  0.52002551  1  1.542742  0  0.235056  0.591821  0  4.134967  0
C  C65  1  0.36274620  0.44878779  0.78631853  1  0.002608  0  -0.005781  -0.092555  0  3.903415  0
C  C66  1  0.62068565  0.54481646  0.21618430  1  0.038881  0  0.004438  -0.058588  0  3.901513  0
C  C67  1  0.63725515  0.21368357  0.55121454  1  0.002687  0  -0.00572  -0.092471  0  3.903136  0
C  C68  1  0.49999866  0.86085803  0.13914064  1  1.646057  0  0.235415  0.661229  0  4.261657  0
C  C69  1  0.37931311  0.78381457  0.45518200  1  0.038838  0  0.00443  -0.058559  0  3.9014  0
C  C70  1  0.36782067  0.42352949  0.84426257  1  0.120196  0  0.007253  -0.003998  0  3.979609  0
C  C71  1  0.63045548  0.57186325  0.16303669  1  0.131661  0  -0.000567  -0.02498  0  4.003727  0
C  C72  1  0.63217970  0.15573733  0.57647046  1  0.120176  0  0.007233  -0.004077  0  3.979521  0
C  C73  1  0.36954478  0.83696338  0.42813750  1  0.131723  0  -0.00059  -0.02491  0  4.003692  0
C  C74  1  0.30144250  0.35518576  0.82543373  1  0.499173  0  0.094081  0.123646  0  4.066395  0
C  C75  1  0.70501765  0.63574129  0.18915562  1  0.505119  0  0.100839  0.144347  0  4.059393  0
C  C76  1  0.69855781  0.17456204  0.64481077  1  0.498729  0  0.093995  0.12373  0  4.066276  0
C  C77  1  0.29498211  0.81084419  0.36425878  1  0.505141  0  0.100828  0.144294  0  4.05937  0
C  C78  1  0.23163099  0.31179402  0.75218414  1  0.560898  0  0.110735  0.189257  0  4.056817  0
C  C79  1  0.76808135  0.67311094  0.26585615  1  0.549405  0  0.104798  0.169822  0  4.063265  0
C  C80  1  0.76836970  0.24781054  0.68820311  1  0.561244  0  0.110808  0.190053  0  4.057365  0
C  C81  1  0.23191806  0.73414377  0.32688879  1  0.549482  0  0.104812  0.169865  0  4.063325  0
C  C82  1  0.22582923  0.33604800  0.69442348  1  0.075242  0  -0.009542  -0.145398  0  3.947318  0
C  C83  1  0.49999797  0.48304442  0.51695187  1  -0.125482  0  0.012471  0.01387  0  4.179311  0
C  C84  1  0.75839047  0.64731640  0.31907208  1  0.027726  0  -0.005682  -0.123619  0  3.939806  0
C  C85  1  0.77417133  0.30557326  0.66395355  1  0.07525  0  -0.009514  -0.147697  0  3.950402  0
C  C86  1  0.24160880  0.68092826  0.35268293  1  0.027747  0  -0.0057  -0.12368  0  3.939925  0
C  C87  1  0.44107930  0.51728424  0.98022911  1  0.044281  0  -0.06929  -0.113621  0  3.915089  0
C  C88  1  0.56127117  0.48241759  0.02575165  1  0.051324  0  -0.06895  -0.118595  0  3.920237  0
C  C89  1  0.55891858  0.01977092  0.48271432  1  0.04431  0  -0.06928  -0.113608  0  3.915087  0
C  C90  1  0.49999915  0.52061727  0.47938215  1  0.01465  0  -0.001209  -0.013273  0  4.198945  0
C  C91  1  0.43872828  0.97424817  0.51758272  1  0.051161  0  -0.068932  -0.118444  0  3.919974  0
C  C92  1  0.50279333  0.55458269  0.05770444  1  0.008645  0  -0.003027  -0.062314  0  3.909662  0
C  C93  1  0.50026631  0.44622568  0.94796943  1  0.015838  0  -0.004989  -0.065705  0  3.921448  0
C  C94  1  0.49720560  0.94229568  0.44541516  1  0.008665  0  -0.003033  -0.062294  0  3.909771  0
C  C95  1  0.49973304  0.05203033  0.55377402  1  0.015985  0  -0.004991  -0.065746  0  3.921428  0
C  C96  1  0.56365118  0.53623794  0.08135456  1  -0.02859  0  0.005649  0.072089  0  3.966624  0
C  C97  1  0.43878148  0.46361506  0.92464545  1  -0.008507  0  0.008922  0.082981  0  3.960373  0
C  C98  1  0.43634923  0.91864519  0.46376236  1  -0.028632  0  0.005623  0.071915  0  3.966613  0
C  C99  1  0.56121709  0.07535477  0.53638425  1  -0.008535  0  0.008872  0.082926  0  3.960343  0
C  C100  1  0.49999882  0.36122678  0.63877260  1  1.663693  0  0.241427  0.661624  0  4.244253  0
C  C101  1  0.49999877  0.64248371  0.35751332  1  1.641196  0  0.240519  0.672353  0  4.230304  0
C  C102  1  0.50000432  0.09840573  0.90159484  1  0.201708  0  -0.000735  -0.126225  0  3.845737  0
C  C103  1  0.49999826  0.90461005  0.09538775  1  0.194969  0  -0.002113  -0.127815  0  3.844213  0
C  C104  1  0.50000196  0.06107519  0.93892665  1  -0.207049  0  -0.002619  0.033058  0  4.256693  0
C  C105  1  0.49999809  0.94194809  0.05805138  1  -0.203014  0  -0.002309  0.032888  0  4.255274  0
C  C106  1  0.50000235  0.02029708  0.97970654  1  -0.141706  0  0.007236  0.004199  0  4.187223  0
C  C107  1  0.50000050  0.98273768  0.01726417  1  0.032711  0  0.006832  0.004965  0  4.186194  0
O  O108  1  0.49999920  0.25126514  0.74873381  1  -1.220353  0  -0.570444  -1.03757  0  2.530689  0
O  O109  1  0.45508699  0.78786922  0.10017107  1  -1.135061  0  -0.303168  -0.527224  0  2.274947  0
O  O110  1  0.47930460  0.85803209  0.58806858  1  -1.097521  0  -0.326064  -0.471232  0  2.212678  0
O  O111  1  0.44855738  0.10392998  0.78562143  1  -1.143967  0  -0.303013  -0.526723  0  2.276679  0
O  O112  1  0.54491078  0.89982718  0.21212877  1  -1.135021  0  -0.303113  -0.527188  0  2.275016  0
O  O113  1  0.54331858  0.33114520  0.64293946  1  -1.125297  0  -0.29645  -0.518121  0  2.303159  0
O  O114  1  0.44294598  0.65648730  0.33735966  1  -1.134505  0  -0.299071  -0.527005  0  2.307153  0
O  O115  1  0.45667950  0.35705906  0.66885552  1  -1.125376  0  -0.2965  -0.518155  0  2.303199  0
O  O116  1  0.55705101  0.66263700  0.34351105  1  -1.134647  0  -0.299033  -0.526943  0  2.307137  0
O  O117  1  0.49999949  0.75193554  0.24806381  1  -1.226838  0  -0.57061  -1.037178  0  2.526943  0
O  O118  1  0.44773912  0.08039027  0.63155541  1  -1.160932  0  -0.305658  -0.528538  0  2.320906  0
O  O119  1  0.55370453  0.91728958  0.37148910  1  -1.158807  0  -0.307698  -0.53276  0  2.32924  0
O  O120  1  0.55226091  0.36844492  0.91961008  1  -1.160904  0  -0.305624  -0.528501  0  2.320892  0
O  O121  1  0.44629383  0.62850725  0.08270999  1  -1.158684  0  -0.307644  -0.532663  0  2.32919  0
O  O122  1  0.45618319  0.36884467  0.82079553  1  -1.170354  0  -0.303089  -0.542655  0  2.408026  0
O  O123  1  0.55643456  0.64588333  0.18298926  1  -1.17841  0  -0.301578  -0.541977  0  2.425121  0
O  O124  1  0.54381744  0.17920360  0.63115532  1  -1.170321  0  -0.303076  -0.54266  0  2.408063  0
O  O125  1  0.44356681  0.81701214  0.35411779  1  -1.178434  0  -0.301555  -0.541931  0  2.425168  0
O  O126  1  0.31533747  0.10654663  0.64707775  1  -1.134924  0  -0.303409  -0.529128  0  2.279742  0
O  O127  1  0.68537619  0.90168232  0.34627346  1  -1.143874  0  -0.303138  -0.530009  0  2.27699  0
O  O128  1  0.68466146  0.35291881  0.89344926  1  -1.134826  0  -0.303378  -0.529065  0  2.279728  0
O  O129  1  0.31462243  0.65372460  0.09831678  1  -1.14394  0  -0.303091  -0.529963  0  2.276943  0
O  O130  1  0.31632157  0.21934355  0.66777344  1  -1.141196  0  -0.298434  -0.52419  0  2.287726  0
O  O131  1  0.68854157  0.79171467  0.33514520  1  -1.12639  0  -0.297568  -0.519846  0  2.284268  0
O  O132  1  0.68367801  0.33222632  0.78065347  1  -1.141031  0  -0.298417  -0.524132  0  2.287843  0
O  O133  1  0.31145539  0.66485350  0.20828428  1  -1.126419  0  -0.297545  -0.519847  0  2.284343  0
O  O134  1  0.55144233  0.21437767  0.89606867  1  -1.143924  0  -0.30299  -0.526695  0  2.276684  0
O  O135  1  0.12701969  0.32575521  0.57923454  1  -1.103343  0  -0.277611  -0.461478  0  2.065493  0
O  O136  1  0.10838660  0.21691974  0.59319789  1  -1.096397  0  -0.326325  -0.487939  0  2.270872  0
O  O137  1  0.85639854  0.64665164  0.42611494  1  -1.108391  0  -0.285686  -0.471272  0  2.037958  0
O  O138  1  0.86338011  0.75974310  0.43535164  1  -1.108173  0  -0.325129  -0.474402  0  2.229562  0
O  O139  1  0.87298138  0.42076402  0.67424902  1  -1.10311  0  -0.277652  -0.461435  0  2.065057  0
O  O140  1  0.89161470  0.40679952  0.78308358  1  -1.096291  0  -0.326351  -0.48787  0  2.270365  0
O  O141  1  0.14360010  0.57388420  0.35334680  1  -1.10837  0  -0.285618  -0.471167  0  2.038048  0
O  O142  1  0.13661939  0.56464927  0.24025636  1  -1.107957  0  -0.325174  -0.474361  0  2.229517  0
O  O143  1  0.29015043  0.39166367  0.59422314  1  -1.105047  0  -0.285369  -0.468206  0  2.061238  0
O  O144  1  0.28420073  0.49134204  0.65797032  1  -1.112568  0  -0.331946  -0.47726  0  2.213651  0
O  O145  1  0.62716941  0.48376684  0.32948501  1  -1.119744  0  -0.284747  -0.474222  0  2.063189  0
O  O146  1  0.69986759  0.60909586  0.41680181  1  -1.103237  0  -0.323104  -0.466778  0  2.242069  0
O  O147  1  0.70985070  0.40577714  0.60834476  1  -1.104956  0  -0.285394  -0.468234  0  2.061483  0
O  O148  1  0.71579940  0.34203368  0.50866400  1  -1.113283  0  -0.331889  -0.477227  0  2.213717  0
O  O149  1  0.37282892  0.67051462  0.51623316  1  -1.119992  0  -0.284777  -0.474249  0  2.063048  0
O  O150  1  0.30013208  0.58319762  0.39090365  1  -1.103115  0  -0.323079  -0.466724  0  2.242084  0
O  O151  1  0.44839156  0.52483550  0.74959703  1  -1.10433  0  -0.275108  -0.46428  0  2.095708  0
O  O152  1  0.48112169  0.57377970  0.87335148  1  -1.11396  0  -0.327791  -0.476858  0  2.243424  0
O  O153  1  0.49077038  0.48836825  0.20583393  1  -1.119997  0  -0.28687  -0.475085  0  2.060451  0
O  O154  1  0.52069605  0.41193031  0.14196819  1  -1.097225  0  -0.326092  -0.471284  0  2.212621  0
O  O155  1  0.55160957  0.25040664  0.47516791  1  -1.104402  0  -0.275119  -0.464306  0  2.095414  0
O  O156  1  0.51887684  0.12665205  0.42622255  1  -1.113735  0  -0.327875  -0.477052  0  2.243441  0
O  O157  1  0.50922761  0.79416091  0.51163224  1  -1.119528  0  -0.286842  -0.475083  0  2.0605  0
F  F158  1  0.30418361  0.32800152  0.87874093  1  -0.617817  0  -0.097224  -0.118964  0  1.34873  0
F  F159  1  0.83924967  0.73371773  0.28655283  1  -0.613863  0  -0.087912  -0.109107  0  1.354469  0
F  F160  1  0.82972784  0.25943559  0.75262321  1  -0.613139  0  -0.081978  -0.100761  0  1.374096  0
F  F161  1  0.16075051  0.71344760  0.26628165  1  -0.613883  0  -0.087921  -0.109119  0  1.35447  0
F  F162  1  0.17027490  0.24737466  0.74056139  1  -0.613103  0  -0.081955  -0.100746  0  1.374271  0
F  F163  1  0.71679850  0.66427886  0.14017572  1  -0.61772  0  -0.091983  -0.113029  0  1.346073  0
F  F164  1  0.69581618  0.12125271  0.67199121  1  -0.617871  0  -0.097171  -0.11899  0  1.348673  0
F  F165  1  0.28320122  0.85982339  0.33572078  1  -0.617717  0  -0.091972  -0.113016  0  1.34612  0
