# generated using pymatgen
data_CoH14C14(N2O)4
_symmetry_space_group_name_H-M   'P 1'
_cell_length_a   7.74406519
_cell_length_b   8.86128404
_cell_length_c   12.99950990
_cell_angle_alpha   90.00103458
_cell_angle_beta   89.99945836
_cell_angle_gamma   97.70289993
_symmetry_Int_Tables_number   1
_chemical_formula_structural   CoH14C14(N2O)4
_chemical_formula_sum   'Co2 H28 C28 N16 O8'
_cell_volume   884.00751330
_cell_formula_units_Z   2
loop_
 _symmetry_equiv_pos_site_id
 _symmetry_equiv_pos_as_xyz
  1  'x, y, z'
loop_
 _atom_site_type_symbol
 _atom_site_label
 _atom_site_symmetry_multiplicity
 _atom_site_fract_x
 _atom_site_fract_y
 _atom_site_fract_z
 _atom_site_occupancy
 _atom_site_hle17_ddec_charge
 _atom_site_hle17_ddec_spin_density
 _atom_site_hle17_ddec_sum_bond_order
 _atom_site_hle17_magmom
 _atom_site_hse06_10hf_ddec_charge
 _atom_site_hse06_10hf_ddec_spin_density
 _atom_site_hse06_10hf_ddec_sum_bond_order
 _atom_site_hse06_10hf_magmom
 _atom_site_hse06_ddec_charge
 _atom_site_hse06_ddec_spin_density
 _atom_site_hse06_ddec_sum_bond_order
 _atom_site_hse06_magmom
 _atom_site_pbe_cm5_charge
 _atom_site_pbe_ddec_charge
 _atom_site_pbe_ddec_spin_density
 _atom_site_pbe_ddec_sum_bond_order
 _atom_site_pbe_magmom
Co  Co0  1  0.99999873  0.99999825  0.00000073  1  1.189186  -2.86915  2.068743  -2.631  1.168493  -2.849343  2.484893  -2.67  1.227149  -2.884709  2.412923  -2.734  0.72256  1.119627  -2.812855  2.539434  -2.604
Co  Co1  1  0.00000159  0.50000051  0.49999775  1  1.189221  -2.869177  2.068248  -2.631  1.1685  -2.849412  2.484364  -2.67  1.227158  -2.88476  2.412402  -2.734  0.722582  1.119625  -2.812936  2.538897  -2.604
H  H2  1  0.65198608  0.93553493  0.95884035  1  0.417205  -0.000191  0.890438  -0.001  0.385209  -0.00043  0.956185  -0.001  0.39641  -0.000222  0.940258  -0.001  0.290745  0.377141  -0.000645  0.96752  -0.001
H  H3  1  0.34802918  0.56447145  0.45884195  1  0.417095  -0.000192  0.89057  -0.001  0.385058  -0.000431  0.956376  -0.001  0.396265  -0.000222  0.940441  -0.001  0.290658  0.376981  -0.000646  0.967723  -0.001
H  H4  1  0.34801553  0.06446371  0.04115961  1  0.417236  -0.000191  0.890395  -0.001  0.385229  -0.00043  0.956167  -0.001  0.39643  -0.000221  0.940241  -0.001  0.29074  0.377161  -0.000645  0.967505  -0.001
H  H5  1  0.65197176  0.43553173  0.54115802  1  0.417106  -0.000191  0.890542  -0.001  0.385069  -0.000431  0.956351  -0.001  0.396274  -0.000222  0.94042  -0.001  0.290668  0.376993  -0.000646  0.967695  -0.001
H  H6  1  0.66834251  0.05439282  0.05360307  1  0.421132  -0.000358  0.884086  -0.001  0.388541  -0.000593  0.950212  -0.001  0.400221  -0.000371  0.93368  -0.001  0.289153  0.380056  -0.0008  0.962102  -0.002
H  H7  1  0.33164529  0.44558925  0.55360242  1  0.42111  -0.000358  0.884079  -0.001  0.388496  -0.000593  0.950238  -0.001  0.400182  -0.000371  0.933695  -0.001  0.289165  0.380002  -0.0008  0.962138  -0.002
H  H8  1  0.33165247  0.94560461  0.94639766  1  0.421149  -0.000357  0.884078  -0.001  0.388565  -0.000593  0.950189  -0.001  0.400246  -0.000371  0.933656  -0.001  0.289196  0.380076  -0.0008  0.962083  -0.002
H  H9  1  0.66835274  0.55441162  0.44639832  1  0.421124  -0.000357  0.884061  -0.001  0.388518  -0.000593  0.950204  -0.001  0.400205  -0.000371  0.933661  -0.001  0.289163  0.380025  -0.0008  0.962102  -0.002
H  H10  1  0.52227918  0.77231770  0.50496011  1  0.301126  2e-06  0.918969  0.0  0.279102  -1.2e-05  0.981963  0.0  0.288003  -7e-06  0.975212  0.0  0.315817  0.272886  -1.8e-05  0.986644  0.0
H  H11  1  0.47773884  0.72768819  0.00495721  1  0.301274  1e-06  0.918554  0.0  0.2792  -1.2e-05  0.981633  0.0  0.288103  -7e-06  0.97488  0.0  0.315823  0.27298  -1.8e-05  0.986325  0.0
H  H12  1  0.47772678  0.22768440  0.49504063  1  0.30115  2e-06  0.918893  0.0  0.279088  -1.2e-05  0.981938  0.0  0.28799  -7e-06  0.975186  0.0  0.315814  0.272871  -1.8e-05  0.986613  0.0
H  H13  1  0.52225986  0.27230815  0.99504199  1  0.301259  2e-06  0.918577  0.0  0.279159  -1.2e-05  0.981684  0.0  0.28806  -7e-06  0.974933  0.0  0.315827  0.272945  -1.8e-05  0.986369  0.0
H  H14  1  0.26022752  0.84102130  0.56984291  1  0.097932  4.9e-05  0.951682  0.0  0.104808  5.3e-05  1.018219  0.0  0.107336  8.5e-05  1.015412  0.0  0.124948  0.103109  3e-05  1.019928  0.0
H  H15  1  0.73976894  0.65895843  0.06984699  1  0.098008  5e-05  0.95166  0.0  0.104812  5.3e-05  1.018279  0.0  0.107345  8.5e-05  1.015463  0.0  0.124927  0.103115  2.8e-05  1.019991  0.0
H  H16  1  0.73977471  0.15898190  0.43015552  1  0.097953  5e-05  0.951596  0.0  0.104803  5.3e-05  1.01817  0.0  0.107331  8.5e-05  1.015363  0.0  0.124955  0.103101  3e-05  1.019876  0.0
H  H17  1  0.26022733  0.34103901  0.93015375  1  0.097942  4.9e-05  0.951708  0.0  0.104786  5.3e-05  1.01829  0.0  0.107319  8.5e-05  1.015476  0.0  0.124918  0.10309  2.8e-05  1.020003  0.0
H  H18  1  0.23007086  0.88033277  0.75975580  1  0.127343  0.000247  0.964359  0.0  0.138118  0.000185  1.02197  0.0  0.140716  0.000166  1.022802  0.0  0.111166  0.136337  0.000217  1.021673  0.0
H  H19  1  0.76992290  0.61967028  0.25975688  1  0.127406  0.000247  0.964365  0.0  0.138186  0.000185  1.02197  0.0  0.140782  0.000166  1.022806  0.0  0.111187  0.136404  0.000217  1.021667  0.0
H  H20  1  0.76993026  0.11966246  0.24024340  1  0.127361  0.000244  0.964306  0.0  0.138127  0.000185  1.021922  0.0  0.140725  0.000166  1.022753  0.0  0.111156  0.136345  0.000217  1.021625  0.0
H  H21  1  0.23007514  0.38033059  0.74024386  1  0.127353  0.00025  0.964407  0.0  0.13813  0.000185  1.022023  0.0  0.140727  0.000166  1.022856  0.0  0.111175  0.136348  0.000217  1.02172  0.0
H  H22  1  0.75805737  0.77847855  0.79552130  1  0.12315  0.000286  0.971364  0.0  0.133255  0.000219  1.030254  0.0  0.135552  0.000195  1.031365  0.0  0.108894  0.131688  0.000244  1.029777  0.0
H  H23  1  0.24192088  0.72151030  0.29551408  1  0.12324  0.000285  0.971213  0.0  0.133228  0.000219  1.030221  0.0  0.135528  0.000196  1.031338  0.0  0.108883  0.131663  0.000245  1.029733  0.0
H  H24  1  0.24194568  0.22152125  0.20448021  1  0.123193  0.000287  0.971314  0.0  0.13329  0.000219  1.030211  0.0  0.13559  0.000195  1.031327  0.0  0.108911  0.131723  0.000244  1.029734  0.0
H  H25  1  0.75807586  0.27849056  0.70448589  1  0.123271  0.000287  0.971217  0.0  0.133281  0.000219  1.030196  0.0  0.135581  0.000196  1.031311  0.0  0.108886  0.131711  0.000245  1.029707  0.0
H  H26  1  0.77039914  0.74764202  0.60324072  1  0.100607  0.000251  0.951596  0.0  0.106707  0.000211  1.020019  0.0  0.109117  0.000226  1.01739  0.0  0.126731  0.105104  0.000193  1.021534  0.0
H  H27  1  0.22960182  0.75234643  0.10323554  1  0.100631  0.000249  0.951643  0.0  0.106732  0.000211  1.020054  0.0  0.10914  0.000226  1.017424  0.0  0.1267  0.105131  0.000192  1.021567  0.0
H  H28  1  0.22960325  0.25236231  0.39676078  1  0.10065  0.000247  0.951513  0.0  0.106712  0.000211  1.019979  0.0  0.109121  0.000226  1.01735  0.0  0.126741  0.105107  0.000193  1.021491  0.0
H  H29  1  0.77039559  0.24764989  0.89676366  1  0.100626  0.000252  0.951641  0.0  0.106742  0.000211  1.020027  0.0  0.109153  0.000226  1.017396  0.0  0.12671  0.105133  0.000192  1.02157  0.0
C  C30  1  0.00063854  0.55482142  0.74675897  1  0.490811  0.021291  3.991185  0.011  0.461038  0.004074  4.282989  -0.002  0.487867  0.00423  4.293679  -0.001  0.302584  0.441553  0.004044  4.275803  -0.002
C  C31  1  0.99941299  0.94517747  0.24673888  1  0.491205  0.021288  3.990937  0.011  0.461478  0.004078  4.282702  -0.002  0.488305  0.004229  4.293382  -0.001  0.302777  0.441984  0.004045  4.275529  -0.002
C  C32  1  0.99936048  0.44517719  0.25323792  1  0.490879  0.021293  3.99114  0.011  0.461078  0.004076  4.282934  -0.002  0.487908  0.004227  4.293626  -0.001  0.302623  0.441591  0.004045  4.275742  -0.002
C  C33  1  0.00058861  0.05482117  0.75326263  1  0.491462  0.021304  3.990771  0.011  0.461711  0.004074  4.282547  -0.002  0.488542  0.004225  4.293224  -0.001  0.302859  0.442215  0.004044  4.275369  -0.002
C  C34  1  0.99756377  0.67049458  0.90418328  1  0.500587  0.009993  3.98042  0.002  0.46998  -0.002028  4.269829  -0.008  0.498462  -0.001968  4.276654  -0.007  0.303687  0.449429  -0.001863  4.265582  -0.008
C  C35  1  0.00246525  0.82950170  0.40416644  1  0.500938  0.010003  3.980994  0.002  0.470306  -0.00201  4.270425  -0.008  0.498782  -0.001953  4.27725  -0.007  0.303804  0.44974  -0.001846  4.266164  -0.008
C  C36  1  0.00243928  0.32950521  0.09581361  1  0.500537  0.009994  3.980402  0.002  0.469893  -0.002027  4.269822  -0.008  0.498373  -0.001969  4.276652  -0.007  0.303616  0.449344  -0.001865  4.265579  -0.008
C  C37  1  0.99753404  0.17050828  0.59583660  1  0.501093  0.010022  3.980761  0.002  0.470427  -0.00201  4.270212  -0.008  0.498907  -0.001951  4.277029  -0.007  0.303855  0.449857  -0.001842  4.265948  -0.008
C  C38  1  0.36691539  0.83340634  0.62339230  1  0.160264  8.1e-05  3.674636  0.0  0.118095  2.3e-05  3.933309  0.0  0.130271  7.6e-05  3.948024  0.0  0.053322  0.110378  -4e-05  3.922871  0.0
C  C39  1  0.63308684  0.66659392  0.12339240  1  0.160144  8.1e-05  3.674561  0.0  0.118025  2.3e-05  3.933231  0.0  0.1302  7.7e-05  3.947943  0.0  0.053295  0.110304  -4.1e-05  3.922806  0.0
C  C40  1  0.63308605  0.16659117  0.37660766  1  0.160286  8.3e-05  3.674538  0.0  0.118126  2.3e-05  3.93322  0.0  0.1303  7.6e-05  3.947937  0.0  0.053276  0.110411  -4e-05  3.922776  0.0
C  C41  1  0.36690927  0.33340238  0.87660834  1  0.16022  8e-05  3.674604  0.0  0.118074  2.3e-05  3.933255  0.0  0.130244  7.6e-05  3.947972  0.0  0.05333  0.110352  -4.1e-05  3.922835  0.0
C  C42  1  0.35118645  0.85181885  0.72758179  1  -0.256061  1e-06  3.691104  0.0  -0.273586  3.2e-05  3.946726  0.0  -0.288008  7.2e-05  3.967548  0.0  -0.102202  -0.264746  -3e-05  3.933671  0.0
C  C43  1  0.64880974  0.64817900  0.22758693  1  -0.256244  -0.0  3.691024  0.0  -0.273794  3.3e-05  3.946634  0.0  -0.288214  7.5e-05  3.967455  0.0  -0.102235  -0.26495  -3.1e-05  3.933573  0.0
C  C44  1  0.64881515  0.14817979  0.27241818  1  -0.256153  3e-06  3.691123  0.0  -0.27367  3.3e-05  3.94675  0.0  -0.288098  7.6e-05  3.967566  0.0  -0.102185  -0.26483  -3.1e-05  3.933697  0.0
C  C45  1  0.35118653  0.35181844  0.77241381  1  -0.256222  -3e-06  3.691103  0.0  -0.273753  3.3e-05  3.946757  0.0  -0.288171  7.3e-05  3.967576  0.0  -0.102273  -0.264909  -3.1e-05  3.933696  0.0
C  C46  1  0.49150077  0.83076071  0.79470305  1  0.435241  8.9e-05  3.868237  0.0  0.4141  -0.000137  4.132895  0.0  0.437084  -7.8e-05  4.14169  0.0  0.109134  0.399054  -0.000212  4.126616  0.0
C  C47  1  0.50848989  0.66924304  0.29470226  1  0.435226  8.2e-05  3.868268  0.0  0.414146  -0.000136  4.132842  0.0  0.437121  -7.7e-05  4.141648  0.0  0.109122  0.399117  -0.000212  4.126538  0.0
C  C48  1  0.50849809  0.16923676  0.20529768  1  0.435293  8.4e-05  3.868221  0.0  0.414167  -0.000136  4.132849  0.0  0.437168  -8e-05  4.141612  0.0  0.109138  0.399121  -0.000212  4.126581  0.0
C  C49  1  0.49150654  0.33075554  0.70529925  1  0.435348  8.8e-05  3.868132  0.0  0.414179  -0.000137  4.132831  0.0  0.437157  -7.8e-05  4.141632  0.0  0.109156  0.39915  -0.000212  4.126522  0.0
C  C50  1  0.64649645  0.79313539  0.74758525  1  -0.258396  -6.9e-05  3.697765  0.0  -0.274917  6e-06  3.951663  0.0  -0.289475  5.5e-05  3.973069  0.0  -0.104371  -0.265933  -0.000106  3.938388  0.0
C  C51  1  0.35349478  0.70685714  0.24758882  1  -0.258274  -6.8e-05  3.697329  0.0  -0.274701  6e-06  3.951225  0.0  -0.289267  5.5e-05  3.972644  0.0  -0.104227  -0.265711  -0.000106  3.937938  0.0
C  C52  1  0.35350629  0.20686213  0.25241626  1  -0.258452  -6.6e-05  3.697787  0.0  -0.274963  6e-06  3.951667  0.0  -0.289534  5.8e-05  3.973073  0.0  -0.104373  -0.26598  -0.000106  3.938396  0.0
C  C53  1  0.64650118  0.29313802  0.75241115  1  -0.258479  -6.9e-05  3.697386  0.0  -0.274893  6e-06  3.951329  0.0  -0.28946  5.4e-05  3.972743  0.0  -0.104313  -0.265901  -0.000106  3.938035  0.0
C  C54  1  0.65599773  0.77807919  0.64274886  1  0.153763  0.000157  3.669737  0.0  0.113004  2e-06  3.925135  0.0  0.124966  5.6e-05  3.94065  0.0  0.051638  0.105266  -2.8e-05  3.914443  0.0
C  C55  1  0.34400096  0.72192598  0.14274192  1  0.153441  0.000161  3.669654  0.0  0.112702  2e-06  3.924997  0.0  0.124665  5.7e-05  3.940512  0.0  0.051592  0.10496  -2.9e-05  3.914324  0.0
C  C56  1  0.34400434  0.22192286  0.35725265  1  0.153719  0.000161  3.669698  0.0  0.112984  1e-06  3.925097  0.0  0.124947  5.3e-05  3.940613  0.0  0.051614  0.105247  -2.8e-05  3.914402  0.0
C  C57  1  0.65599515  0.27807032  0.85725805  1  0.153557  0.000156  3.669577  0.0  0.112797  2e-06  3.924953  0.0  0.124761  5.6e-05  3.940465  0.0  0.051598  0.105052  -2.9e-05  3.914272  0.0
N  N58  1  0.98856589  0.53837987  0.65699228  1  -0.598753  -0.033263  2.916139  -0.057  -0.580391  -0.023946  3.212568  -0.037  -0.604201  -0.020258  3.213371  -0.031  -0.376754  -0.562718  -0.027701  3.212223  -0.042
N  N59  1  0.01148885  0.96163081  0.15697419  1  -0.598946  -0.033262  2.916346  -0.057  -0.580569  -0.023946  3.212713  -0.037  -0.604381  -0.020255  3.213509  -0.031  -0.376854  -0.562908  -0.027701  3.212373  -0.042
N  N60  1  0.01143344  0.46162102  0.34300384  1  -0.598793  -0.033264  2.916223  -0.057  -0.580449  -0.023945  3.212703  -0.037  -0.604245  -0.020254  3.213475  -0.031  -0.376803  -0.562777  -0.027701  3.212356  -0.042
N  N61  1  0.98850111  0.03836770  0.84303117  1  -0.599153  -0.033273  2.916183  -0.057  -0.580776  -0.023947  3.212574  -0.037  -0.604592  -0.020259  3.213366  -0.031  -0.376944  -0.563112  -0.027705  3.21223  -0.042
N  N62  1  0.97863968  0.76783726  0.96359548  1  -0.60614  -0.024958  2.888676  -0.046  -0.588189  -0.018445  3.18087  -0.029  -0.61063  -0.014053  3.17759  -0.023  -0.381291  -0.57218  -0.022964  3.184228  -0.035
N  N63  1  0.02134386  0.73215521  0.46356488  1  -0.606216  -0.024959  2.889341  -0.046  -0.588195  -0.018452  3.181444  -0.029  -0.610631  -0.014061  3.178164  -0.023  -0.381264  -0.572177  -0.022967  3.184785  -0.035
N  N64  1  0.02136451  0.23216141  0.03640295  1  -0.606079  -0.024958  2.888653  -0.046  -0.588127  -0.018443  3.180858  -0.029  -0.610569  -0.01405  3.17758  -0.023  -0.381256  -0.572116  -0.022963  3.184216  -0.035
N  N65  1  0.97866304  0.26785373  0.53643663  1  -0.606269  -0.024964  2.889251  -0.046  -0.588236  -0.018451  3.181348  -0.029  -0.610672  -0.014065  3.178064  -0.023  -0.381292  -0.572223  -0.022969  3.184686  -0.035
N  N66  1  0.01896813  0.55623043  0.84595114  1  -0.459528  -0.003366  3.274711  -0.009  -0.413364  -0.002189  3.537067  -0.005  -0.438036  -0.001093  3.540643  -0.003  -0.311311  -0.395384  -0.003451  3.534034  -0.007
N  N67  1  0.98109049  0.94377633  0.34592804  1  -0.46004  -0.003359  3.274814  -0.009  -0.413905  -0.002186  3.537219  -0.005  -0.438573  -0.001094  3.54078  -0.003  -0.311587  -0.395931  -0.003446  3.534195  -0.007
N  N68  1  0.98102975  0.44376930  0.15404652  1  -0.459559  -0.003364  3.274633  -0.009  -0.413328  -0.002192  3.536948  -0.005  -0.438002  -0.001096  3.540525  -0.003  -0.311277  -0.395351  -0.003451  3.533917  -0.007
N  N69  1  0.01891383  0.05623257  0.65407655  1  -0.460211  -0.003366  3.274877  -0.009  -0.414028  -0.002185  3.53727  -0.005  -0.438698  -0.001085  3.540826  -0.003  -0.311604  -0.396056  -0.003447  3.534247  -0.007
N  N70  1  0.51793682  0.79867021  0.58248784  1  -0.257844  -0.000192  3.472196  0.0  -0.186032  -0.000207  3.699731  0.0  -0.203733  -0.000122  3.712966  0.0  -0.369462  -0.174262  -0.000325  3.69057  0.0
N  N71  1  0.48207053  0.70133379  0.08249455  1  -0.257619  -0.000192  3.472105  0.0  -0.185785  -0.000207  3.699617  0.0  -0.203482  -0.000123  3.712856  0.0  -0.369342  -0.174016  -0.000326  3.690468  0.0
N  N72  1  0.48206526  0.20133185  0.41751290  1  -0.257831  -0.000194  3.472137  0.0  -0.185976  -0.000207  3.699658  0.0  -0.203675  -0.000122  3.712892  0.0  -0.369405  -0.174203  -0.000325  3.690488  0.0
N  N73  1  0.51792719  0.29866481  0.91750619  1  -0.257679  -0.000194  3.47208  0.0  -0.185816  -0.000207  3.699633  0.0  -0.203512  -0.000123  3.712875  0.0  -0.369354  -0.174052  -0.000326  3.690486  0.0
O  O74  1  0.73445493  0.98855943  0.01014937  1  -0.856464  -0.034267  2.008401  -0.062  -0.823053  -0.031191  2.236489  -0.051  -0.853413  -0.024056  2.201501  -0.04  -0.582981  -0.797927  -0.038668  2.260459  -0.062
O  O75  1  0.26553417  0.51141554  0.51013448  1  -0.856367  -0.034275  2.008524  -0.062  -0.822859  -0.031196  2.236637  -0.051  -0.853227  -0.024059  2.201637  -0.04  -0.582898  -0.797754  -0.03868  2.26067  -0.062
O  O76  1  0.26554601  0.01144375  0.98984598  1  -0.856462  -0.034265  2.008336  -0.062  -0.823033  -0.031188  2.236378  -0.051  -0.853384  -0.024053  2.201374  -0.04  -0.58299  -0.797901  -0.038665  2.26034  -0.062
O  O77  1  0.73446484  0.48858307  0.48986318  1  -0.856378  -0.034274  2.008475  -0.062  -0.822876  -0.031194  2.236584  -0.051  -0.853243  -0.024057  2.201584  -0.04  -0.582895  -0.797774  -0.038676  2.260614  -0.062
O  O78  1  0.47853944  0.84545034  0.89385000  1  -0.630618  -0.001207  2.045499  -0.002  -0.55676  -0.000947  2.248944  -0.002  -0.582179  -0.000571  2.241117  -0.001  -0.320746  -0.538724  -0.001432  2.253462  -0.002
O  O79  1  0.52144871  0.65457594  0.39385125  1  -0.630586  -0.001206  2.045398  -0.002  -0.556744  -0.000947  2.248834  -0.002  -0.582163  -0.000572  2.241002  -0.001  -0.320803  -0.538698  -0.001432  2.253346  -0.002
O  O80  1  0.52145733  0.15454142  0.10615073  1  -0.63068  -0.001204  2.045498  -0.002  -0.556815  -0.000948  2.248941  -0.002  -0.582236  -0.000572  2.241102  -0.001  -0.320769  -0.538778  -0.001433  2.253465  -0.002
O  O81  1  0.47854866  0.34542947  0.60615026  1  -0.630557  -0.001208  2.045231  -0.002  -0.556669  -0.000947  2.248705  -0.002  -0.58209  -0.000571  2.240877  -0.001  -0.320757  -0.538622  -0.001432  2.253211  -0.002
