# generated using pymatgen
data_FeH8(C3N)4
_symmetry_space_group_name_H-M   'P 1'
_cell_length_a   13.53818432
_cell_length_b   13.12443524
_cell_length_c   26.96921129
_cell_angle_alpha   89.99939245
_cell_angle_beta   102.25582291
_cell_angle_gamma   90.00083142
_symmetry_Int_Tables_number   1
_chemical_formula_structural   FeH8(C3N)4
_chemical_formula_sum   'Fe8 H64 C96 N32'
_cell_volume   4682.70705592
_cell_formula_units_Z   8
loop_
 _symmetry_equiv_pos_site_id
 _symmetry_equiv_pos_as_xyz
  1  'x, y, z'
loop_
 _atom_site_type_symbol
 _atom_site_label
 _atom_site_symmetry_multiplicity
 _atom_site_fract_x
 _atom_site_fract_y
 _atom_site_fract_z
 _atom_site_occupancy
 _atom_site_pbe_bader_charge
 _atom_site_pbe_bader_spin_density
 _atom_site_pbe_cm5_charge
 _atom_site_pbe_ddec_charge
 _atom_site_pbe_ddec_spin_density
 _atom_site_pbe_ddec_sum_bond_order
 _atom_site_pbe_magmom
Fe  Fe0  1  0.47915837  0.36671228  0.23032886  1  1.202212  3.480065  0.733859  0.529477  3.761802  2.924445  3.393
Fe  Fe1  1  0.52083655  0.86671766  0.26967023  1  1.202049  3.480172  0.733757  0.52957  3.761867  2.924231  3.393
Fe  Fe2  1  0.52084190  0.63329249  0.76967305  1  1.202156  3.480137  0.733811  0.529491  3.761878  2.924587  3.393
Fe  Fe3  1  0.47916823  0.13327873  0.73032992  1  1.202259  3.48012  0.733827  0.529547  3.761825  2.924267  3.393
Fe  Fe4  1  0.48974534  0.61333066  0.25842154  1  1.203771  3.486885  0.728262  0.534072  3.771578  2.883161  3.399
Fe  Fe5  1  0.51025079  0.11334377  0.24157596  1  1.203805  3.486973  0.728165  0.5339  3.771699  2.883244  3.399
Fe  Fe6  1  0.51025339  0.38667488  0.74157724  1  1.20367  3.486922  0.72818  0.533973  3.771607  2.883157  3.399
Fe  Fe7  1  0.48974868  0.88664653  0.75842178  1  1.204013  3.486928  0.728147  0.533893  3.771667  2.883272  3.399
H  H8  1  0.25706614  0.64026561  0.27137329  1  0.088421  0.001358  0.118286  0.102513  0.000362  1.010733  0.0
H  H9  1  0.74292350  0.14028847  0.22862044  1  0.087951  0.001359  0.118211  0.102439  0.000362  1.010686  0.0
H  H10  1  0.74293636  0.35974602  0.72862513  1  0.088635  0.001358  0.118193  0.102353  0.000362  1.010447  0.0
H  H11  1  0.25707522  0.85971173  0.77137797  1  0.087948  0.001359  0.118188  0.102425  0.000362  1.01077  0.0
H  H12  1  0.22865406  0.33991496  0.20279321  1  0.087225  0.001588  0.117645  0.102938  0.000466  1.007189  0.001
H  H13  1  0.77133959  0.83993096  0.29719290  1  0.087467  0.001587  0.117688  0.102983  0.000466  1.007296  0.001
H  H14  1  0.77133793  0.66009286  0.79721044  1  0.087201  0.001587  0.117715  0.103041  0.000466  1.007294  0.001
H  H15  1  0.22865908  0.16006238  0.70280179  1  0.087652  0.001587  0.117676  0.102983  0.000466  1.007361  0.001
H  H16  1  0.09168950  0.63109821  0.27980248  1  0.04853  2e-06  0.096835  0.094809  -9.7e-05  1.013381  0.0
H  H17  1  0.90832424  0.13114499  0.22019676  1  0.048286  2e-06  0.096913  0.094774  -9.7e-05  1.013417  0.0
H  H18  1  0.90830933  0.36891723  0.72020447  1  0.048817  2e-06  0.096832  0.094846  -9.7e-05  1.013367  0.0
H  H19  1  0.09168127  0.86885674  0.77980124  1  0.04841  2e-06  0.096907  0.094853  -9.7e-05  1.013365  0.0
H  H20  1  0.91176180  0.63274763  0.28049359  1  0.043032  6.3e-05  0.096577  0.09287  -6.8e-05  1.015403  0.0
H  H21  1  0.08825358  0.13278561  0.21951397  1  0.04326  6.3e-05  0.096622  0.093053  -6.9e-05  1.015592  0.0
H  H22  1  0.08823326  0.36725942  0.71951371  1  0.043156  6.3e-05  0.096685  0.09301  -6.8e-05  1.015304  0.0
H  H23  1  0.91175198  0.86721688  0.78048811  1  0.04332  6.3e-05  0.09663  0.093091  -6.9e-05  1.015475  0.0
H  H24  1  0.87101594  0.35450853  0.19334085  1  0.055256  1.1e-05  0.096873  0.094016  -7.8e-05  1.010054  0.0
H  H25  1  0.12897358  0.85453789  0.30666144  1  0.055868  1.1e-05  0.09682  0.093838  -7.8e-05  1.009833  0.0
H  H26  1  0.12898666  0.64549852  0.80666574  1  0.055008  1.1e-05  0.096959  0.0941  -7.8e-05  1.010033  0.0
H  H27  1  0.87103046  0.14546231  0.69333974  1  0.055864  1.1e-05  0.096817  0.093865  -7.8e-05  1.010006  0.0
H  H28  1  0.05129396  0.35267243  0.19271457  1  0.040364  4.1e-05  0.097693  0.095751  -8.3e-05  1.007714  0.0
H  H29  1  0.94869160  0.85270907  0.30727471  1  0.029571  4.4e-05  0.0977  0.095703  -8.3e-05  1.007629  0.0
H  H30  1  0.94871092  0.64733996  0.80729337  1  0.030082  4.4e-05  0.097635  0.095664  -8.3e-05  1.007716  0.0
H  H31  1  0.05131013  0.14729190  0.69272289  1  0.02949  4.4e-05  0.097706  0.095707  -8.3e-05  1.00763  0.0
H  H32  1  0.70458923  0.34328309  0.20559845  1  0.081415  0.001188  0.117183  0.102967  0.000231  1.011169  0.0
H  H33  1  0.29540399  0.84330598  0.29441022  1  0.081093  0.001188  0.117184  0.102988  0.000231  1.01116  0.0
H  H34  1  0.29541407  0.65672168  0.79440414  1  0.081322  0.001188  0.117185  0.102951  0.000231  1.011213  0.0
H  H35  1  0.70460240  0.15669727  0.70559751  1  0.081324  0.001188  0.117199  0.102964  0.000231  1.011106  0.0
H  H36  1  0.73806032  0.64401094  0.27385260  1  0.077098  0.001862  0.117275  0.100811  0.000624  1.011678  0.001
H  H37  1  0.26194980  0.14402842  0.22614546  1  0.078085  0.001861  0.117197  0.100763  0.000624  1.011655  0.001
H  H38  1  0.26193538  0.35599688  0.72614586  1  0.077274  0.001861  0.11731  0.100857  0.000624  1.011607  0.001
H  H39  1  0.73805184  0.85596188  0.77384473  1  0.078361  0.001862  0.117274  0.100868  0.000624  1.011604  0.001
H  H40  1  0.46915309  0.56568218  0.37702521  1  0.071254  0.001521  0.114187  0.097342  0.000435  1.035795  0.001
H  H41  1  0.53081972  0.06569062  0.12296826  1  0.07084  0.001521  0.114167  0.097359  0.000435  1.035677  0.001
H  H42  1  0.53084637  0.43431726  0.62297179  1  0.071029  0.001522  0.114139  0.097285  0.000435  1.035816  0.001
H  H43  1  0.46915784  0.93430958  0.87702796  1  0.07081  0.001521  0.114213  0.097355  0.000435  1.035796  0.001
H  H44  1  0.52897452  0.88963392  0.39034780  1  0.109502  0.001684  0.119218  0.10566  0.000541  1.003635  0.001
H  H45  1  0.47101615  0.38964028  0.10964999  1  0.109453  0.001683  0.119279  0.10571  0.000541  1.003736  0.001
H  H46  1  0.47103933  0.11036399  0.60965329  1  0.109508  0.001683  0.119185  0.105622  0.000541  1.003711  0.001
H  H47  1  0.52898260  0.61036221  0.89035064  1  0.109461  0.001683  0.119271  0.105712  0.000541  1.003794  0.001
H  H48  1  0.54332198  0.57324612  0.47636728  1  0.046752  7.5e-05  0.098097  0.097827  -2.3e-05  1.022156  0.0
H  H49  1  0.45666381  0.07325191  0.02363046  1  0.046787  7.5e-05  0.098026  0.097792  -2.3e-05  1.022134  0.0
H  H50  1  0.45668047  0.42675027  0.52362817  1  0.045668  7.5e-05  0.098058  0.097746  -2.3e-05  1.022218  0.0
H  H51  1  0.54332811  0.92674829  0.97636724  1  0.046792  7.5e-05  0.098044  0.097796  -2.3e-05  1.022174  0.0
H  H52  1  0.53568608  0.57864033  0.56621445  1  0.058619  8.5e-05  0.095721  0.090038  -6.6e-05  1.028395  0.0
H  H53  1  0.46431348  0.07865380  0.93378398  1  0.0591  8.5e-05  0.095739  0.090092  -6.6e-05  1.028392  0.0
H  H54  1  0.46431033  0.42134768  0.43377964  1  0.058742  8.5e-05  0.095729  0.090064  -6.6e-05  1.028405  0.0
H  H55  1  0.53568901  0.92134640  0.06621407  1  0.0588  8.5e-05  0.095742  0.090084  -6.6e-05  1.028459  0.0
H  H56  1  0.41570664  0.88402349  0.54685573  1  0.049624  5.7e-05  0.098843  0.096938  -6.8e-05  1.007762  0.0
H  H57  1  0.58428412  0.38404512  0.95314733  1  0.049389  5.7e-05  0.098876  0.096981  -6.8e-05  1.007695  0.0
H  H58  1  0.58428378  0.11596147  0.45314331  1  0.049452  5.7e-05  0.098862  0.096952  -6.8e-05  1.007687  0.0
H  H59  1  0.41572221  0.61595356  0.04685595  1  0.0494  5.7e-05  0.098864  0.096923  -6.8e-05  1.007733  0.0
H  H60  1  0.42302705  0.87829021  0.45682979  1  0.045844  8e-05  0.098927  0.098475  -4.9e-05  1.004641  0.0
H  H61  1  0.57695068  0.37830187  0.04317080  1  0.046641  8e-05  0.098907  0.098381  -4.9e-05  1.00469  0.0
H  H62  1  0.57696337  0.12170542  0.54316813  1  0.045896  8e-05  0.098958  0.098478  -4.9e-05  1.004682  0.0
H  H63  1  0.42304733  0.62169375  0.95683125  1  0.046829  8e-05  0.098921  0.098414  -4.9e-05  1.004717  0.0
H  H64  1  0.43359114  0.89983666  0.63388553  1  0.06181  0.001729  0.11893  0.103954  0.000519  1.005029  0.001
H  H65  1  0.56637176  0.39986683  0.86610677  1  0.061262  0.00173  0.11902  0.104077  0.00052  1.004952  0.001
H  H66  1  0.56638035  0.10014526  0.36610895  1  0.061408  0.001729  0.119018  0.10411  0.000519  1.004969  0.001
H  H67  1  0.43362925  0.60013641  0.13389335  1  0.061284  0.00173  0.119027  0.104142  0.000519  1.005012  0.001
H  H68  1  0.52805745  0.58381059  0.65202992  1  0.094724  0.002025  0.115131  0.097217  0.000735  1.035063  0.001
H  H69  1  0.47198303  0.08381161  0.84797643  1  0.094391  0.002025  0.115105  0.097153  0.000735  1.035142  0.001
H  H70  1  0.47197230  0.41618809  0.34797467  1  0.094951  0.002025  0.115105  0.097112  0.000736  1.035162  0.001
H  H71  1  0.52801799  0.91619240  0.15202481  1  0.094961  0.002025  0.115089  0.097122  0.000736  1.035083  0.001
C  C72  1  0.26685882  0.56611181  0.25520702  1  0.41617  0.025601  0.013179  -0.042357  0.012926  3.955561  0.018
C  C73  1  0.73313589  0.06613036  0.24478649  1  0.426973  0.02557  0.013246  -0.042379  0.012928  3.955439  0.018
C  C74  1  0.73314221  0.43390210  0.74479459  1  0.416267  0.025606  0.013251  -0.042218  0.01293  3.955394  0.018
C  C75  1  0.26686506  0.93386451  0.75520918  1  0.426513  0.025561  0.013327  -0.042335  0.012923  3.955764  0.018
C  C76  1  0.19481127  0.49010594  0.23690293  1  0.029401  0.024407  -0.031814  -0.03506  0.011098  4.078805  0.014
C  C77  1  0.80518595  0.99013082  0.26309096  1  0.019808  0.024438  -0.031919  -0.035267  0.011097  4.078592  0.014
C  C78  1  0.80518976  0.50991026  0.76309943  1  0.028972  0.024411  -0.031882  -0.03536  0.011099  4.079024  0.014
C  C79  1  0.19481653  0.00986557  0.73690598  1  0.019594  0.024442  -0.031915  -0.035288  0.011099  4.078672  0.014
C  C80  1  0.25212399  0.41345487  0.21973461  1  0.388867  0.025271  0.011308  -0.048236  0.012904  3.963153  0.018
C  C81  1  0.74786991  0.91346558  0.28025486  1  0.388307  0.025275  0.011302  -0.048128  0.012905  3.963167  0.018
C  C82  1  0.74787178  0.58655905  0.78026942  1  0.389331  0.02527  0.011359  -0.048065  0.012904  3.963171  0.018
C  C83  1  0.25213331  0.08653005  0.71974104  1  0.389051  0.025268  0.011317  -0.048146  0.012903  3.963099  0.018
C  C84  1  0.08681468  0.49131817  0.23651504  1  -0.019037  0.004038  -0.013526  0.078857  0.001879  4.05409  0.002
C  C85  1  0.91318408  0.99135222  0.26348011  1  -0.017952  0.004037  -0.013524  0.078949  0.001879  4.053727  0.002
C  C86  1  0.91318790  0.50869575  0.76349007  1  -0.018932  0.004038  -0.013441  0.07916  0.001879  4.053739  0.002
C  C87  1  0.08681991  0.00864722  0.73651736  1  -0.017721  0.004036  -0.013547  0.079034  0.001879  4.053818  0.002
C  C88  1  0.04389447  0.56989620  0.26058798  1  -0.027316  0.004081  -0.094599  -0.130056  0.001915  4.000115  0.002
C  C89  1  0.95611699  0.06993639  0.23941355  1  -0.027312  0.004081  -0.094467  -0.129533  0.001915  3.999891  0.002
C  C90  1  0.95610583  0.43011390  0.73941615  1  -0.027801  0.004081  -0.094627  -0.130158  0.001915  4.000165  0.002
C  C91  1  0.04389004  0.93006381  0.76058535  1  -0.02771  0.004081  -0.094502  -0.129817  0.001915  3.999985  0.002
C  C92  1  0.94153333  0.57087493  0.26097088  1  -0.039849  0.003393  -0.094384  -0.128107  0.001566  4.002208  0.002
C  C93  1  0.05847590  0.07092118  0.23903264  1  -0.039604  0.003391  -0.094652  -0.128891  0.001565  4.002528  0.002
C  C94  1  0.05846473  0.42913441  0.73903562  1  -0.039141  0.003392  -0.094446  -0.128246  0.001565  4.00225  0.002
C  C95  1  0.94152964  0.92908436  0.76096758  1  -0.040466  0.003392  -0.094639  -0.128803  0.001565  4.002519  0.002
C  C96  1  0.87626668  0.49339024  0.23735691  1  0.024191  0.005063  -0.012325  0.079973  0.002373  4.053414  0.003
C  C97  1  0.12373072  0.99342355  0.26264773  1  0.023783  0.005066  -0.012174  0.080404  0.002374  4.053052  0.003
C  C98  1  0.12373365  0.50661681  0.76264908  1  0.023309  0.005064  -0.012514  0.079766  0.002374  4.053615  0.003
C  C99  1  0.87627103  0.00657817  0.73735173  1  0.024411  0.005066  -0.012205  0.080347  0.002374  4.053078  0.003
C  C100  1  0.91897664  0.41534633  0.21282687  1  -0.086179  0.003407  -0.09586  -0.130719  0.001592  4.00185  0.002
C  C101  1  0.08101138  0.91538076  0.28717348  1  -0.086872  0.003405  -0.095763  -0.13039  0.001591  4.001745  0.002
C  C102  1  0.08102445  0.58466378  0.78717994  1  -0.086202  0.003407  -0.095871  -0.130618  0.001592  4.002066  0.002
C  C103  1  0.91898963  0.08462325  0.71282739  1  -0.086869  0.003405  -0.0958  -0.130498  0.001591  4.001906  0.002
C  C104  1  0.02147890  0.41429751  0.21244080  1  -0.035542  0.004227  -0.095415  -0.131688  0.001957  4.0021  0.002
C  C105  1  0.97851510  0.91432968  0.28755536  1  -0.025776  0.004225  -0.095586  -0.132008  0.001957  4.002203  0.002
C  C106  1  0.97852520  0.58571184  0.78756484  1  -0.024823  0.004223  -0.095419  -0.131795  0.001957  4.002115  0.002
C  C107  1  0.02148816  0.08567052  0.71244389  1  -0.025702  0.004226  -0.095511  -0.131886  0.001957  4.002224  0.002
C  C108  1  0.69677194  0.41686391  0.22278395  1  0.412483  0.026017  0.01151  -0.045571  0.013032  3.956696  0.018
C  C109  1  0.30322523  0.91687663  0.27722142  1  0.41272  0.026031  0.011491  -0.045674  0.013039  3.956164  0.018
C  C110  1  0.30323060  0.58314315  0.77721819  1  0.412439  0.026014  0.011436  -0.045695  0.013031  3.956789  0.018
C  C111  1  0.69677734  0.08312052  0.72278258  1  0.412712  0.026026  0.011515  -0.045583  0.013037  3.956045  0.018
C  C112  1  0.76915323  0.49367899  0.23896789  1  0.006468  0.022398  -0.032195  -0.038171  0.010178  4.07882  0.013
C  C113  1  0.23085177  0.99370169  0.26104088  1  0.0066  0.022395  -0.032091  -0.038136  0.010176  4.078177  0.013
C  C114  1  0.23084707  0.50632959  0.76103587  1  0.006469  0.022399  -0.032084  -0.037967  0.010177  4.078865  0.013
C  C115  1  0.76915151  0.00629241  0.73896023  1  0.005816  0.022399  -0.032109  -0.038101  0.010177  4.078258  0.013
C  C116  1  0.71392735  0.56975403  0.25804540  1  0.415809  0.025422  0.013896  -0.039061  0.013006  3.948322  0.018
C  C117  1  0.28608186  0.06976617  0.24195664  1  0.414766  0.025431  0.013942  -0.039135  0.01301  3.948369  0.018
C  C118  1  0.28607065  0.43025379  0.74195515  1  0.415913  0.025423  0.013769  -0.03928  0.013007  3.948424  0.018
C  C119  1  0.71392286  0.93022184  0.75803831  1  0.415177  0.025424  0.013862  -0.039329  0.013008  3.948472  0.018
C  C120  1  0.48638810  0.64526674  0.37188641  1  0.398798  0.026959  0.009034  -0.049353  0.013523  3.96281  0.018
C  C121  1  0.51358953  0.14527634  0.12810791  1  0.398465  0.02696  0.009081  -0.049287  0.013521  3.962854  0.018
C  C122  1  0.51361211  0.35472889  0.62811104  1  0.399133  0.026962  0.009161  -0.049091  0.013524  3.962482  0.018
C  C123  1  0.48639635  0.85472386  0.87188917  1  0.398762  0.026962  0.009076  -0.049264  0.013522  3.962649  0.018
C  C124  1  0.49460411  0.72638075  0.40664085  1  0.004972  0.02308  -0.032756  -0.03568  0.010452  4.088235  0.014
C  C125  1  0.50537764  0.22638950  0.09335720  1  0.005453  0.023077  -0.032636  -0.035625  0.010451  4.088487  0.014
C  C126  1  0.50539838  0.27361335  0.59335721  1  0.004916  0.023078  -0.032787  -0.035826  0.010451  4.088193  0.014
C  C127  1  0.49461506  0.77360689  0.90664281  1  0.005303  0.023083  -0.032684  -0.035756  0.010453  4.088306  0.014
C  C128  1  0.51546554  0.81084276  0.37852498  1  0.368284  0.025167  0.00973  -0.05241  0.012784  3.972298  0.017
C  C129  1  0.48452112  0.31085743  0.12147575  1  0.367878  0.025173  0.009421  -0.052866  0.012787  3.972632  0.017
C  C130  1  0.48454000  0.18915135  0.62147561  1  0.368078  0.025172  0.009669  -0.052479  0.012785  3.972257  0.017
C  C131  1  0.51547539  0.68914430  0.87852762  1  0.367728  0.025164  0.009633  -0.052502  0.01278  3.972369  0.017
C  C132  1  0.48496162  0.72589702  0.45960326  1  0.051896  0.004669  -0.014299  0.07839  0.002193  4.054399  0.002
C  C133  1  0.51502544  0.22591090  0.04039756  1  0.053628  0.004668  -0.014312  0.078366  0.002193  4.054428  0.002
C  C134  1  0.51503936  0.27409708  0.54039501  1  0.053287  0.004669  -0.014301  0.078398  0.002193  4.054483  0.002
C  C135  1  0.48496650  0.77408854  0.95960237  1  0.053591  0.004667  -0.014284  0.078533  0.002192  4.054431  0.002
C  C136  1  0.51385169  0.64131876  0.49139371  1  -0.072666  0.003109  -0.09537  -0.130464  0.00145  3.992099  0.002
C  C137  1  0.48613952  0.14132684  0.00860426  1  -0.074021  0.00311  -0.095326  -0.130483  0.00145  3.99215  0.002
C  C138  1  0.48614775  0.35867687  0.50860218  1  -0.072764  0.003109  -0.095287  -0.130291  0.00145  3.992058  0.002
C  C139  1  0.51385542  0.85867108  0.99139375  1  -0.073987  0.003111  -0.095357  -0.130549  0.001451  3.992209  0.002
C  C140  1  0.50960568  0.64465468  0.54245104  1  -0.032197  0.004024  -0.095423  -0.130091  0.001867  3.994252  0.002
C  C141  1  0.49039174  0.14466723  0.95754907  1  -0.032418  0.004021  -0.095435  -0.130228  0.001866  3.994409  0.002
C  C142  1  0.49039453  0.35533714  0.45754604  1  -0.032528  0.004023  -0.095506  -0.130311  0.001867  3.99426  0.002
C  C143  1  0.50960928  0.85533449  0.04245180  1  -0.032251  0.004022  -0.09546  -0.130195  0.001866  3.994376  0.002
C  C144  1  0.47620372  0.73226863  0.56419626  1  0.004357  0.003605  -0.010638  0.080689  0.001693  4.052604  0.002
C  C145  1  0.52379561  0.23228596  0.93580546  1  0.00147  0.003609  -0.010649  0.080815  0.001694  4.052261  0.002
C  C146  1  0.52379274  0.26771633  0.43580228  1  0.004115  0.003607  -0.01057  0.08095  0.001693  4.052335  0.002
C  C147  1  0.47620916  0.76771348  0.06419431  1  0.001516  0.003609  -0.010615  0.080782  0.001693  4.052472  0.002
C  C148  1  0.44439267  0.81555768  0.53183485  1  -0.070502  0.004077  -0.095843  -0.129978  0.001886  4.003354  0.002
C  C149  1  0.55559795  0.31557703  0.96816816  1  -0.067532  0.004074  -0.095905  -0.130146  0.001885  4.003412  0.002
C  C150  1  0.55560383  0.18442957  0.46816704  1  -0.070126  0.004076  -0.095902  -0.130155  0.001885  4.003505  0.002
C  C151  1  0.44440459  0.68442317  0.03183435  1  -0.067528  0.004074  -0.095839  -0.129962  0.001885  4.003343  0.002
C  C152  1  0.44882711  0.81255320  0.48087564  1  -0.042147  0.003057  -0.09651  -0.135151  0.001411  4.009935  0.002
C  C153  1  0.55115730  0.31256503  0.01912448  1  -0.04348  0.003058  -0.096472  -0.134858  0.001412  4.010077  0.002
C  C154  1  0.55116632  0.18744166  0.51912259  1  -0.042353  0.003056  -0.096557  -0.135085  0.001411  4.010247  0.002
C  C155  1  0.44883919  0.68743136  0.98087629  1  -0.043705  0.003059  -0.096528  -0.135031  0.001412  4.009885  0.002
C  C156  1  0.45718126  0.82334882  0.64648285  1  0.437723  0.022745  0.014346  -0.040847  0.011574  3.946277  0.016
C  C157  1  0.54280258  0.32336904  0.85351274  1  0.437745  0.022759  0.014088  -0.041208  0.011581  3.946309  0.016
C  C158  1  0.54280538  0.17663614  0.35351504  1  0.437845  0.022753  0.014138  -0.041167  0.011577  3.946283  0.016
C  C159  1  0.45719767  0.67662888  0.14648694  1  0.437723  0.02276  0.014054  -0.041253  0.011582  3.946277  0.016
C  C160  1  0.47785070  0.73834982  0.61843615  1  -0.029374  0.023899  -0.033087  -0.039127  0.010812  4.078289  0.014
C  C161  1  0.52215173  0.23836834  0.88156475  1  -0.0294  0.023893  -0.033018  -0.039111  0.01081  4.078213  0.014
C  C162  1  0.52215406  0.26163743  0.38156177  1  -0.030098  0.023898  -0.033078  -0.039205  0.010811  4.078512  0.014
C  C163  1  0.47785305  0.76163338  0.11843465  1  -0.029882  0.023899  -0.033054  -0.039248  0.010812  4.078383  0.014
C  C164  1  0.50563812  0.66235929  0.65565028  1  0.410307  0.023531  0.012598  -0.040937  0.011992  3.946531  0.017
C  C165  1  0.49437992  0.16236681  0.84435114  1  0.411155  0.023548  0.012535  -0.040939  0.012  3.946315  0.017
C  C166  1  0.49437494  0.33763329  0.34434776  1  0.410987  0.023535  0.012546  -0.040976  0.011995  3.946679  0.017
C  C167  1  0.50562107  0.83763186  0.15564824  1  0.411029  0.023543  0.012546  -0.04089  0.011998  3.946498  0.017
N  N168  1  0.47221270  0.79937172  0.69613949  1  -0.776387  0.085984  -0.288518  -0.169182  0.037736  3.621009  0.048
N  N169  1  0.52777611  0.29938979  0.80385600  1  -0.776341  0.08599  -0.28829  -0.168737  0.037731  3.620405  0.048
N  N170  1  0.52777848  0.20062390  0.30385925  1  -0.775936  0.085992  -0.288509  -0.169067  0.03774  3.620528  0.048
N  N171  1  0.47221960  0.70061118  0.19614358  1  -0.776193  0.085978  -0.288283  -0.168694  0.037733  3.620419  0.048
N  N172  1  0.50202399  0.69981636  0.70171043  1  -0.786562  0.08659  -0.28974  -0.16875  0.037961  3.638533  0.047
N  N173  1  0.49798695  0.19982421  0.79828784  1  -0.786383  0.086568  -0.289761  -0.168933  0.037956  3.638173  0.047
N  N174  1  0.49798151  0.30018384  0.29828645  1  -0.786794  0.086578  -0.289628  -0.168537  0.037953  3.63848  0.047
N  N175  1  0.50201102  0.80017523  0.20171086  1  -0.786317  0.086575  -0.289781  -0.168977  0.03796  3.638312  0.047
N  N176  1  0.50045278  0.67936862  0.32662511  1  -0.806886  0.083063  -0.290613  -0.178456  0.036134  3.621131  0.042
N  N177  1  0.49952454  0.17938768  0.17336901  1  -0.806439  0.083076  -0.290537  -0.178486  0.03614  3.621117  0.042
N  N178  1  0.49955047  0.32062396  0.67337340  1  -0.807106  0.083052  -0.290632  -0.178656  0.036135  3.621057  0.042
N  N179  1  0.50046209  0.82061709  0.82662889  1  -0.806611  0.083062  -0.290562  -0.178337  0.036134  3.621073  0.042
N  N180  1  0.61706225  0.53996924  0.25365262  1  -0.799634  0.083647  -0.289962  -0.173894  0.036479  3.627717  0.043
N  N181  1  0.38294200  0.03997430  0.24634646  1  -0.799935  0.083653  -0.290023  -0.173808  0.03648  3.627862  0.043
N  N182  1  0.38293496  0.46004087  0.74634563  1  -0.799651  0.083639  -0.289798  -0.173658  0.036472  3.6275  0.043
N  N183  1  0.61706197  0.96001523  0.75364878  1  -0.799685  0.083644  -0.289965  -0.173732  0.036479  3.627752  0.043
N  N184  1  0.60663752  0.44544801  0.23179393  1  -0.787642  0.085751  -0.290672  -0.175767  0.037918  3.642195  0.048
N  N185  1  0.39335995  0.94545386  0.26820651  1  -0.787272  0.085738  -0.290711  -0.175742  0.037913  3.641897  0.048
N  N186  1  0.39336196  0.55456134  0.76820492  1  -0.787679  0.085753  -0.290725  -0.175789  0.037921  3.64206  0.048
N  N187  1  0.60664107  0.05454253  0.73179473  1  -0.787569  0.085743  -0.290729  -0.175766  0.037912  3.641921  0.048
N  N188  1  0.51922157  0.78201465  0.33093957  1  -0.802758  0.083683  -0.294359  -0.177463  0.036616  3.640894  0.043
N  N189  1  0.48076319  0.28202820  0.16905963  1  -0.802606  0.083685  -0.294352  -0.177146  0.036611  3.640836  0.043
N  N190  1  0.48078700  0.21797641  0.66906172  1  -0.802202  0.083687  -0.294286  -0.177226  0.036611  3.64063  0.043
N  N191  1  0.51923105  0.71797658  0.83094276  1  -0.802153  0.083679  -0.29455  -0.177606  0.036622  3.640788  0.043
N  N192  1  0.35002799  0.44186814  0.22736233  1  -0.824749  0.083801  -0.294769  -0.179296  0.036499  3.635476  0.042
N  N193  1  0.64996479  0.94186694  0.27262801  1  -0.824501  0.083775  -0.294732  -0.179379  0.036492  3.635703  0.042
N  N194  1  0.64996776  0.55814044  0.77263948  1  -0.824971  0.083807  -0.294827  -0.179482  0.036505  3.63548  0.042
N  N195  1  0.35003769  0.05812793  0.72736856  1  -0.824856  0.083787  -0.294807  -0.179333  0.036492  3.635427  0.042
N  N196  1  0.35900675  0.53650746  0.24943575  1  -0.79594  0.08581  -0.292324  -0.179757  0.037733  3.635809  0.047
N  N197  1  0.64098908  0.03651235  0.25055765  1  -0.796232  0.085804  -0.292178  -0.179479  0.037729  3.635698  0.047
N  N198  1  0.64099276  0.46350188  0.75056496  1  -0.796059  0.085798  -0.292244  -0.179526  0.037726  3.63579  0.047
N  N199  1  0.35901265  0.96348251  0.74943958  1  -0.796355  0.085833  -0.292222  -0.179605  0.037734  3.635848  0.047
