# generated using pymatgen
data_CdH8C12S2(BrN2)2
_symmetry_space_group_name_H-M   'P 1'
_cell_length_a   8.20108841
_cell_length_b   9.11785077
_cell_length_c   10.93747307
_cell_angle_alpha   90.00107406
_cell_angle_beta   101.35635822
_cell_angle_gamma   89.99826973
_symmetry_Int_Tables_number   1
_chemical_formula_structural   CdH8C12S2(BrN2)2
_chemical_formula_sum   'Cd2 H16 C24 S4 Br4 N8'
_cell_volume   801.85117854
_cell_formula_units_Z   2
loop_
 _symmetry_equiv_pos_site_id
 _symmetry_equiv_pos_as_xyz
  1  'x, y, z'
loop_
 _atom_site_type_symbol
 _atom_site_label
 _atom_site_symmetry_multiplicity
 _atom_site_fract_x
 _atom_site_fract_y
 _atom_site_fract_z
 _atom_site_occupancy
 _atom_site_hle17_bader_spin_density
 _atom_site_hle17_ddec_charge
 _atom_site_hle17_ddec_spin_density
 _atom_site_hle17_ddec_sum_bond_order
 _atom_site_hle17_magmom
 _atom_site_hse06_10hf_bader_spin_density
 _atom_site_hse06_10hf_ddec_charge
 _atom_site_hse06_10hf_ddec_spin_density
 _atom_site_hse06_10hf_ddec_sum_bond_order
 _atom_site_hse06_10hf_magmom
 _atom_site_hse06_bader_spin_density
 _atom_site_hse06_ddec_charge
 _atom_site_hse06_ddec_spin_density
 _atom_site_hse06_ddec_sum_bond_order
 _atom_site_hse06_magmom
 _atom_site_pbe_bader_spin_density
 _atom_site_pbe_cm5_charge
 _atom_site_pbe_ddec_charge
 _atom_site_pbe_ddec_spin_density
 _atom_site_pbe_ddec_sum_bond_order
 _atom_site_pbe_magmom
Cd  Cd0  1  0.99999873  0.00000991  0.99999449  1  0  0.943341  0  1.994247  0  0  0.764307  0  2.457191  0  0  0.80918  0  2.42158  0  0  0.721529  0.732756  0  2.480529  0
Cd  Cd1  1  0.50000229  0.50000496  0.99999663  1  0  0.943516  0  1.994155  0  0  0.764511  0  2.457104  0  0  0.809377  0  2.421488  0  0  0.721637  0.732961  0  2.480448  0
H  H2  1  0.96643495  0.24064051  0.77823911  1  0  0.087079  0  0.941129  0  0  0.093536  0  1.007939  0  0  0.095624  0  1.006648  0  0  0.11145  0.092265  0  1.008854  0
H  H3  1  0.46644402  0.25937631  0.77824982  1  0  0.087119  0  0.941115  0  0  0.093577  0  1.007909  0  0  0.095662  0  1.006619  0  0  0.111445  0.092307  0  1.008824  0
H  H4  1  0.03357354  0.75935725  0.22174662  1  0  0.08715  0  0.941081  0  0  0.093612  0  1.007942  0  0  0.095699  0  1.006652  0  0  0.11144  0.092339  0  1.008864  0
H  H5  1  0.53356667  0.74064009  0.22175814  1  0  0.087141  0  0.941048  0  0  0.093557  0  1.007903  0  0  0.095644  0  1.006613  0  0  0.111465  0.092288  0  1.008818  0
H  H6  1  0.04318136  0.27372860  0.56891533  1  0  0.101811  0  0.994389  0  0  0.104326  0  1.071163  0  0  0.108522  0  1.06871  0  0  0.090295  0.101504  0  1.073008  0
H  H7  1  0.54315304  0.22623821  0.56890658  1  0  0.101895  0  0.994027  0  0  0.104438  0  1.070796  0  0  0.108636  0  1.068347  0  0  0.090313  0.101616  0  1.072644  0
H  H8  1  0.95682476  0.72626587  0.43107285  1  0  0.101778  0  0.994486  0  0  0.104354  0  1.071212  0  0  0.108547  0  1.068761  0  0  0.09027  0.101531  0  1.073057  0
H  H9  1  0.45681731  0.77375078  0.43108358  1  0  0.101815  0  0.994122  0  0  0.104397  0  1.070848  0  0  0.108594  0  1.068395  0  0  0.090359  0.101574  0  1.072696  0
H  H10  1  0.35837106  0.89073360  0.65133037  1  0  0.108522  0  0.975023  0  0  0.112751  0  1.046113  0  0  0.117068  0  1.043279  0  0  0.095071  0.109918  0  1.048004  0
H  H11  1  0.85839181  0.60925605  0.65134129  1  0  0.108448  0  0.975008  0  0  0.112687  0  1.046092  0  0  0.117007  0  1.043257  0  0  0.095059  0.109852  0  1.047986  0
H  H12  1  0.64162784  0.10924442  0.34866241  1  0  0.10861  0  0.975153  0  0  0.112775  0  1.046301  0  0  0.117092  0  1.043465  0  0  0.0951  0.109941  0  1.048196  0
H  H13  1  0.14162197  0.39074281  0.34865241  1  0  0.10865  0  0.975075  0  0  0.112808  0  1.046197  0  0  0.117125  0  1.043364  0  0  0.095119  0.109973  0  1.048092  0
H  H14  1  0.26706995  0.87386444  0.85522443  1  0  0.083751  0  0.963709  0  0  0.090498  0  1.029622  0  0  0.091889  0  1.029229  0  0  0.112873  0.09005  0  1.028577  0
H  H15  1  0.76707883  0.62612839  0.85523051  1  0  0.083715  0  0.963789  0  0  0.090461  0  1.029703  0  0  0.09185  0  1.029317  0  0  0.112866  0.090014  0  1.028656  0
H  H16  1  0.73291147  0.12612455  0.14476435  1  0  0.083691  0  0.963731  0  0  0.090456  0  1.029634  0  0  0.091848  0  1.02924  0  0  0.112831  0.090006  0  1.028596  0
H  H17  1  0.23292621  0.37386607  0.14476120  1  0  0.083745  0  0.963875  0  0  0.090528  0  1.029743  0  0  0.091918  0  1.029351  0  0  0.112887  0.090078  0  1.0287  0
C  C18  1  0.38761883  0.15678254  0.07191184  1  0  0.306989  0  3.988131  0  0  0.286419  0  4.293332  0  0  0.308288  0  4.307312  0  0  0.146529  0.271555  0  4.283912  0
C  C19  1  0.88762156  0.34323325  0.07193449  1  0  0.306943  0  3.988596  0  0  0.286366  0  4.293806  0  0  0.308235  0  4.307797  0  0  0.146614  0.271502  0  4.284379  0
C  C20  1  0.61239611  0.84324044  0.92808018  1  0  0.307133  0  3.988377  0  0  0.286571  0  4.293567  0  0  0.308443  0  4.307552  0  0  0.146577  0.271703  0  4.28415  0
C  C21  1  0.11237706  0.65677767  0.92808021  1  0  0.306744  0  3.987959  0  0  0.286177  0  4.293163  0  0  0.30805  0  4.30715  0  0  0.146472  0.271312  0  4.283741  0
C  C22  1  0.05115076  0.16478901  0.74526409  1  0  0.145451  0  3.694658  0  0  0.114736  0  3.948875  0  0  0.123051  0  3.965398  0  0  0.043129  0.109293  0  3.937417  0
C  C23  1  0.55117050  0.33521181  0.74530243  1  0  0.145679  0  3.694415  0  0  0.114961  0  3.94862  0  0  0.123283  0  3.96514  0  0  0.043348  0.109515  0  3.937167  0
C  C24  1  0.94886839  0.83521204  0.25473943  1  0  0.14553  0  3.694578  0  0  0.114736  0  3.94877  0  0  0.123051  0  3.965292  0  0  0.043186  0.109294  0  3.937314  0
C  C25  1  0.44883975  0.66479362  0.25472377  1  0  0.145522  0  3.694443  0  0  0.114845  0  3.948643  0  0  0.12316  0  3.965167  0  0  0.043222  0.109402  0  3.937191  0
C  C26  1  0.09503520  0.18355047  0.62945689  1  0  -0.177682  0  3.748858  0  0  -0.196919  0  4.002663  0  0  -0.204617  0  4.022808  0  0  -0.101644  -0.192063  0  3.989342  0
C  C27  1  0.59499357  0.31644469  0.62946353  1  0  -0.177981  0  3.748154  0  0  -0.197237  0  4.002024  0  0  -0.204941  0  4.022173  0  0  -0.101584  -0.192387  0  3.988712  0
C  C28  1  0.90496386  0.81644181  0.37053957  1  0  -0.177775  0  3.74929  0  0  -0.197065  0  4.003074  0  0  -0.204763  0  4.023217  0  0  -0.101659  -0.192208  0  3.989753  0
C  C29  1  0.40496736  0.68356184  0.37053735  1  0  -0.177642  0  3.74834  0  0  -0.196926  0  4.002135  0  0  -0.204625  0  4.022279  0  0  -0.101595  -0.192073  0  3.98882  0
C  C30  1  0.20290501  0.08122193  0.59342590  1  0  0.132653  0  3.701137  0  0  0.144644  0  3.962109  0  0  0.151768  0  3.98314  0  0  -0.006291  0.139634  0  3.948233  0
C  C31  1  0.70291521  0.41875649  0.59344799  1  0  0.132729  0  3.700456  0  0  0.144639  0  3.96156  0  0  0.151768  0  3.982595  0  0  -0.006389  0.139626  0  3.947686  0
C  C32  1  0.79711030  0.91877692  0.40657439  1  0  0.13261  0  3.701385  0  0  0.144577  0  3.962368  0  0  0.151704  0  3.983396  0  0  -0.006355  0.139563  0  3.948505  0
C  C33  1  0.29709179  0.58122372  0.40656042  1  0  0.132711  0  3.700943  0  0  0.14469  0  3.96194  0  0  0.151817  0  3.982971  0  0  -0.006252  0.139675  0  3.948075  0
C  C34  1  0.27030040  0.96973168  0.67498964  1  0  -0.174372  0  3.759491  0  0  -0.194063  0  4.012717  0  0  -0.201488  0  4.032858  0  0  -0.097699  -0.189426  0  3.999179  0
C  C35  1  0.77029049  0.53027502  0.67500551  1  0  -0.174227  0  3.758893  0  0  -0.193861  0  4.012092  0  0  -0.201292  0  4.032234  0  0  -0.097526  -0.189224  0  3.998554  0
C  C36  1  0.72969862  0.03025511  0.32500589  1  0  -0.174399  0  3.759732  0  0  -0.194021  0  4.012925  0  0  -0.201448  0  4.033064  0  0  -0.097665  -0.189384  0  3.99939  0
C  C37  1  0.22969506  0.46973700  0.32499293  1  0  -0.174556  0  3.759676  0  0  -0.194119  0  4.012874  0  0  -0.201548  0  4.033014  0  0  -0.097793  -0.189481  0  3.999338  0
C  C38  1  0.21913195  0.95991758  0.78865765  1  0  0.146933  0  3.69086  0  0  0.117998  0  3.938133  0  0  0.125523  0  3.956488  0  0  0.047311  0.113328  0  3.924589  0
C  C39  1  0.71914832  0.54005655  0.78868791  1  0  0.147113  0  3.690692  0  0  0.118097  0  3.938048  0  0  0.125624  0  3.956407  0  0  0.047368  0.113426  0  3.9245  0
C  C40  1  0.78087100  0.04008566  0.21134295  1  0  0.147009  0  3.691012  0  0  0.118014  0  3.938233  0  0  0.125538  0  3.956591  0  0  0.04731  0.113345  0  3.924688  0
C  C41  1  0.28085740  0.45992915  0.21131943  1  0  0.147039  0  3.69097  0  0  0.117993  0  3.938313  0  0  0.125521  0  3.956669  0  0  0.047436  0.113323  0  3.924768  0
S  S42  1  0.31537333  0.02436158  0.14630721  1  0  -0.329664  0  2.177903  0  0  -0.296093  0  2.519516  0  0  -0.315201  0  2.515055  0  0  -0.147586  -0.283538  0  2.521765  0
S  S43  1  0.81536432  0.47563895  0.14632696  1  0  -0.329645  0  2.178336  0  0  -0.296076  0  2.519976  0  0  -0.315184  0  2.515521  0  0  -0.147596  -0.283526  0  2.522226  0
S  S44  1  0.68463186  0.97564605  0.85368817  1  0  -0.329693  0  2.178436  0  0  -0.296121  0  2.520038  0  0  -0.31523  0  2.515585  0  0  -0.147584  -0.283568  0  2.522288  0
S  S45  1  0.18462315  0.52436868  0.85368727  1  0  -0.329512  0  2.178269  0  0  -0.295953  0  2.519908  0  0  -0.315061  0  2.515452  0  0  -0.147549  -0.283407  0  2.522158  0
Br  Br46  1  0.25460858  0.08844612  0.43103886  1  0  -0.043486  0  1.372068  0  0  -0.029265  0  1.647306  0  0  -0.034092  0  1.64215  0  0  0.067036  -0.025435  0  1.650565  0
Br  Br47  1  0.75465057  0.41153977  0.43104739  1  0  -0.043527  0  1.371676  0  0  -0.029269  0  1.646937  0  0  -0.034094  0  1.641779  0  0  0.066969  -0.025438  0  1.650197  0
Br  Br48  1  0.74535130  0.91154068  0.56893810  1  0  -0.043459  0  1.372086  0  0  -0.029223  0  1.647323  0  0  -0.034049  0  1.642162  0  0  0.067049  -0.025391  0  1.650584  0
Br  Br49  1  0.24539858  0.58843386  0.56896351  1  0  -0.043555  0  1.371871  0  0  -0.029329  0  1.647112  0  0  -0.034155  0  1.641955  0  0  0.066988  -0.025496  0  1.65037  0
N  N50  1  0.44352972  0.25137922  0.01837052  1  0  -0.533377  0  2.856706  0  0  -0.482342  0  3.136882  0  0  -0.503089  0  3.144288  0  0  -0.390695  -0.468468  0  3.131848  0
N  N51  1  0.94355263  0.24863183  0.01839043  1  0  -0.533345  0  2.856811  0  0  -0.482301  0  3.136992  0  0  -0.503053  0  3.144404  0  0  -0.3908  -0.468425  0  3.131954  0
N  N52  1  0.55647901  0.74862841  0.98162073  1  0  -0.533528  0  2.856435  0  0  -0.482504  0  3.136628  0  0  -0.503255  0  3.144031  0  0  -0.39079  -0.468629  0  3.131599  0
N  N53  1  0.05645373  0.75139006  0.98163163  1  0  -0.533294  0  2.856253  0  0  -0.482238  0  3.136409  0  0  -0.502991  0  3.14382  0  0  -0.390695  -0.46836  0  3.131373  0
N  N54  1  0.10940442  0.05359065  0.82209636  1  0  -0.326273  0  3.278459  0  0  -0.248403  0  3.536703  0  0  -0.267858  0  3.556026  0  0  -0.330543  -0.235011  0  3.522908  0
N  N55  1  0.60937551  0.44642662  0.82212047  1  0  -0.32664  0  3.278642  0  0  -0.248701  0  3.536886  0  0  -0.268151  0  3.556185  0  0  -0.330924  -0.235307  0  3.523092  0
N  N56  1  0.89059364  0.94640711  0.17790546  1  0  -0.326389  0  3.278449  0  0  -0.248391  0  3.536587  0  0  -0.267845  0  3.555914  0  0  -0.330494  -0.234998  0  3.52279  0
N  N57  1  0.39059697  0.55358869  0.17789007  1  0  -0.326546  0  3.278551  0  0  -0.248622  0  3.536758  0  0  -0.268076  0  3.556079  0  0  -0.330846  -0.235228  0  3.522966  0
