# generated using pymatgen
data_Hf3H43C62N3O16
_symmetry_space_group_name_H-M   'P 1'
_cell_length_a   14.93166659
_cell_length_b   23.45331540
_cell_length_c   40.60766368
_cell_angle_alpha   93.86382987
_cell_angle_beta   97.67619885
_cell_angle_gamma   90.04366682
_symmetry_Int_Tables_number   1
_chemical_formula_structural   Hf3H43C62N3O16
_chemical_formula_sum   'Hf6 H86 C124 N6 O32'
_cell_volume   14060.53153696
_cell_formula_units_Z   2
loop_
 _symmetry_equiv_pos_site_id
 _symmetry_equiv_pos_as_xyz
  1  'x, y, z'
loop_
 _atom_site_type_symbol
 _atom_site_label
 _atom_site_symmetry_multiplicity
 _atom_site_fract_x
 _atom_site_fract_y
 _atom_site_fract_z
 _atom_site_occupancy
 _atom_site_pbe_bader_charge
 _atom_site_pbe_bader_spin_density
 _atom_site_pbe_cm5_charge
 _atom_site_pbe_ddec_charge
 _atom_site_pbe_ddec_spin_density
 _atom_site_pbe_ddec_sum_bond_order
 _atom_site_pbe_magmom
Hf  Hf0  1  0.04805503  0.91868042  0.04114957  1  2.615503  0  1.457786  2.131523  0  3.36717  0
Hf  Hf1  1  0.01317753  0.08207733  0.96658438  1  2.615058  0  1.457399  2.130846  0  3.360151  0
Hf  Hf2  1  0.93154835  0.04859177  0.04127111  1  2.605519  0  1.448574  2.145854  0  3.334442  0
Hf  Hf3  1  0.12922965  0.95220074  0.96780033  1  2.591367  0  1.435619  2.105505  0  3.370437  0
Hf  Hf4  1  0.89345822  0.95297001  0.96968069  1  2.604938  0  1.416571  2.145508  0  3.370099  0
Hf  Hf5  1  0.16531432  0.05021904  0.03692003  1  2.609123  0  1.433371  2.14805  0  3.303512  0
H  H6  1  0.01237720  0.85963132  0.97169582  1  0.599053  0  0.330447  0.413649  0  0.870695  0
H  H7  1  0.83132468  0.06467718  0.97739037  1  0.620297  0  0.336459  0.418325  0  0.853878  0
H  H8  1  0.20172646  0.06028515  0.96994697  1  0.607064  0  0.339695  0.423992  0  0.844953  0
H  H9  1  0.08289177  0.01346578  0.08884578  1  0.585319  0  0.334893  0.414655  0  0.857506  0
H  H10  1  0.73595127  0.93177507  0.99323730  1  0.63985  0  0.326782  0.409832  0  0.875452  0
H  H11  1  0.98247969  0.09519832  0.10599918  1  0.610245  0  0.326036  0.400384  0  0.881541  0
H  H12  1  0.18090740  0.14565677  0.07584124  1  0.596983  0  0.300236  0.387123  0  0.916178  0
H  H13  1  0.84488199  0.85853628  0.93124036  1  0.566311  0  0.285265  0.384677  0  0.923711  0
H  H14  1  0.13680745  0.90796995  0.90581118  1  0.655999  0  0.330026  0.41473  0  0.886235  0
H  H15  1  0.30537515  0.92823305  0.97911692  1  0.612434  0  0.303849  0.388788  0  0.914601  0
H  H16  1  0.33904502  0.06467909  0.01857537  1  0.59287  0  0.319481  0.399638  0  0.889437  0
H  H17  1  0.82028614  0.97211363  0.90829464  1  0.629483  0  0.321385  0.416952  0  0.873761  0
H  H18  1  0.85763585  0.03761637  0.92197089  1  0.642933  0  0.286999  0.399908  0  0.940616  0
H  H19  1  0.13351983  0.90847074  0.10301263  1  0.599732  0  0.297037  0.38088  0  0.926457  0
H  H20  1  0.30318680  0.99152349  0.06889196  1  0.628298  0  0.318691  0.403231  0  0.889949  0
H  H21  1  0.16386022  0.85618154  0.92910545  1  0.627422  0  0.333927  0.413563  0  0.87647  0
H  H22  1  0.87634623  0.12604088  0.92856075  1  0.563659  0  0.293994  0.378568  0  0.931259  0
H  H23  1  0.75514057  0.07377088  0.03355949  1  0.594448  0  0.300729  0.384944  0  0.918041  0
H  H24  1  0.76431209  0.99734298  0.00830777  1  0.641076  0  0.282552  0.400691  0  0.944142  0
H  H25  1  0.29705472  0.99907045  0.00032836  1  0.62991  0  0.275369  0.399905  0  0.949191  0
H  H26  1  0.06240487  0.11237914  0.08408088  1  0.632261  0  0.284144  0.400601  0  0.943364  0
H  H27  1  0.21397921  0.96183995  0.08045242  1  0.645644  0  0.284731  0.402511  0  0.939185  0
H  H28  1  0.36700677  0.49712225  0.00051235  1  0.023375  0  0.10132  0.105546  0  1.008177  0
H  H29  1  0.70053891  0.50261931  0.00799014  1  0.08688  0  0.10235  0.108049  0  1.003974  0
H  H30  1  0.63664700  0.00824330  0.49789021  1  0.042815  0  0.101505  0.103679  0  1.018708  0
H  H31  1  0.31514273  0.99433923  0.50972072  1  0.053239  0  0.100957  0.104705  0  1.012818  0
H  H32  1  0.66228151  0.09916264  0.51557430  1  0.040055  0  0.101755  0.103624  0  1.00251  0
H  H33  1  0.80005244  0.13643094  0.55074555  1  0.074093  0  0.103812  0.104713  0  0.990802  0
H  H34  1  0.57235315  0.02532526  0.60004926  1  0.070248  0  0.095862  0.098456  0  1.057616  0
H  H35  1  0.66198303  0.04091319  0.65558183  1  0.05524  0  0.103396  0.106023  0  0.989755  0
H  H36  1  0.80890660  0.06860021  0.68953173  1  0.098162  0  0.104841  0.108158  0  1.009795  0
H  H37  1  0.90423181  0.13437112  0.60413237  1  0.059078  0  0.105009  0.105571  0  1.01598  0
H  H38  1  0.12116109  0.17303149  0.61616463  1  0.090049  0  0.103919  0.106108  0  1.003316  0
H  H39  1  0.22653804  0.16650250  0.57359650  1  0.057543  0  0.102318  0.103052  0  0.992872  0
H  H40  1  0.25410088  0.03326534  0.66530322  1  0.06982  0  0.105009  0.108708  0  1.001257  0
H  H41  1  0.37345210  0.97928939  0.63843611  1  0.043845  0  0.102867  0.103449  0  0.992399  0
H  H42  1  0.45637957  0.96149687  0.59002677  1  0.036526  0  0.103618  0.105012  0  0.992003  0
H  H43  1  0.33949145  0.11098891  0.54628749  1  0.067847  0  0.101807  0.106171  0  0.999852  0
H  H44  1  0.97185276  0.00897431  0.39137296  1  0.077561  0  0.104511  0.10777  0  1.007626  0
H  H45  1  0.09877654  0.04031103  0.43494129  1  0.070678  0  0.10263  0.103605  0  0.99287  0
H  H46  1  0.13981350  0.88145061  0.34991369  1  0.063572  0  0.105624  0.109536  0  0.998304  0
H  H47  1  0.29498878  0.86365122  0.38113778  1  0.057954  0  0.103512  0.104998  0  0.991446  0
H  H48  1  0.41459431  0.88954324  0.42740077  1  0.070726  0  0.100677  0.104309  0  1.013379  0
H  H49  1  0.25294611  0.02807892  0.46140536  1  0.048677  0  0.100179  0.10185  0  1.01248  0
H  H50  1  0.65065409  0.98666772  0.31246387  1  0.074796  0  0.104802  0.107594  0  0.995689  0
H  H51  1  0.53282861  0.00820673  0.34910706  1  0.069288  0  0.103086  0.105958  0  0.993696  0
H  H52  1  0.79268270  0.88519519  0.38662774  1  0.075081  0  0.106089  0.106943  0  1.009599  0
H  H53  1  0.72992958  0.86829791  0.43744216  1  0.073072  0  0.105825  0.107236  0  0.9886  0
H  H54  1  0.62812095  0.90161451  0.47832522  1  0.067889  0  0.102686  0.105911  0  0.996141  0
H  H55  1  0.48536105  0.00828130  0.40684792  1  0.084483  0  0.104393  0.11292  0  0.994055  0
H  H56  1  0.15718098  0.75416935  0.04708728  1  0.104253  0  0.111628  0.120409  0  0.990678  0
H  H57  1  0.23388322  0.66033295  0.05319294  1  0.053038  0  0.103136  0.104462  0  0.992477  0
H  H58  1  0.30693133  0.78912859  0.96731546  1  0.064584  0  0.098221  0.097157  0  1.017046  0
H  H59  1  0.41915259  0.71871543  0.94966241  1  0.04507  0  0.103103  0.103701  0  0.99041  0
H  H60  1  0.50224866  0.62857832  0.95804160  1  0.068765  0  0.102587  0.105855  0  1.000475  0
H  H61  1  0.34865122  0.59160172  0.03671684  1  0.05889  0  0.101879  0.106644  0  1.000663  0
H  H62  1  0.90467017  0.24147721  0.06283928  1  0.120956  0  0.107941  0.11475  0  0.986876  0
H  H63  1  0.82881920  0.33536622  0.06994366  1  0.052567  0  0.101613  0.101787  0  0.995882  0
H  H64  1  0.77407667  0.21839134  0.96174478  1  0.076785  0  0.102345  0.103736  0  1.002531  0
H  H65  1  0.65248188  0.28516427  0.94140424  1  0.029147  0  0.102933  0.10324  0  0.991579  0
H  H66  1  0.56327459  0.37242150  0.95095935  1  0.069577  0  0.102144  0.105648  0  0.994875  0
H  H67  1  0.71780065  0.40666541  0.04762397  1  0.024319  0  0.10098  0.104888  0  1.000635  0
H  H68  1  0.53399805  0.36830658  0.04772972  1  0.061583  0  0.101261  0.104321  0  1.009267  0
H  H69  1  0.45562559  0.27783796  0.05430518  1  0.054234  0  0.104129  0.105041  0  0.989386  0
H  H70  1  0.33445518  0.40435006  0.96510509  1  0.032886  0  0.101346  0.105491  0  1.003108  0
H  H71  1  0.20754301  0.33591105  0.94695106  1  0.066804  0  0.102722  0.103651  0  0.993449  0
H  H72  1  0.12969212  0.24405516  0.95343250  1  0.116882  0  0.11091  0.118722  0  0.990822  0
H  H73  1  0.32961171  0.20857368  0.03557751  1  0.080204  0  0.103565  0.106478  0  1.008696  0
H  H74  1  0.56045361  0.63776442  0.05327719  1  0.06372  0  0.10167  0.104558  0  1.000147  0
H  H75  1  0.64560253  0.72896629  0.06475275  1  0.056489  0  0.103834  0.104788  0  0.991495  0
H  H76  1  0.71240755  0.59007059  0.97289216  1  0.055176  0  0.100509  0.103803  0  1.003879  0
H  H77  1  0.82640041  0.65698136  0.95801529  1  0.048186  0  0.102068  0.102  0  0.995019  0
H  H78  1  0.90381167  0.75128611  0.96673396  1  0.061503  0  0.101114  0.099989  0  0.994851  0
H  H79  1  0.76090883  0.79630947  0.05013780  1  0.072984  0  0.107061  0.112623  0  0.989187  0
H  H80  1  0.22923215  0.97615991  0.86593752  1  0.102918  0  0.100908  0.10105  0  1.006376  0
H  H81  1  0.23407645  0.98665209  0.80565003  1  0.058775  0  0.102364  0.104006  0  0.993029  0
H  H82  1  0.02970655  0.10773122  0.86808016  1  0.098667  0  0.112929  0.122867  0  0.999656  0
H  H83  1  0.96939640  0.15206226  0.81616538  1  0.067678  0  0.107128  0.109121  0  0.98521  0
H  H84  1  0.96052307  0.15492070  0.75456928  1  0.092389  0  0.104881  0.10766  0  1.005067  0
H  H85  1  0.17447392  0.03242242  0.75292417  1  0.113971  0  0.105452  0.109604  0  1.001258  0
H  H86  1  0.02722138  0.86229260  0.26107060  1  0.091277  0  0.103719  0.105924  0  1.007716  0
H  H87  1  0.04955012  0.85789455  0.20125440  1  0.08618  0  0.104531  0.106115  0  0.989568  0
H  H88  1  0.78930806  0.96379497  0.24038083  1  0.112584  0  0.105153  0.10796  0  1.010311  0
H  H89  1  0.74819514  0.99845060  0.18349105  1  0.059892  0  0.103626  0.104896  0  0.990622  0
H  H90  1  0.78705129  0.00793434  0.12618121  1  0.095934  0  0.109085  0.116723  0  0.992048  0
H  H91  1  0.00813158  0.89209759  0.14459517  1  0.080528  0  0.105956  0.109001  0  1.004771  0
C  C92  1  0.88151157  0.83701773  0.01157425  1  1.595007  0  0.242311  0.639907  0  4.111919  0
C  C93  1  0.18014045  0.83278612  0.00414507  1  1.551276  0  0.234744  0.626083  0  4.113384  0
C  C94  1  0.92771026  0.96016950  0.09905852  1  1.563359  0  0.23468  0.621143  0  4.123278  0
C  C95  1  0.89126608  0.16918932  0.00801459  1  1.563276  0  0.238219  0.634272  0  4.111841  0
C  C96  1  0.17826579  0.16616809  0.99812782  1  1.530956  0  0.238324  0.627615  0  4.099112  0
C  C97  1  0.12158584  0.03531036  0.90613532  1  1.57523  0  0.239644  0.632976  0  4.098742  0
C  C98  1  0.48431313  0.55129829  0.00273315  1  -0.058789  0  -0.008644  0.022374  0  3.985178  0
C  C99  1  0.57993469  0.55304967  0.00651739  1  0.024536  0  -0.006396  0.028595  0  3.985015  0
C  C100  1  0.62694970  0.50144910  0.00622775  1  -0.048179  0  -0.089195  -0.173937  0  3.974458  0
C  C101  1  0.58289918  0.44842588  0.00381193  1  -0.050198  0  -0.006267  0.029119  0  3.983853  0
C  C102  1  0.48796130  0.44676531  0.00327643  1  -0.024999  0  -0.007952  0.023174  0  3.982383  0
C  C103  1  0.44057102  0.49831257  0.00204822  1  0.019316  0  -0.088733  -0.171722  0  3.969308  0
C  C104  1  0.89858977  0.91924229  0.28993396  1  1.025775  0  0.254669  0.385914  0  3.991605  0
C  C105  1  0.81509144  0.93241315  0.33240450  1  1.100584  0  0.25811  0.39168  0  4.017219  0
C  C106  1  0.96908818  0.92998545  0.34299877  1  1.070107  0  0.258618  0.391611  0  4.026096  0
C  C107  1  0.05530973  0.09582774  0.71377429  1  1.089609  0  0.256306  0.388693  0  4.005541  0
C  C108  1  0.10902658  0.10355273  0.66476394  1  1.052857  0  0.255589  0.386584  0  4.010913  0
C  C109  1  0.95770286  0.10803755  0.66679185  1  1.065237  0  0.256344  0.388976  0  4.02809  0
C  C110  1  0.50650242  0.98164322  0.47347315  1  0.026323  0  -0.006014  0.030948  0  3.976001  0
C  C111  1  0.41310647  0.98019609  0.47578409  1  -0.055954  0  -0.005972  0.031253  0  3.976861  0
C  C112  1  0.38622570  0.99875020  0.50663799  1  -0.005067  0  -0.090922  -0.180552  0  3.96969  0
C  C113  1  0.44545567  0.02103460  0.53418108  1  -0.041352  0  -0.004669  0.033242  0  3.967909  0
C  C114  1  0.53775048  0.02779582  0.53064241  1  -0.00399  0  -0.007243  0.027371  0  3.973635  0
C  C115  1  0.56503112  0.00602438  0.50054440  1  -0.036589  0  -0.09203  -0.181783  0  3.9819  0
C  C116  1  0.60896011  0.05685349  0.55497646  1  0.035758  0  -0.007229  0.080081  0  3.999224  0
C  C117  1  0.67385928  0.09066946  0.54185369  1  -0.038563  0  -0.094405  -0.136687  0  4.007565  0
C  C118  1  0.75024318  0.11190107  0.56143435  1  -0.010933  0  -0.088705  -0.124838  0  4.01622  0
C  C119  1  0.76688598  0.10107455  0.59566154  1  -0.032937  0  -0.007724  0.074428  0  4.016166  0
C  C120  1  0.69867763  0.07163628  0.60992004  1  -0.041614  0  -0.004402  0.087546  0  3.998477  0
C  C121  1  0.62082504  0.05007490  0.58898164  1  -0.073121  0  -0.088629  -0.180275  0  3.929134  0
C  C122  1  0.71455511  0.06206242  0.64442863  1  -0.045827  0  -0.090645  -0.134583  0  3.995674  0
C  C123  1  0.79558741  0.07728324  0.66331391  1  -0.052241  0  -0.086754  -0.108791  0  3.993617  0
C  C124  1  0.86580248  0.10230711  0.64842160  1  0.038736  0  -0.012196  0.001364  0  3.994469  0
C  C125  1  0.84998732  0.11529560  0.61534288  1  -0.017982  0  -0.075416  -0.140736  0  3.929471  0
C  C126  1  0.18160101  0.10315716  0.64321103  1  0.019559  0  -0.007866  0.01186  0  3.994573  0
C  C127  1  0.17442187  0.14124050  0.61717884  1  -0.051605  0  -0.087953  -0.11129  0  4.012331  0
C  C128  1  0.23214948  0.13714013  0.59350341  1  -0.047125  0  -0.091058  -0.133917  0  4.010325  0
C  C129  1  0.29681184  0.09277868  0.59341844  1  -0.029988  0  -0.005728  0.087432  0  4.006219  0
C  C130  1  0.30571941  0.05494864  0.62000605  1  0.024627  0  -0.007143  0.07343  0  4.001486  0
C  C131  1  0.24876664  0.06236401  0.64526429  1  -0.055009  0  -0.076508  -0.147702  0  3.916654  0
C  C132  1  0.36668994  0.00865149  0.61851226  1  -0.026491  0  -0.088639  -0.12679  0  4.001709  0
C  C133  1  0.41358758  0.99901477  0.59165355  1  -0.071191  0  -0.093353  -0.138313  0  4.016643  0
C  C134  1  0.40445274  0.03605256  0.56508023  1  -0.011785  0  -0.00665  0.080123  0  4.017447  0
C  C135  1  0.34793206  0.08258666  0.56668612  1  -0.013367  0  -0.087992  -0.185992  0  3.949091  0
C  C136  1  0.04916229  0.94371640  0.36790204  1  -0.00891  0  -0.008184  0.009625  0  3.993764  0
C  C137  1  0.03741472  0.98837437  0.39246768  1  -0.05715  0  -0.088369  -0.111455  0  4.009719  0
C  C138  1  0.10724669  0.00516962  0.41662048  1  -0.029205  0  -0.092213  -0.134443  0  4.01841  0
C  C139  1  0.19094202  0.97618761  0.41870087  1  -0.022044  0  -0.007597  0.085629  0  4.023363  0
C  C140  1  0.20265000  0.92994448  0.39468943  1  0.003683  0  -0.007205  0.073339  0  4.002991  0
C  C141  1  0.13105461  0.91574025  0.36872811  1  -0.028358  0  -0.077288  -0.150682  0  3.924378  0
C  C142  1  0.28552938  0.89974534  0.39872212  1  -0.030211  0  -0.090086  -0.129467  0  3.998897  0
C  C143  1  0.35288688  0.91446693  0.42458998  1  -0.055332  0  -0.092083  -0.129484  0  3.999577  0
C  C144  1  0.34278696  0.96154295  0.44788898  1  -0.040292  0  -0.008918  0.074828  0  4.015984  0
C  C145  1  0.26221021  0.99136244  0.44423957  1  -0.001295  0  -0.089723  -0.18438  0  3.954109  0
C  C146  1  0.73085361  0.93555687  0.34792580  1  0.014613  0  -0.010085  0.005913  0  3.993811  0
C  C147  1  0.65449189  0.96848142  0.33662675  1  -0.026778  0  -0.086815  -0.109277  0  3.993792  0
C  C148  1  0.58897251  0.98032811  0.35709816  1  -0.064528  0  -0.091538  -0.140962  0  3.995103  0
C  C149  1  0.59519005  0.95913166  0.38938291  1  -0.033407  0  -0.004833  0.084953  0  3.998695  0
C  C150  1  0.66734906  0.92069348  0.39893624  1  -0.000699  0  -0.01043  0.075367  0  4.019183  0
C  C151  1  0.73403112  0.91042847  0.37795928  1  -0.017913  0  -0.077268  -0.144873  0  3.948073  0
C  C152  1  0.67594379  0.89844303  0.43079096  1  -0.032487  0  -0.088991  -0.124884  0  4.016556  0
C  C153  1  0.61998418  0.91702188  0.45336670  1  -0.064288  0  -0.095158  -0.142177  0  4.022206  0
C  C154  1  0.55173209  0.95808512  0.44517741  1  -0.053929  0  -0.006866  0.07824  0  4.015425  0
C  C155  1  0.53795231  0.97708441  0.41329753  1  -0.044465  0  -0.086309  -0.185528  0  3.935683  0
C  C156  1  0.22739590  0.77687020  0.00658247  1  -0.081195  0  -0.025337  -0.054364  0  4.011054  0
C  C157  1  0.20695333  0.74007958  0.03106074  1  -0.053696  0  -0.084906  -0.091049  0  3.988568  0
C  C158  1  0.24967061  0.68844443  0.03433994  1  -0.01236  0  -0.090757  -0.138086  0  4.005123  0
C  C159  1  0.31582558  0.67096623  0.01372644  1  -0.037093  0  -0.00469  0.088435  0  4.008178  0
C  C160  1  0.33669620  0.70808561  0.98899927  1  0.009463  0  -0.009468  0.071104  0  4.005333  0
C  C161  1  0.29086033  0.76061969  0.98591095  1  -0.014831  0  -0.083595  -0.141709  0  3.962499  0
C  C162  1  0.40391890  0.69103214  0.96879557  1  -0.018188  0  -0.088886  -0.124309  0  4.000832  0
C  C163  1  0.45009578  0.64091603  0.97343326  1  -0.032437  0  -0.091245  -0.129357  0  4.001355  0
C  C164  1  0.43112032  0.60419924  0.99826089  1  -0.068295  0  -0.005459  0.080506  0  4.025353  0
C  C165  1  0.36359801  0.61912008  0.01744859  1  0.011197  0  -0.090107  -0.191938  0  3.945902  0
C  C166  1  0.84499641  0.22536384  0.01146682  1  -0.090979  0  -0.017136  -0.029476  0  4.002579  0
C  C167  1  0.85901903  0.25793989  0.04249535  1  -0.033202  0  -0.087025  -0.100758  0  3.998169  0
C  C168  1  0.81607716  0.30938702  0.04642890  1  -0.022226  0  -0.092226  -0.138254  0  4.008514  0
C  C169  1  0.75254234  0.32886015  0.02045229  1  -0.053475  0  -0.007227  0.084372  0  4.01188  0
C  C170  1  0.73493887  0.29437064  0.98966296  1  -0.009929  0  -0.008276  0.075806  0  4.011572  0
C  C171  1  0.78516059  0.24382145  0.98548461  1  -0.019677  0  -0.085218  -0.155277  0  3.961958  0
C  C172  1  0.66634225  0.31153874  0.96473570  1  -0.064795  0  -0.08968  -0.125578  0  4.006412  0
C  C173  1  0.61698090  0.36003216  0.96997602  1  -0.04351  0  -0.092518  -0.133773  0  4.009389  0
C  C174  1  0.63585572  0.39546242  0.99996033  1  -0.012229  0  -0.00992  0.074131  0  4.036878  0
C  C175  1  0.70363683  0.38008368  0.02434828  1  0.054582  0  -0.090917  -0.192771  0  3.958153  0
C  C176  1  0.43953581  0.39233515  0.00562050  1  -0.01856  0  -0.005975  0.080686  0  4.020281  0
C  C177  1  0.47315471  0.35561370  0.03094001  1  0.017662  0  -0.091263  -0.128409  0  3.999301  0
C  C178  1  0.42947997  0.30532615  0.03464172  1  -0.077406  0  -0.088521  -0.124424  0  4.002704  0
C  C179  1  0.34955009  0.28833394  0.01320835  1  0.007562  0  -0.008432  0.071873  0  4.009965  0
C  C180  1  0.31445812  0.32509494  0.98773235  1  -0.01305  0  -0.004261  0.089265  0  4.004471  0
C  C181  1  0.36089148  0.37681869  0.98472704  1  -0.017461  0  -0.090966  -0.191977  0  3.94371  0
C  C182  1  0.23435607  0.30803052  0.96631846  1  -0.066979  0  -0.091559  -0.139363  0  4.00159  0
C  C183  1  0.19102318  0.25740790  0.96976591  1  -0.042378  0  -0.085447  -0.092011  0  3.991315  0
C  C184  1  0.22567508  0.22108086  0.99499071  1  -0.030854  0  -0.025  -0.054455  0  4.010188  0
C  C185  1  0.30353735  0.23667256  0.01624670  1  -0.029714  0  -0.08055  -0.138194  0  3.950519  0
C  C186  1  0.63106300  0.60774205  0.01213934  1  -0.064039  0  -0.010673  0.071436  0  4.03808  0
C  C187  1  0.61261449  0.64799196  0.03816386  1  -0.019224  0  -0.091418  -0.127348  0  4.004663  0
C  C188  1  0.65997795  0.69872662  0.04453881  1  -0.030928  0  -0.089633  -0.130058  0  4.006131  0
C  C189  1  0.72747073  0.71296787  0.02487908  1  -0.020593  0  -0.006011  0.081749  0  4.00843  0
C  C190  1  0.74645583  0.67276338  0.99851157  1  0.023231  0  -0.0095  0.079246  0  4.015517  0
C  C191  1  0.69799731  0.62029146  0.99313493  1  -0.030309  0  -0.092227  -0.192051  0  3.956891  0
C  C192  1  0.81184425  0.68748516  0.97807989  1  -0.0501  0  -0.090774  -0.131033  0  4.014094  0
C  C193  1  0.85509441  0.73979799  0.98302535  1  -0.06656  0  -0.093619  -0.117476  0  4.025932  0
C  C194  1  0.83676865  0.77937165  0.00924619  1  -0.026682  0  -0.01467  -0.017948  0  3.997718  0
C  C195  1  0.77508209  0.76581723  0.03000476  1  -0.020858  0  -0.086019  -0.162203  0  3.953375  0
C  C196  1  0.12888979  0.04199054  0.87034943  1  -0.080486  0  -0.020473  -0.044479  0  4.002485  0
C  C197  1  0.18656973  0.00715364  0.85260759  1  -0.027612  0  -0.093277  -0.109179  0  4.026437  0
C  C198  1  0.18913308  0.01310015  0.81921484  1  -0.054487  0  -0.090579  -0.134453  0  4.000258  0
C  C199  1  0.13233414  0.05280167  0.80163814  1  -0.076992  0  -0.00252  0.082376  0  3.993021  0
C  C200  1  0.07330181  0.08749376  0.81963784  1  0.024549  0  -0.003905  0.077762  0  4.001981  0
C  C201  1  0.07431600  0.08185683  0.85407076  1  0.00869  0  -0.07064  -0.124963  0  3.913213  0
C  C202  1  0.01323751  0.12547657  0.80220148  1  -0.04966  0  -0.085608  -0.125112  0  4.001115  0
C  C203  1  0.00878028  0.12752586  0.76833662  1  -0.036677  0  -0.087586  -0.114617  0  4.007481  0
C  C204  1  0.06745415  0.09363298  0.75038236  1  -0.02446  0  -0.00505  0.017535  0  3.990709  0
C  C205  1  0.12964587  0.05810664  0.76694123  1  -0.045035  0  -0.078078  -0.153517  0  3.919679  0
C  C206  1  0.90643775  0.91343891  0.25400262  1  0.035333  0  -0.006957  0.01235  0  3.993814  0
C  C207  1  0.98057103  0.88328300  0.24287391  1  -0.074402  0  -0.087131  -0.109671  0  4.003092  0
C  C208  1  0.99312266  0.88143195  0.20991110  1  0.006269  0  -0.088571  -0.130249  0  4.002614  0
C  C209  1  0.93528956  0.91195688  0.18671253  1  -0.04184  0  -0.00473  0.07897  0  4.004275  0
C  C210  1  0.86029134  0.94250602  0.19785006  1  -0.030555  0  -0.00419  0.08228  0  3.994684  0
C  C211  1  0.84605774  0.94094925  0.23154011  1  -0.084281  0  -0.075602  -0.146624  0  3.917799  0
C  C212  1  0.80560657  0.97565738  0.17505639  1  0.004448  0  -0.087746  -0.131605  0  3.994224  0
C  C213  1  0.82634619  0.98075274  0.14335102  1  -0.098007  0  -0.088273  -0.102875  0  4.00194  0
C  C214  1  0.90049430  0.95052374  0.13235441  1  -0.032869  0  -0.020798  -0.040598  0  4.001093  0
C  C215  1  0.95191577  0.91553453  0.15343644  1  -0.004904  0  -0.08029  -0.143425  0  3.944132  0
N  N216  1  0.81594952  0.92873617  0.29931261  1  -1.186218  0  -0.316095  -0.421976  0  3.164801  0
N  N217  1  0.88992673  0.93526168  0.35496200  1  -1.201772  0  -0.315343  -0.420581  0  3.251211  0
N  N218  1  0.97691061  0.91713449  0.31077403  1  -1.161684  0  -0.313044  -0.417843  0  3.169846  0
N  N219  1  0.12715620  0.09099966  0.69691713  1  -1.16072  0  -0.317959  -0.425834  0  3.153629  0
N  N220  1  0.02643737  0.11456992  0.64903675  1  -1.183331  0  -0.311771  -0.415435  0  3.214686  0
N  N221  1  0.96936060  0.10244157  0.69975596  1  -1.197815  0  -0.312608  -0.417608  0  3.215362  0
O  O222  1  0.15158694  0.91148951  0.08112489  1  -1.248114  0  -0.646699  -0.896392  0  1.947277  0
O  O223  1  0.95191848  0.84646180  0.03259960  1  -1.176538  0  -0.337407  -0.569086  0  2.296243  0
O  O224  1  0.97376805  0.92155246  0.08560558  1  -1.192136  0  -0.338148  -0.593313  0  2.333694  0
O  O225  1  0.19468403  0.86486320  0.98084073  1  -1.209964  0  -0.345227  -0.641041  0  2.321057  0
O  O226  1  0.90560432  0.00814790  0.08736817  1  -1.187205  0  -0.339649  -0.592544  0  2.335383  0
O  O227  1  0.12719332  0.84479873  0.02547808  1  -1.179762  0  -0.331648  -0.559255  0  2.374403  0
O  O228  1  0.84608030  0.87094073  0.99051054  1  -1.193685  0  -0.327762  -0.607535  0  2.340276  0
O  O229  1  0.94113664  0.96689960  0.02136499  1  -1.228436  0  -0.75392  -1.080309  0  2.161248  0
O  O230  1  0.01734835  0.89935740  0.98005855  1  -1.251137  0  -0.640611  -0.972301  0  2.282473  0
O  O231  1  0.06599354  0.01028844  0.06488384  1  -1.225459  0  -0.652457  -0.961322  0  2.317936  0
O  O232  1  0.13605375  0.96460315  0.01780370  1  -1.211601  0  -0.756836  -1.050472  0  2.151014  0
O  O233  1  0.27535565  0.96425607  0.97467449  1  -1.256977  0  -0.629332  -0.865891  0  1.997274  0
O  O234  1  0.75732872  0.96807612  0.98675809  1  -1.27273  0  -0.59908  -0.793516  0  2.051542  0
O  O235  1  0.00767907  0.99411543  0.95710346  1  -1.220241  0  -0.743521  -1.04582  0  2.095658  0
O  O236  1  0.88807697  0.04665727  0.98501146  1  -1.256204  0  -0.653835  -0.963716  0  2.324847  0
O  O237  1  0.03839833  0.07523363  0.01787911  1  -1.220514  0  -0.755928  -1.073315  0  2.170602  0
O  O238  1  0.15501915  0.04358115  0.98082021  1  -1.237464  0  -0.663064  -0.97621  0  2.372782  0
O  O239  1  0.78918558  0.03876488  0.03626618  1  -1.235746  0  -0.641934  -0.893791  0  1.950787  0
O  O240  1  0.88415430  0.13600677  0.03117242  1  -1.179264  0  -0.343007  -0.592643  0  2.334353  0
O  O241  1  0.93150740  0.15845904  0.98260104  1  -1.185824  0  -0.333855  -0.594626  0  2.307377  0
O  O242  1  0.24650207  0.00032842  0.07747138  1  -1.267156  0  -0.601234  -0.791446  0  2.057012  0
O  O243  1  0.10857376  0.15401957  0.97705658  1  -1.182142  0  -0.335924  -0.564999  0  2.331537  0
O  O244  1  0.99160348  0.11008611  0.08489509  1  -1.233978  0  -0.590924  -0.78308  0  2.057763  0
O  O245  1  0.15778677  0.10777005  0.07856770  1  -1.242965  0  -0.645995  -0.89749  0  1.940961  0
O  O246  1  0.30632313  0.03136565  0.02385329  1  -1.24446  0  -0.59663  -0.838233  0  2.02983  0
O  O247  1  0.21107362  0.13458968  0.02136893  1  -1.194083  0  -0.347554  -0.626722  0  2.323741  0
O  O248  1  0.91535621  0.09349788  0.92563461  1  -1.215524  0  -0.64907  -0.89934  0  1.932447  0
O  O249  1  0.11754574  0.88430858  0.92276905  1  -1.234205  0  -0.567813  -0.74087  0  2.065687  0
O  O250  1  0.08831276  0.07655958  0.92212628  1  -1.178906  0  -0.328787  -0.562224  0  2.32862  0
O  O251  1  0.14820838  0.98789111  0.91823509  1  -1.211136  0  -0.34385  -0.620254  0  2.316749  0
O  O252  1  0.86056096  0.89806321  0.92909236  1  -1.224397  0  -0.693029  -0.952328  0  1.850381  0
O  O253  1  0.82294035  0.00157174  0.92659492  1  -1.25644  0  -0.600746  -0.788824  0  2.081614  0
