# generated using pymatgen
data_CdH10C11(N2Cl)2
_symmetry_space_group_name_H-M   'P 1'
_cell_length_a   8.71771121
_cell_length_b   9.43493158
_cell_length_c   11.06495364
_cell_angle_alpha   74.65825758
_cell_angle_beta   86.65208740
_cell_angle_gamma   70.84859900
_symmetry_Int_Tables_number   1
_chemical_formula_structural   CdH10C11(N2Cl)2
_chemical_formula_sum   'Cd2 H20 C22 N8 Cl4'
_cell_volume   828.69424571
_cell_formula_units_Z   2
loop_
 _symmetry_equiv_pos_site_id
 _symmetry_equiv_pos_as_xyz
  1  'x, y, z'
loop_
 _atom_site_type_symbol
 _atom_site_label
 _atom_site_symmetry_multiplicity
 _atom_site_fract_x
 _atom_site_fract_y
 _atom_site_fract_z
 _atom_site_occupancy
 _atom_site_pbe_bader_charge
 _atom_site_pbe_bader_spin_density
 _atom_site_pbe_cm5_charge
 _atom_site_pbe_ddec_charge
 _atom_site_pbe_ddec_spin_density
 _atom_site_pbe_ddec_sum_bond_order
 _atom_site_pbe_magmom
Cd  Cd0  1  0.36501504  0.99889447  0.36514799  1  1.127754  0  0.621404  0.775472  0  2.453283  0
Cd  Cd1  1  0.63499175  0.00109631  0.63485316  1  1.127681  0  0.621403  0.775476  0  2.453286  0
H  H2  1  0.72321480  0.56722833  0.49296629  1  0.485615  0  0.304478  0.294988  0  0.952261  0
H  H3  1  0.27679241  0.43275781  0.50703770  1  0.485584  0  0.304444  0.29503  0  0.952372  0
H  H4  1  0.01532288  0.25432352  0.45385079  1  0.14555  0  0.12188  0.097832  0  1.025094  0
H  H5  1  0.98468549  0.74565914  0.54616116  1  0.144989  0  0.121837  0.097762  0  1.025116  0
H  H6  1  0.04572955  0.95391541  0.22462957  1  0.118671  0  0.119093  0.118472  0  1.004789  0
H  H7  1  0.95427793  0.04608698  0.77536171  1  0.117991  0  0.11911  0.118498  0  1.004801  0
H  H8  1  0.71944617  0.12286546  0.24138609  1  0.189396  0  0.108539  0.123421  0  1.06448  0
H  H9  1  0.28056475  0.87713693  0.75860864  1  0.189412  0  0.108532  0.123494  0  1.064487  0
H  H10  1  0.66607929  0.45381718  0.31809091  1  0.080436  0  0.125854  0.127019  0  0.939795  0
H  H11  1  0.33392440  0.54617593  0.68191528  1  0.080496  0  0.125864  0.126978  0  0.939945  0
H  H12  1  0.57550904  0.30531066  0.36746159  1  0.136593  0  0.122281  0.123889  0  0.99732  0
H  H13  1  0.42450198  0.69467433  0.63255243  1  0.136623  0  0.122299  0.123899  0  0.997356  0
H  H14  1  0.60527429  0.13326703  0.87777010  1  0.131373  0  0.094642  0.1215  0  1.042046  0
H  H15  1  0.39472198  0.86674120  0.12223572  1  0.131308  0  0.094629  0.121453  0  1.042114  0
H  H16  1  0.63404095  0.27784152  0.02807305  1  0.118746  0  0.08941  0.102377  0  1.043824  0
H  H17  1  0.36592571  0.72218299  0.97192137  1  0.118605  0  0.089456  0.102434  0  1.043814  0
H  H18  1  0.70859150  0.51950820  0.95664084  1  0.083994  0  0.099775  0.106608  0  0.995416  0
H  H19  1  0.29137171  0.48051632  0.04335374  1  0.08325  0  0.09979  0.106653  0  0.99533  0
H  H20  1  0.75376870  0.62571529  0.73264828  1  0.107088  0  0.090861  0.106766  0  1.055992  0
H  H21  1  0.24621834  0.37429991  0.26734824  1  0.107128  0  0.090925  0.106837  0  1.055998  0
C  C22  1  0.98139904  0.19665558  0.39211999  1  0.952499  0  0.129166  0.08248  0  3.933292  0
C  C23  1  0.01861472  0.80332475  0.60789134  1  0.953725  0  0.12924  0.082616  0  3.933157  0
C  C24  1  0.99105725  0.04240919  0.27414988  1  0.428475  0  -0.004974  -0.028578  0  3.988193  0
C  C25  1  0.00894831  0.95759205  0.72584626  1  0.429089  0  -0.004995  -0.028562  0  3.988209  0
C  C26  1  0.82998675  0.12555649  0.28024017  1  0.26795  0  0.002548  -0.092514  0  3.891422  0
C  C27  1  0.17002256  0.87445404  0.71975461  1  0.267892  0  0.002513  -0.092678  0  3.891446  0
C  C28  1  0.68003630  0.33949384  0.38329049  1  0.301608  0  -0.036005  -0.161094  0  3.890917  0
C  C29  1  0.31997701  0.66049462  0.61671542  1  0.301349  0  -0.036071  -0.16102  0  3.891022  0
C  C30  1  0.68247652  0.34890088  0.51571580  1  1.031693  0  0.22296  0.325976  0  3.995528  0
C  C31  1  0.31752760  0.65108759  0.48429051  1  1.03207  0  0.222873  0.325909  0  3.995691  0
C  C32  1  0.66667236  0.29783827  0.71962155  1  0.362559  0  0.077431  0.129723  0  4.067761  0
C  C33  1  0.33333439  0.70215600  0.28038334  1  0.362686  0  0.077455  0.129687  0  4.067595  0
C  C34  1  0.64040272  0.23788011  0.84625550  1  -0.075483  0  -0.095761  -0.161099  0  3.963611  0
C  C35  1  0.35959511  0.76212696  0.15374328  1  -0.075202  0  -0.095844  -0.161138  0  3.963424  0
C  C36  1  0.65717092  0.32010423  0.92944983  1  -0.070358  0  -0.097809  -0.083894  0  4.001955  0
C  C37  1  0.34280807  0.67991098  0.07054615  1  -0.070726  0  -0.0978  -0.083972  0  4.002141  0
C  C38  1  0.69923072  0.45701844  0.88892765  1  -0.05551  0  -0.091865  -0.069203  0  4.003284  0
C  C39  1  0.30074478  0.54300374  0.11106239  1  -0.054698  0  -0.091926  -0.069193  0  4.003258  0
C  C40  1  0.72568534  0.51781138  0.76340594  1  0.024367  0  -0.104993  -0.183175  0  4.023262  0
C  C41  1  0.27428289  0.48220849  0.23659037  1  0.024517  0  -0.105011  -0.183244  0  4.023021  0
C  C42  1  0.70764739  0.43615401  0.67975873  1  0.324843  0  0.084994  0.136896  0  4.044774  0
C  C43  1  0.29235553  0.56384143  0.32024155  1  0.324873  0  0.084966  0.136951  0  4.044673  0
N  N44  1  0.08370091  0.08743274  0.34443533  1  -1.224533  0  -0.3616  -0.293076  0  3.556867  0
N  N45  1  0.91631009  0.91255921  0.65556447  1  -1.224708  0  -0.361527  -0.293054  0  3.556812  0
N  N46  1  0.82623368  0.22298243  0.35514623  1  -1.223666  0  -0.241642  0.052296  0  3.76136  0
N  N47  1  0.17377960  0.77700952  0.64486251  1  -1.223907  0  -0.241638  0.052278  0  3.761187  0
N  N48  1  0.65395717  0.24625498  0.61491558  1  -1.206465  0  -0.355349  -0.390679  0  3.432193  0
N  N49  1  0.34605308  0.75373232  0.38509253  1  -1.206923  0  -0.355279  -0.390602  0  3.432224  0
N  N50  1  0.71686440  0.46443325  0.55028602  1  -1.253406  0  -0.380644  -0.319875  0  3.58351  0
N  N51  1  0.28314012  0.53555406  0.44971873  1  -1.253281  0  -0.380552  -0.319944  0  3.583338  0
Cl  Cl52  1  0.33691254  0.16545010  0.52493096  1  -0.65767  0  -0.302226  -0.520603  0  1.276898  0
Cl  Cl53  1  0.66310030  0.83454998  0.47506783  1  -0.657721  0  -0.302221  -0.520588  0  1.276904  0
Cl  Cl54  1  0.45069952  0.11881504  0.16056660  1  -0.652107  0  -0.342457  -0.521937  0  1.107961  0
Cl  Cl55  1  0.54930990  0.88118155  0.83943312  1  -0.652114  0  -0.342465  -0.521944  0  1.107997  0
