# generated using pymatgen
data_Cu3H16C12SN8O11
_symmetry_space_group_name_H-M   'P 1'
_cell_length_a   13.69361853
_cell_length_b   13.69362046
_cell_length_c   14.24750009
_cell_angle_alpha   66.13871858
_cell_angle_beta   66.13873331
_cell_angle_gamma   66.64954582
_symmetry_Int_Tables_number   1
_chemical_formula_structural   Cu3H16C12SN8O11
_chemical_formula_sum   'Cu12 H64 C48 S4 N32 O44'
_cell_volume   2146.20147854
_cell_formula_units_Z   4
loop_
 _symmetry_equiv_pos_site_id
 _symmetry_equiv_pos_as_xyz
  1  'x, y, z'
loop_
 _atom_site_type_symbol
 _atom_site_label
 _atom_site_symmetry_multiplicity
 _atom_site_fract_x
 _atom_site_fract_y
 _atom_site_fract_z
 _atom_site_occupancy
 _atom_site_pbe_bader_charge
 _atom_site_pbe_bader_spin_density
 _atom_site_pbe_cm5_charge
 _atom_site_pbe_ddec_charge
 _atom_site_pbe_ddec_spin_density
 _atom_site_pbe_ddec_sum_bond_order
 _atom_site_pbe_magmom
Cu  Cu0  1  0.96344978  0.43004495  0.45582235  1  1.10663  0.502305  0.716062  0.924266  0.623004  2.262374  0.501
Cu  Cu1  1  0.56995417  0.03655315  0.04417676  1  1.106638  0.502294  0.716103  0.924359  0.62299  2.262361  0.501
Cu  Cu2  1  0.03655084  0.56995285  0.54417595  1  1.106642  0.502295  0.716071  0.924303  0.622992  2.262371  0.501
Cu  Cu3  1  0.43004733  0.96344602  0.95582275  1  1.106649  0.502297  0.716071  0.924314  0.622995  2.262316  0.501
Cu  Cu4  1  0.75625133  0.64689942  0.46506145  1  1.080711  0.490189  0.703943  0.891338  0.610626  2.213757  0.491
Cu  Cu5  1  0.35310049  0.24374457  0.03494009  1  1.080742  0.490182  0.704  0.89144  0.610624  2.213706  0.491
Cu  Cu6  1  0.24374687  0.35310152  0.53493867  1  1.080766  0.490183  0.703982  0.891413  0.610625  2.213712  0.491
Cu  Cu7  1  0.64689763  0.75625317  0.96505923  1  1.08077  0.490188  0.70399  0.891371  0.610629  2.213684  0.491
Cu  Cu8  1  0.15463734  0.33593499  0.24295329  1  1.086799  -0.393697  0.724413  0.839379  -0.487828  2.361803  -0.393
Cu  Cu9  1  0.66406612  0.84536539  0.25704430  1  1.086903  -0.393687  0.724423  0.839423  -0.487815  2.361786  -0.393
Cu  Cu10  1  0.84536592  0.66406769  0.75704622  1  1.086847  -0.393689  0.7244  0.839403  -0.487819  2.36176  -0.393
Cu  Cu11  1  0.33593369  0.15463424  0.74295359  1  1.086883  -0.393688  0.724424  0.839393  -0.487817  2.361793  -0.393
H  H12  1  0.95081483  0.62473293  0.37441596  1  0.608875  -0.00066  0.281857  0.365965  0.000361  0.989595  0.0
H  H13  1  0.37526681  0.04918376  0.12558741  1  0.60883  -0.00066  0.281832  0.365867  0.000362  0.989736  0.0
H  H14  1  0.04918420  0.37526699  0.62558634  1  0.608843  -0.00066  0.281859  0.365872  0.000362  0.989724  0.0
H  H15  1  0.62473474  0.95081623  0.87441386  1  0.608838  -0.00066  0.281853  0.365898  0.000362  0.989683  0.0
H  H16  1  0.05496146  0.52967335  0.27219385  1  0.61268  -0.000115  0.269786  0.353762  0.000104  1.002625  -0.001
H  H17  1  0.47032858  0.94503855  0.22780656  1  0.612698  -0.000115  0.269775  0.353756  0.000104  1.002632  -0.001
H  H18  1  0.94503761  0.47032973  0.72780577  1  0.612712  -0.000115  0.269778  0.353753  0.000104  1.002636  -0.001
H  H19  1  0.52967129  0.05496270  0.77219347  1  0.612696  -0.000115  0.269768  0.353736  0.000104  1.002649  -0.001
H  H20  1  0.85504815  0.74176008  0.28640292  1  0.628394  -0.000252  0.272146  0.358949  0.000106  0.989656  0.0
H  H21  1  0.25824136  0.14495084  0.21360029  1  0.628261  -0.00025  0.272134  0.35894  0.000106  0.989672  0.0
H  H22  1  0.14495093  0.25824222  0.71359841  1  0.628382  -0.000252  0.272154  0.358964  0.000106  0.989647  0.0
H  H23  1  0.74175771  0.85505067  0.78640136  1  0.628371  -0.000252  0.272152  0.358976  0.000106  0.989623  0.0
H  H24  1  0.30493045  0.35117745  0.32133511  1  0.607498  -5.3e-05  0.278458  0.3632  -6.2e-05  0.989284  0.0
H  H25  1  0.64882466  0.69506980  0.17866449  1  0.607544  -5.3e-05  0.278473  0.363214  -6.2e-05  0.989263  0.0
H  H26  1  0.69506940  0.64882144  0.67866728  1  0.607504  -5.3e-05  0.278481  0.363239  -6.2e-05  0.989216  0.0
H  H27  1  0.35117603  0.30493040  0.82133493  1  0.607526  -5.3e-05  0.278466  0.363235  -6.2e-05  0.989235  0.0
H  H28  1  0.37502364  0.26618673  0.25234217  1  0.627023  1.3e-05  0.278028  0.385995  2.8e-05  0.952558  0.0
H  H29  1  0.73381505  0.62497642  0.24765766  1  0.627022  1.3e-05  0.278037  0.385981  2.8e-05  0.952579  0.0
H  H30  1  0.62497705  0.73381269  0.74765896  1  0.627016  1.2e-05  0.278002  0.385959  2.8e-05  0.952618  0.0
H  H31  1  0.26618568  0.37502617  0.75234078  1  0.626996  1.2e-05  0.278027  0.385989  2.8e-05  0.95258  0.0
H  H32  1  0.28455866  0.76908026  0.65121658  1  0.458572  -8.3e-05  0.298593  0.264652  -4.2e-05  1.00721  0.0
H  H33  1  0.23091880  0.71544064  0.84878371  1  0.458451  -8.3e-05  0.298579  0.264637  -4.2e-05  1.007237  0.0
H  H34  1  0.71544199  0.23091678  0.34878553  1  0.458522  -8.3e-05  0.298597  0.264667  -4.2e-05  1.007215  0.0
H  H35  1  0.76908022  0.28456004  0.15121548  1  0.45836  -8.3e-05  0.298598  0.264683  -4.2e-05  1.007198  0.0
H  H36  1  0.32108973  0.84960018  0.68561294  1  0.476748  -6.7e-05  0.296047  0.282339  -1.6e-05  0.997328  0.0
H  H37  1  0.15039944  0.67891021  0.81438405  1  0.476671  -6.8e-05  0.296069  0.282355  -1.6e-05  0.997285  0.0
H  H38  1  0.67890926  0.15039892  0.31438690  1  0.476728  -6.8e-05  0.296075  0.282327  -1.6e-05  0.997306  0.0
H  H39  1  0.84959957  0.32109125  0.18561343  1  0.476726  -6.8e-05  0.296027  0.28232  -1.6e-05  0.997361  0.0
H  H40  1  0.99711403  0.97932312  0.64347366  1  0.48361  -5.9e-05  0.306516  0.295323  -3.1e-05  0.982093  0.0
H  H41  1  0.02067582  0.00288653  0.85652695  1  0.483577  -5.9e-05  0.306504  0.295313  -3.1e-05  0.982141  0.0
H  H42  1  0.00288832  0.02067659  0.35652529  1  0.483585  -5.9e-05  0.306504  0.295359  -3.1e-05  0.98214  0.0
H  H43  1  0.97932154  0.99711465  0.14347271  1  0.483576  -5.9e-05  0.306474  0.295272  -3.1e-05  0.982186  0.0
H  H44  1  0.13854626  0.94578520  0.60789115  1  0.425496  1e-05  0.295512  0.262743  3.3e-05  1.001713  0.0
H  H45  1  0.05421472  0.86145256  0.89210824  1  0.425475  9e-06  0.295551  0.262803  3.3e-05  1.001593  0.0
H  H46  1  0.86145443  0.05421501  0.39210827  1  0.425462  9e-06  0.295551  0.26282  3.3e-05  1.001612  0.0
H  H47  1  0.94578429  0.13854734  0.10789197  1  0.425429  1e-05  0.295526  0.262757  3.3e-05  1.001643  0.0
H  H48  1  0.39857669  0.93211332  0.40131641  1  0.218939  0.000313  0.154647  0.141177  0.000265  0.987404  0.0
H  H49  1  0.06788793  0.60142396  0.09868190  1  0.218967  0.000313  0.15467  0.141226  0.000265  0.987339  0.0
H  H50  1  0.60142309  0.06788471  0.59868143  1  0.218921  0.000313  0.154655  0.141166  0.000265  0.987433  0.0
H  H51  1  0.93211109  0.39857674  0.90131799  1  0.218948  0.000313  0.154664  0.141213  0.000265  0.987387  0.0
H  H52  1  0.51011667  0.66810562  0.65463948  1  0.236087  -0.000172  0.153232  0.147727  -0.000119  1.009014  0.0
H  H53  1  0.33189662  0.48988081  0.84536101  1  0.236038  -0.000172  0.153235  0.14776  -0.000119  1.008981  0.0
H  H54  1  0.48988158  0.33189616  0.34536380  1  0.236072  -0.000172  0.153235  0.147764  -0.000119  1.008974  0.0
H  H55  1  0.66810489  0.51011914  0.15463748  1  0.236076  -0.000172  0.153235  0.14774  -0.000119  1.008923  0.0
H  H56  1  0.16743415  0.06857944  0.36479015  1  0.229549  0.000438  0.145184  0.121732  0.000379  1.070854  0.0
H  H57  1  0.93142057  0.83256620  0.13520957  1  0.229649  0.000439  0.145195  0.121729  0.000379  1.070853  0.0
H  H58  1  0.83256991  0.93142139  0.63520907  1  0.229472  0.000438  0.145191  0.121745  0.000379  1.070804  0.0
H  H59  1  0.06858008  0.16743162  0.86479082  1  0.229521  0.000439  0.145207  0.121731  0.000379  1.070846  0.0
H  H60  1  0.95387506  0.18450373  0.63356657  1  0.264169  -9.3e-05  0.146683  0.140452  -0.000103  1.03937  0.0
H  H61  1  0.81549700  0.04612137  0.86643227  1  0.264154  -9.3e-05  0.146694  0.140453  -0.000103  1.039424  0.0
H  H62  1  0.04612058  0.81549711  0.36643110  1  0.264148  -9.2e-05  0.146687  0.140434  -0.000102  1.039384  0.0
H  H63  1  0.18450285  0.95387828  0.13356770  1  0.264122  -9.3e-05  0.146692  0.140467  -0.000103  1.039435  0.0
H  H64  1  0.81473936  0.19009768  0.98844314  1  0.11704  0.000131  0.10166  0.104663  5.8e-05  1.054625  0.0
H  H65  1  0.80989939  0.18526569  0.51155510  1  0.117024  0.000131  0.101627  0.104614  5.8e-05  1.054588  0.0
H  H66  1  0.18526297  0.80990202  0.01155441  1  0.116998  0.000131  0.101631  0.104604  5.8e-05  1.054674  0.0
H  H67  1  0.19009553  0.81473863  0.48844638  1  0.116998  0.00013  0.101628  0.104608  5.8e-05  1.054606  0.0
H  H68  1  0.49552887  0.42774978  0.98014242  1  0.090766  7e-05  0.104945  0.107462  3.1e-05  1.021387  0.0
H  H69  1  0.57224225  0.50447660  0.51986250  1  0.090825  7e-05  0.105008  0.107477  3.1e-05  1.021488  0.0
H  H70  1  0.50447248  0.57224063  0.01985995  1  0.0909  7e-05  0.104963  0.107457  3.1e-05  1.021456  0.0
H  H71  1  0.42775354  0.49552829  0.48014051  1  0.090726  7e-05  0.104959  0.10745  3.1e-05  1.021435  0.0
H  H72  1  0.57182608  0.51239322  0.78660828  1  0.135962  0.000165  0.105629  0.118163  0.000126  1.03466  0.0
H  H73  1  0.48760350  0.42817599  0.71339753  1  0.136158  0.000164  0.105647  0.118147  0.000126  1.034629  0.0
H  H74  1  0.42817362  0.48759849  0.21339493  1  0.135863  0.000165  0.10564  0.118212  0.000126  1.03459  0.0
H  H75  1  0.51239893  0.57182459  0.28660735  1  0.135873  0.000165  0.105644  0.118191  0.000126  1.034652  0.0
C  C76  1  0.45265115  0.86232015  0.44506890  1  1.002426  0.002683  0.179445  0.076977  0.001696  3.83376  0.001
C  C77  1  0.13768310  0.54734797  0.05492994  1  1.002439  0.002683  0.179418  0.076894  0.001695  3.833792  0.001
C  C78  1  0.54734704  0.13768001  0.55493294  1  1.002462  0.002683  0.179415  0.076972  0.001696  3.833868  0.001
C  C79  1  0.86232005  0.45265147  0.94506669  1  1.002348  0.002683  0.179411  0.076921  0.001696  3.833817  0.001
C  C80  1  0.51063465  0.72442503  0.57486399  1  0.997853  -0.000637  0.179088  0.082527  -0.000124  3.818618  0.0
C  C81  1  0.27557513  0.48936361  0.92513350  1  0.997848  -0.000637  0.179033  0.082385  -0.000124  3.818715  0.0
C  C82  1  0.48936349  0.27557429  0.42513469  1  0.997842  -0.000637  0.179054  0.082424  -0.000125  3.818591  0.0
C  C83  1  0.72442638  0.51063790  0.07486155  1  0.997915  -0.000637  0.179094  0.082474  -0.000124  3.818637  0.0
C  C84  1  0.11512845  0.12373499  0.41398097  1  1.027685  0.001683  0.171024  0.069182  0.001081  3.839546  0.001
C  C85  1  0.87626715  0.88487007  0.08601722  1  1.027606  0.001682  0.170971  0.069171  0.00108  3.839532  0.001
C  C86  1  0.88487142  0.87626704  0.58601665  1  1.027844  0.001682  0.170987  0.069129  0.00108  3.839503  0.001
C  C87  1  0.12373437  0.11512912  0.91398368  1  1.02779  0.001682  0.170955  0.069139  0.00108  3.839536  0.001
C  C88  1  0.00408796  0.18400754  0.55218146  1  0.957076  -0.002157  0.1736  0.070647  -0.001065  3.820177  -0.001
C  C89  1  0.81599238  0.99591331  0.94781773  1  0.957059  -0.002158  0.17357  0.070637  -0.001065  3.820259  -0.001
C  C90  1  0.99591017  0.81599100  0.44781824  1  0.957148  -0.002157  0.173599  0.070674  -0.001064  3.820279  -0.001
C  C91  1  0.18400838  0.00408854  0.05218521  1  0.95703  -0.002158  0.17354  0.070547  -0.001065  3.820197  -0.001
C  C92  1  0.73678052  0.39923729  0.77546807  1  -0.013188  0.011014  -0.014544  -0.065825  0.007469  3.927619  0.009
C  C93  1  0.60075802  0.26322276  0.72453224  1  -0.013263  0.011013  -0.014597  -0.065851  0.007468  3.927772  0.009
C  C94  1  0.26322006  0.60075891  0.22453018  1  -0.013641  0.011014  -0.014552  -0.065906  0.007468  3.927821  0.009
C  C95  1  0.39924104  0.73677875  0.27546941  1  -0.013269  0.011013  -0.014595  -0.065903  0.007468  3.927792  0.009
C  C96  1  0.80532139  0.30790833  0.83318679  1  0.00605  0.001112  -0.007408  -0.027025  0.000729  3.926884  0.001
C  C97  1  0.69209074  0.19468075  0.66681250  1  0.006105  0.001113  -0.007457  -0.027171  0.000729  3.927028  0.001
C  C98  1  0.19467839  0.69208893  0.16681276  1  0.006754  0.001112  -0.007465  -0.027066  0.000729  3.926932  0.001
C  C99  1  0.30791166  0.80532136  0.33318618  1  0.006315  0.001112  -0.007448  -0.027048  0.000729  3.92683  0.001
C  C100  1  0.76183915  0.26055093  0.94327785  1  -0.004687  0.000463  -0.092296  -0.138045  0.000254  3.982216  0.0
C  C101  1  0.73943988  0.23816820  0.55672336  1  -0.004567  0.000463  -0.092293  -0.138074  0.000254  3.982454  0.0
C  C102  1  0.23816299  0.73943999  0.05672049  1  -0.004932  0.000463  -0.092246  -0.138  0.000254  3.982385  0.0
C  C103  1  0.26055592  0.76183825  0.44327692  1  -0.004909  0.000463  -0.092225  -0.137951  0.000254  3.982236  0.0
C  C104  1  0.65134813  0.30436922  0.99561932  1  -0.210322  0.000314  -0.018549  -0.070504  0.000154  3.981605  0.0
C  C105  1  0.69562919  0.34865457  0.50438491  1  -0.209786  0.000315  -0.018434  -0.070297  0.000154  3.981561  0.0
C  C106  1  0.34865250  0.69562547  0.00438584  1  -0.209618  0.000315  -0.018557  -0.07053  0.000154  3.981861  0.0
C  C107  1  0.30437073  0.65134985  0.49561313  1  -0.209944  0.000315  -0.018568  -0.070607  0.000154  3.981796  0.0
C  C108  1  0.58238016  0.39495775  0.93919469  1  0.000942  0.00028  -0.086  -0.086079  0.000139  3.969867  0.0
C  C109  1  0.60503816  0.41762643  0.56081035  1  0.000588  0.00028  -0.086153  -0.086309  0.000139  3.970195  0.0
C  C110  1  0.41762375  0.60503591  0.06080605  1  0.000488  0.00028  -0.086031  -0.086124  0.000139  3.970041  0.0
C  C111  1  0.39495845  0.58237664  0.43919446  1  0.000629  0.00028  -0.08603  -0.08607  0.000139  3.969852  0.0
C  C112  1  0.62561808  0.44182179  0.83005095  1  -0.063374  0.001224  -0.083028  -0.08082  0.000792  3.945099  0.001
C  C113  1  0.55817460  0.37438321  0.66995251  1  -0.06419  0.001224  -0.082949  -0.080584  0.000792  3.945256  0.001
C  C114  1  0.37438249  0.55817128  0.16995208  1  -0.06348  0.001224  -0.083007  -0.080751  0.000792  3.944996  0.001
C  C115  1  0.44182778  0.62561732  0.33004820  1  -0.063843  0.001224  -0.082984  -0.080756  0.000793  3.944996  0.001
C  C116  1  0.77767386  0.44860060  0.65646856  1  1.550199  0.00058  0.22682  0.610811  0.002017  4.114875  -0.001
C  C117  1  0.55139748  0.22232787  0.84352987  1  1.550251  0.00058  0.226841  0.610883  0.002017  4.114782  -0.001
C  C118  1  0.22232676  0.55139720  0.34352975  1  1.550281  0.000579  0.226779  0.610835  0.002016  4.114827  -0.001
C  C119  1  0.44860650  0.77766821  0.15647199  1  1.550248  0.000579  0.226797  0.610795  0.002016  4.11478  -0.001
C  C120  1  0.92769869  0.25906849  0.78741286  1  1.592506  2.8e-05  0.208837  0.578765  8.2e-05  4.219249  0.0
C  C121  1  0.74093003  0.07230491  0.71258890  1  1.592438  2.8e-05  0.208884  0.578878  8.2e-05  4.21912  0.0
C  C122  1  0.07230202  0.74093251  0.21258693  1  1.592627  2.8e-05  0.208873  0.578799  8.2e-05  4.219274  0.0
C  C123  1  0.25907070  0.92769690  0.28741126  1  1.592534  2.8e-05  0.208946  0.578911  8.2e-05  4.219056  0.0
S  S124  1  0.59713376  0.25041068  0.13698855  1  3.178785  -0.000137  0.497393  1.147635  -0.000116  6.231166  0.0
S  S125  1  0.74958338  0.40287176  0.36301361  1  3.178719  -0.000137  0.497547  1.147944  -0.000116  6.230773  0.0
S  S126  1  0.40286692  0.74958873  0.86301188  1  3.178712  -0.000137  0.497548  1.147983  -0.000116  6.23084  0.0
S  S127  1  0.25040981  0.59713141  0.63698551  1  3.178725  -0.000137  0.497458  1.147898  -0.000116  6.230978  0.0
N  N128  1  0.59428323  0.72644348  0.48588576  1  -0.73576  0.045671  -0.253867  -0.179488  0.030876  3.549988  0.041
N  N129  1  0.27355894  0.40571571  0.01411493  1  -0.73572  0.04567  -0.25382  -0.17936  0.030875  3.549788  0.041
N  N130  1  0.40571413  0.27355692  0.51411632  1  -0.735722  0.045672  -0.253838  -0.179382  0.030876  3.5498  0.041
N  N131  1  0.72644174  0.59428370  0.98588551  1  -0.73582  0.045667  -0.253833  -0.179353  0.030873  3.549887  0.041
N  N132  1  0.55799065  0.81258557  0.40438997  1  -0.740219  -0.037339  -0.251449  -0.167092  -0.025422  3.553584  -0.035
N  N133  1  0.18741994  0.44201181  0.09561016  1  -0.740123  -0.037342  -0.251468  -0.167107  -0.025422  3.553658  -0.035
N  N134  1  0.44200842  0.18741594  0.59561168  1  -0.740312  -0.03734  -0.251498  -0.167161  -0.025422  3.553672  -0.035
N  N135  1  0.81258081  0.55799158  0.90438866  1  -0.740148  -0.037343  -0.251506  -0.167188  -0.025423  3.553662  -0.035
N  N136  1  0.42055243  0.80944831  0.55194944  1  -0.916856  0.00063  -0.137027  0.203796  0.0003  3.751803  0.001
N  N137  1  0.19055089  0.57944716  0.94804928  1  -0.916558  0.00063  -0.136939  0.203906  0.0003  3.751656  0.001
N  N138  1  0.57944655  0.19055000  0.44805142  1  -0.91652  0.00063  -0.136938  0.203856  0.0003  3.751849  0.001
N  N139  1  0.80944812  0.42055352  0.05194921  1  -0.916501  0.000631  -0.136954  0.203877  0.0003  3.751778  0.001
N  N140  1  0.31329219  0.83792356  0.62172389  1  -0.755893  0.00122  -0.492358  -0.524467  0.000731  3.089719  0.001
N  N141  1  0.16207623  0.68670684  0.87827269  1  -0.756133  0.00122  -0.492416  -0.524545  0.000731  3.089736  0.001
N  N142  1  0.68670597  0.16207578  0.37827618  1  -0.756066  0.00122  -0.492433  -0.524527  0.000731  3.089738  0.001
N  N143  1  0.83792443  0.31329411  0.12172293  1  -0.756078  0.00122  -0.492392  -0.524549  0.000731  3.089763  0.001
N  N144  1  0.01935624  0.27061391  0.46711816  1  -0.715085  0.051576  -0.25945  -0.168848  0.034475  3.577587  0.046
N  N145  1  0.72938492  0.98064665  0.03288166  1  -0.715095  0.051575  -0.259442  -0.16892  0.034474  3.5777  0.046
N  N146  1  0.98064443  0.72938628  0.53287986  1  -0.715192  0.051574  -0.259441  -0.168934  0.034474  3.577666  0.046
N  N147  1  0.27061665  0.01935492  0.96711827  1  -0.715083  0.051576  -0.259423  -0.168877  0.034475  3.57756  0.046
N  N148  1  0.08932138  0.23313388  0.38131955  1  -0.774644  -0.039702  -0.248978  -0.13935  -0.026765  3.552213  -0.037
N  N149  1  0.76686492  0.91068094  0.11868053  1  -0.77459  -0.039702  -0.248964  -0.139333  -0.026766  3.552133  -0.037
N  N150  1  0.91067933  0.76686712  0.61868024  1  -0.774628  -0.039702  -0.248961  -0.139279  -0.026766  3.552086  -0.037
N  N151  1  0.23313496  0.08932032  0.88132019  1  -0.774606  -0.039701  -0.248985  -0.139345  -0.026765  3.552195  -0.037
N  N152  1  0.06401967  0.09019671  0.52085490  1  -0.905405  0.000497  -0.137726  0.20514  0.000292  3.785001  0.001
N  N153  1  0.90980325  0.93598020  0.97914486  1  -0.90544  0.000497  -0.13769  0.205224  0.000292  3.78511  0.001
N  N154  1  0.93598100  0.90980348  0.47914312  1  -0.905417  0.000497  -0.137701  0.20525  0.000292  3.784956  0.001
N  N155  1  0.09019748  0.06402082  0.02085632  1  -0.905405  0.000497  -0.137656  0.205316  0.000292  3.785031  0.001
N  N156  1  0.06950634  0.97936642  0.58118031  1  -0.714744  0.001076  -0.489427  -0.51768  0.000636  3.124858  0.001
N  N157  1  0.02063311  0.93049237  0.91881927  1  -0.714735  0.001075  -0.489455  -0.517757  0.000636  3.124864  0.001
N  N158  1  0.93049435  0.02063457  0.41881809  1  -0.714743  0.001076  -0.489463  -0.517842  0.000636  3.124827  0.001
N  N159  1  0.97936674  0.06950730  0.08118140  1  -0.714625  0.001076  -0.489405  -0.517684  0.000636  3.124867  0.001
O  O160  1  0.72053550  0.54601771  0.61512727  1  -1.15757  0.057398  -0.317057  -0.564105  0.036233  2.434127  0.053
O  O161  1  0.45397938  0.27946045  0.88487735  1  -1.157758  0.057397  -0.317037  -0.564177  0.036232  2.434159  0.053
O  O162  1  0.27946092  0.45397814  0.38487420  1  -1.157763  0.057394  -0.31701  -0.56414  0.03623  2.434172  0.053
O  O163  1  0.54602213  0.72053716  0.11512559  1  -1.157826  0.057389  -0.316969  -0.564008  0.036227  2.434175  0.053
O  O164  1  0.86339195  0.38864996  0.60546676  1  -1.134825  0.058367  -0.304323  -0.531994  0.036849  2.408755  0.053
O  O165  1  0.61135065  0.13661099  0.89453089  1  -1.134761  0.058364  -0.304377  -0.532034  0.036847  2.408586  0.053
O  O166  1  0.13660789  0.61135126  0.39453049  1  -1.134776  0.058366  -0.304322  -0.531966  0.036848  2.40857  0.053
O  O167  1  0.38864844  0.86339212  0.10547081  1  -1.134659  0.058379  -0.304377  -0.532045  0.036856  2.408407  0.053
O  O168  1  0.99132493  0.31937975  0.76452886  1  -1.196269  0.000709  -0.315154  -0.565559  0.000149  2.227024  0.001
O  O169  1  0.68061972  0.00867793  0.73547211  1  -1.196171  0.000708  -0.31512  -0.565579  0.000149  2.22699  0.001
O  O170  1  0.00867498  0.68062231  0.23547223  1  -1.196305  0.000708  -0.315131  -0.565548  0.000149  2.226993  0.001
O  O171  1  0.31938351  0.99132314  0.26452735  1  -1.196264  0.000709  -0.315165  -0.565601  0.000149  2.226951  0.001
O  O172  1  0.96190951  0.16032795  0.78458408  1  -1.190721  -4.3e-05  -0.315696  -0.551308  -4.7e-05  2.180969  0.0
O  O173  1  0.83967025  0.03809345  0.71541669  1  -1.190828  -4.3e-05  -0.315743  -0.551355  -4.7e-05  2.180894  0.0
O  O174  1  0.03809286  0.83967413  0.21541182  1  -1.1909  -4.3e-05  -0.315721  -0.551329  -4.7e-05  2.180996  0.0
O  O175  1  0.16033133  0.96190813  0.28458463  1  -1.190641  -4.3e-05  -0.315759  -0.551385  -4.7e-05  2.180934  0.0
O  O176  1  0.49634496  0.22401844  0.15262256  1  -1.335261  -0.00172  -0.334231  -0.632358  -0.001348  2.294729  0.0
O  O177  1  0.77598126  0.50365706  0.34737453  1  -1.335338  -0.00172  -0.334201  -0.632364  -0.001348  2.294814  0.0
O  O178  1  0.50365904  0.77597999  0.84737624  1  -1.335307  -0.00172  -0.334224  -0.632428  -0.001348  2.294688  0.0
O  O179  1  0.22401775  0.49634283  0.65262498  1  -1.335303  -0.00172  -0.334185  -0.632371  -0.001348  2.294902  0.0
O  O180  1  0.57445166  0.34217019  0.17896591  1  -1.33541  -7e-06  -0.352344  -0.616394  2e-05  2.201415  0.0
O  O181  1  0.65782300  0.42555250  0.32103713  1  -1.335418  -7e-06  -0.352408  -0.616488  2e-05  2.201379  0.0
O  O182  1  0.42555232  0.65782822  0.82103150  1  -1.335425  -7e-06  -0.352386  -0.616503  2e-05  2.201281  0.0
O  O183  1  0.34217190  0.57445102  0.67896398  1  -1.33525  -7e-06  -0.352339  -0.616431  2e-05  2.201247  0.0
O  O184  1  0.68474098  0.15324967  0.17446880  1  -1.342089  4.6e-05  -0.350647  -0.602733  8.4e-05  2.165868  0.0
O  O185  1  0.84674204  0.31526012  0.32553190  1  -1.342055  4.6e-05  -0.35077  -0.602957  8.4e-05  2.165617  0.0
O  O186  1  0.31526461  0.84674586  0.82552842  1  -1.342175  4.6e-05  -0.350743  -0.602868  8.4e-05  2.16594  0.0
O  O187  1  0.15325106  0.68473906  0.67446675  1  -1.342018  4.6e-05  -0.350752  -0.602918  8.4e-05  2.165867  0.0
O  O188  1  0.91270005  0.58538281  0.44764938  1  -1.089097  0.180169  -0.58878  -0.827435  0.112275  2.342077  0.161
O  O189  1  0.41461489  0.08729565  0.05235386  1  -1.089042  0.180179  -0.588783  -0.827374  0.11228  2.342176  0.161
O  O190  1  0.08729725  0.41461440  0.55235329  1  -1.089092  0.180172  -0.588807  -0.827366  0.112276  2.342189  0.161
O  O191  1  0.58538573  0.91270058  0.94764718  1  -1.089052  0.180175  -0.588799  -0.827387  0.112277  2.342139  0.161
O  O192  1  0.06376317  0.45035460  0.31307807  1  -1.114634  0.027296  -0.601157  -0.832268  0.016812  2.270832  0.024
O  O193  1  0.54964722  0.93624170  0.18692045  1  -1.114664  0.027293  -0.601156  -0.832317  0.016811  2.270933  0.024
O  O194  1  0.93623841  0.54964854  0.68691982  1  -1.114651  0.027293  -0.601153  -0.832292  0.016812  2.27089  0.024
O  O195  1  0.45035272  0.06376274  0.81307897  1  -1.114654  0.027288  -0.601141  -0.832267  0.016809  2.270893  0.024
O  O196  1  0.77723106  0.76060157  0.33114302  1  -1.12342  0.039983  -0.602551  -0.824929  0.024508  2.249346  0.035
O  O197  1  0.23940202  0.22276796  0.16885930  1  -1.123292  0.03997  -0.602566  -0.824945  0.024501  2.249368  0.035
O  O198  1  0.22276719  0.23940255  0.66885651  1  -1.123424  0.039982  -0.602563  -0.824948  0.024507  2.249284  0.035
O  O199  1  0.76060042  0.77723419  0.83114285  1  -1.123426  0.039983  -0.602566  -0.824962  0.024508  2.249291  0.035
O  O200  1  0.30476910  0.28631260  0.30785605  1  -1.239365  -0.000647  -0.615533  -0.800489  -0.000678  2.043791  -0.001
O  O201  1  0.71368942  0.69523075  0.19214305  1  -1.239415  -0.000647  -0.615554  -0.800494  -0.000678  2.043768  -0.001
O  O202  1  0.69522990  0.71368729  0.69214346  1  -1.239376  -0.000646  -0.615536  -0.800491  -0.000678  2.043746  -0.001
O  O203  1  0.28631295  0.30477055  0.80785456  1  -1.239341  -0.000647  -0.615533  -0.800518  -0.000678  2.043732  -0.001
