# generated using pymatgen
data_FeH2C6N3ClO
_symmetry_space_group_name_H-M   'P 1'
_cell_length_a   8.10804144
_cell_length_b   22.86205622
_cell_length_c   22.86209528
_cell_angle_alpha   118.63176230
_cell_angle_beta   96.78006856
_cell_angle_gamma   96.78007728
_symmetry_Int_Tables_number   1
_chemical_formula_structural   FeH2C6N3ClO
_chemical_formula_sum   'Fe6 H12 C36 N18 Cl6 O6'
_cell_volume   3618.73823262
_cell_formula_units_Z   6
loop_
 _symmetry_equiv_pos_site_id
 _symmetry_equiv_pos_as_xyz
  1  'x, y, z'
loop_
 _atom_site_type_symbol
 _atom_site_label
 _atom_site_symmetry_multiplicity
 _atom_site_fract_x
 _atom_site_fract_y
 _atom_site_fract_z
 _atom_site_occupancy
 _atom_site_pbe_bader_charge
 _atom_site_pbe_bader_spin_density
 _atom_site_pbe_cm5_charge
 _atom_site_pbe_ddec_charge
 _atom_site_pbe_ddec_spin_density
 _atom_site_pbe_ddec_sum_bond_order
 _atom_site_pbe_magmom
Fe  Fe0  1  0.19345973  0.38682788  0.69342134  1  1.24759  3.569353  0.634426  0.59353  3.802321  2.848253  3.491
Fe  Fe1  1  0.80654154  0.30657602  0.61316816  1  1.247622  3.568955  0.634359  0.593417  3.801804  2.848199  3.491
Fe  Fe2  1  0.50000170  0.30658961  0.69340893  1  1.247935  3.569083  0.634134  0.593425  3.801757  2.848648  3.491
Fe  Fe3  1  0.80653846  0.61317145  0.30657724  1  1.247644  3.569254  0.634414  0.593453  3.802175  2.848282  3.491
Fe  Fe4  1  0.19345864  0.69342484  0.38683211  1  1.247633  3.569404  0.634401  0.593455  3.802388  2.848202  3.491
Fe  Fe5  1  0.50000171  0.69341023  0.30659012  1  1.247857  3.568733  0.634163  0.593528  3.801312  2.848607  3.491
H  H6  1  0.24723775  0.48717530  0.60569922  1  0.116588  0.001997  0.114394  0.153046  0.000778  0.987443  0.0
H  H7  1  0.75277336  0.39430227  0.51282219  1  0.116543  0.002006  0.11441  0.153041  0.000782  0.987219  0.0
H  H8  1  0.64156674  0.39433860  0.88151463  1  0.114965  0.001994  0.114426  0.152794  0.000778  0.987782  0.0
H  H9  1  0.76009006  0.11854438  0.51291704  1  0.094824  0.002044  0.114454  0.152769  0.000784  0.987332  0.0
H  H10  1  0.23990106  0.48708499  0.88145445  1  0.094847  0.002031  0.114436  0.152729  0.000779  0.987427  0.0
H  H11  1  0.35842178  0.11848452  0.60565675  1  0.115045  0.001996  0.114453  0.152792  0.000779  0.987889  0.0
H  H12  1  0.75276138  0.51282097  0.39429881  1  0.116568  0.001999  0.114396  0.153042  0.000779  0.987376  0.0
H  H13  1  0.24722685  0.60570113  0.48718104  1  0.116741  0.001994  0.114397  0.153023  0.000777  0.987281  0.0
H  H14  1  0.35843920  0.60566633  0.11848740  1  0.114704  0.002003  0.114434  0.15275  0.000782  0.987776  0.0
H  H15  1  0.23990538  0.88145445  0.48708293  1  0.094966  0.002032  0.114447  0.1527  0.000779  0.987345  0.0
H  H16  1  0.76011528  0.51291587  0.11854519  1  0.094785  0.002034  0.114459  0.152739  0.00078  0.987429  0.0
H  H17  1  0.64157043  0.88151278  0.39433754  1  0.114974  0.002005  0.114422  0.152755  0.000782  0.987869  0.0
C  C18  1  0.42944450  0.42291366  0.60371169  1  0.41561  0.014375  0.097563  0.146882  0.00727  4.05093  0.011
C  C19  1  0.57056112  0.39629178  0.57708600  1  0.453493  0.014265  0.097514  0.146779  0.007269  4.050966  0.011
C  C20  1  0.82572133  0.39630340  0.81922716  1  0.41453  0.014393  0.097001  0.145526  0.007265  4.050965  0.011
C  C21  1  0.00658950  0.18080070  0.57710167  1  0.440786  0.0145  0.097832  0.147112  0.007354  4.050641  0.011
C  C22  1  0.99340558  0.42289797  0.81919643  1  0.440763  0.014497  0.097922  0.147102  0.007353  4.050516  0.011
C  C23  1  0.17427576  0.18077340  0.60369556  1  0.414597  0.014399  0.097034  0.145525  0.007268  4.050963  0.011
C  C24  1  0.57055389  0.57708364  0.39628855  1  0.416527  0.014361  0.097605  0.14686  0.007267  4.050838  0.011
C  C25  1  0.42943880  0.60370857  0.42291489  1  0.453998  0.014262  0.097558  0.146773  0.007268  4.05089  0.011
C  C26  1  0.17428778  0.60369796  0.18077767  1  0.414826  0.014393  0.097101  0.145652  0.007266  4.050646  0.011
C  C27  1  0.99340391  0.81919660  0.42290098  1  0.440748  0.014504  0.09792  0.147003  0.007355  4.050607  0.011
C  C28  1  0.00660128  0.57710136  0.18080427  1  0.440559  0.014503  0.097918  0.147149  0.007355  4.050612  0.011
C  C29  1  0.82572390  0.81922390  0.39629949  1  0.414759  0.014393  0.097092  0.145667  0.007266  4.050849  0.011
C  C30  1  0.35679172  0.46702134  0.58690245  1  0.084301  0.003434  -0.097876  -0.252071  0.001612  3.970924  0.002
C  C31  1  0.64321880  0.41310383  0.53298294  1  0.085173  0.003446  -0.097875  -0.251974  0.001619  3.970809  0.002
C  C32  1  0.76992549  0.41312492  0.88016781  1  0.077021  0.003345  -0.098006  -0.251293  0.001558  3.971457  0.002
C  C33  1  0.88980567  0.11989159  0.53304243  1  0.140781  0.003448  -0.097547  -0.250909  0.001653  3.971198  0.002
C  C34  1  0.11019506  0.46695874  0.88010666  1  0.141033  0.003436  -0.09755  -0.250878  0.001646  3.970971  0.002
C  C35  1  0.23007761  0.11983218  0.58687121  1  0.076987  0.003346  -0.098027  -0.251262  0.001559  3.971466  0.002
C  C36  1  0.64321518  0.53298054  0.41310078  1  0.084296  0.003437  -0.09791  -0.252031  0.001614  3.970645  0.002
C  C37  1  0.35677593  0.58689855  0.46701915  1  0.084832  0.003433  -0.097825  -0.251929  0.001611  3.970421  0.002
C  C38  1  0.23008166  0.58687746  0.11983480  1  0.077218  0.003355  -0.097964  -0.251176  0.001564  3.971052  0.002
C  C39  1  0.11019450  0.88010672  0.46695269  1  0.140587  0.003436  -0.097549  -0.250709  0.001645  3.970965  0.002
C  C40  1  0.88981490  0.53304924  0.11989656  1  0.140914  0.003437  -0.097573  -0.250865  0.001647  3.971157  0.002
C  C41  1  0.76991805  0.88016461  0.41312692  1  0.077166  0.003355  -0.097986  -0.251193  0.001565  3.971353  0.002
C  C42  1  0.42913668  0.48312031  0.54335753  1  0.445764  0.005448  0.079488  0.154977  0.002367  4.062218  0.003
C  C43  1  0.57085807  0.45664033  0.51687746  1  0.406086  0.005457  0.079409  0.154891  0.002364  4.06222  0.003
C  C44  1  0.88580429  0.45666784  0.93980369  1  0.419789  0.005476  0.078802  0.153353  0.002379  4.063435  0.003
C  C45  1  0.94602038  0.06024187  0.51690959  1  0.41112  0.005673  0.079007  0.154282  0.002458  4.063543  0.003
C  C46  1  0.05398598  0.48309248  0.93976002  1  0.411009  0.005668  0.079036  0.154402  0.002456  4.063505  0.003
C  C47  1  0.11419598  0.06019316  0.54333167  1  0.419748  0.005486  0.078879  0.153468  0.002383  4.063339  0.003
C  C48  1  0.57085128  0.51687597  0.45663916  1  0.406015  0.005454  0.079399  0.154788  0.002363  4.061858  0.003
C  C49  1  0.42914064  0.54336257  0.48312504  1  0.44571  0.005441  0.07945  0.155058  0.002364  4.061633  0.003
C  C50  1  0.11419790  0.54333454  0.06019695  1  0.419802  0.00548  0.078754  0.153254  0.002381  4.063  0.003
C  C51  1  0.05397681  0.93975797  0.48309007  1  0.411306  0.005675  0.079008  0.154363  0.002459  4.063358  0.003
C  C52  1  0.94601691  0.51690634  0.06024026  1  0.411325  0.005675  0.079026  0.154359  0.002459  4.063291  0.003
C  C53  1  0.88580098  0.93980617  0.45666292  1  0.419544  0.005481  0.078769  0.15322  0.002381  4.063163  0.003
N  N54  1  0.38954448  0.39726011  0.64454409  1  -0.719546  0.054497  -0.241473  -0.204342  0.023827  3.456057  0.032
N  N55  1  0.61045753  0.35545833  0.60274023  1  -0.720011  0.05451  -0.241449  -0.204304  0.023831  3.455974  0.032
N  N56  1  0.74502364  0.35546703  0.75273150  1  -0.706936  0.05445  -0.241537  -0.2044  0.023791  3.456826  0.032
N  N57  1  0.99232642  0.24728814  0.60273994  1  -0.721746  0.054527  -0.24142  -0.204243  0.023867  3.455737  0.032
N  N58  1  0.00767200  0.39725882  0.75270943  1  -0.721868  0.054509  -0.241535  -0.204365  0.023863  3.455933  0.032
N  N59  1  0.25497854  0.24726781  0.64453085  1  -0.706924  0.054456  -0.241556  -0.204408  0.023794  3.456682  0.032
N  N60  1  0.61045070  0.60273821  0.35545607  1  -0.72028  0.054502  -0.241501  -0.204278  0.023827  3.455983  0.032
N  N61  1  0.38954713  0.64454405  0.39726315  1  -0.720346  0.054492  -0.241501  -0.204312  0.023822  3.456109  0.032
N  N62  1  0.25498325  0.64453484  0.24727173  1  -0.707071  0.054466  -0.241642  -0.204563  0.023798  3.456849  0.032
N  N63  1  0.00767074  0.75270916  0.39725937  1  -0.721881  0.054516  -0.241581  -0.204385  0.023864  3.45597  0.032
N  N64  1  0.99233165  0.60274152  0.24729162  1  -0.721792  0.05452  -0.24152  -0.204376  0.023867  3.455908  0.032
N  N65  1  0.74501961  0.75272898  0.35546782  1  -0.706917  0.054459  -0.241658  -0.204657  0.023796  3.456786  0.032
N  N66  1  0.50000040  0.35754152  0.64245790  1  -0.217528  0.051864  -0.151135  -0.022552  0.022088  3.613892  0.044
N  N67  1  0.85753108  0.35754416  0.71508376  1  -0.219605  0.05176  -0.150882  -0.022528  0.022089  3.615715  0.043
N  N68  1  0.14246762  0.28491494  0.64245388  1  -0.219704  0.051754  -0.150952  -0.022643  0.022088  3.615718  0.043
N  N69  1  0.49999653  0.64245781  0.35754281  1  -0.217738  0.051877  -0.151077  -0.022593  0.022091  3.613911  0.044
N  N70  1  0.14247158  0.64245670  0.28491792  1  -0.219684  0.051753  -0.150902  -0.022515  0.022088  3.615683  0.043
N  N71  1  0.85753079  0.71508235  0.35754461  1  -0.219715  0.051751  -0.150887  -0.022406  0.022085  3.615576  0.043
Cl  Cl72  1  0.39221419  0.39217983  0.78431602  1  -0.632351  0.212565  -0.249042  -0.413519  0.101254  1.421207  0.143
Cl  Cl73  1  0.60778912  0.21568490  0.60781878  1  -0.632393  0.212572  -0.249041  -0.413499  0.101251  1.42122  0.143
Cl  Cl74  1  0.00000230  0.39215371  0.60784336  1  -0.633362  0.212514  -0.249188  -0.413791  0.101199  1.420344  0.143
Cl  Cl75  1  0.60779267  0.60781951  0.21568555  1  -0.632355  0.212575  -0.249023  -0.413486  0.101254  1.421233  0.143
Cl  Cl76  1  0.39221106  0.78431596  0.39218237  1  -0.632364  0.212571  -0.249028  -0.413499  0.101253  1.421206  0.143
Cl  Cl77  1  0.99999411  0.60784461  0.39215772  1  -0.633441  0.212507  -0.249239  -0.413851  0.101199  1.420235  0.143
O  O78  1  0.35832522  0.52611339  0.52611527  1  -1.079311  0.006733  -0.138469  -0.154336  0.002846  2.568097  0.006
O  O79  1  0.64166824  0.47388645  0.47388641  1  -1.079215  0.006735  -0.138319  -0.154144  0.002847  2.567957  0.006
O  O80  1  0.83214772  0.47394517  0.00003422  1  -1.081642  0.006868  -0.137238  -0.152304  0.00291  2.567687  0.006
O  O81  1  0.83214711  0.00003716  0.47394400  1  -1.081648  0.006875  -0.137225  -0.152189  0.002912  2.567599  0.006
O  O82  1  0.16785151  0.52605874  0.99996485  1  -1.081568  0.006868  -0.137188  -0.152267  0.00291  2.567601  0.006
O  O83  1  0.16784937  0.99996370  0.52605042  1  -1.081616  0.006873  -0.137213  -0.15239  0.002912  2.567808  0.006
