# generated using pymatgen
data_ZnH24C26S2(N3O5)2
_symmetry_space_group_name_H-M   'P 1'
_cell_length_a   7.89655635
_cell_length_b   8.32110177
_cell_length_c   11.52603436
_cell_angle_alpha   103.39742334
_cell_angle_beta   105.93996579
_cell_angle_gamma   90.25018846
_symmetry_Int_Tables_number   1
_chemical_formula_structural   ZnH24C26S2(N3O5)2
_chemical_formula_sum   'Zn1 H24 C26 S2 N6 O10'
_cell_volume   706.54065381
_cell_formula_units_Z   1
loop_
 _symmetry_equiv_pos_site_id
 _symmetry_equiv_pos_as_xyz
  1  'x, y, z'
loop_
 _atom_site_type_symbol
 _atom_site_label
 _atom_site_symmetry_multiplicity
 _atom_site_fract_x
 _atom_site_fract_y
 _atom_site_fract_z
 _atom_site_occupancy
 _atom_site_hle17_bader_spin_density
 _atom_site_hle17_ddec_charge
 _atom_site_hle17_ddec_spin_density
 _atom_site_hle17_ddec_sum_bond_order
 _atom_site_hle17_magmom
 _atom_site_hse06_10hf_bader_spin_density
 _atom_site_hse06_10hf_ddec_charge
 _atom_site_hse06_10hf_ddec_spin_density
 _atom_site_hse06_10hf_ddec_sum_bond_order
 _atom_site_hse06_10hf_magmom
 _atom_site_hse06_bader_spin_density
 _atom_site_hse06_ddec_charge
 _atom_site_hse06_ddec_spin_density
 _atom_site_hse06_ddec_sum_bond_order
 _atom_site_hse06_magmom
 _atom_site_pbe_bader_spin_density
 _atom_site_pbe_cm5_charge
 _atom_site_pbe_ddec_charge
 _atom_site_pbe_ddec_spin_density
 _atom_site_pbe_ddec_sum_bond_order
 _atom_site_pbe_magmom
Zn  Zn0  1  0.50000570  0.99999854  0.50000411  1  0  1.107889  0  1.744544  0  0  0.935792  0  2.18466  0  0  0.979415  0  2.133213  0  0  0.693553  0.905156  0  2.219948  0
H  H1  1  0.28745086  0.69933576  0.94189295  1  0  0.261781  0  0.890268  0  0  0.249392  0  0.947777  0  0  0.255996  0  0.943874  0  0  0.324398  0.244633  0  0.95074  0
H  H2  1  0.71254261  0.30064777  0.05809874  1  0  0.261892  0  0.890274  0  0  0.249478  0  0.947803  0  0  0.256077  0  0.943897  0  0  0.324412  0.244724  0  0.950769  0
H  H3  1  0.52860074  0.02941028  0.77713506  1  0  0.096284  0  0.926879  0  0  0.105048  0  0.985864  0  0  0.1083  0  0.98271  0  0  0.123746  0.10261  0  0.98828  0
H  H4  1  0.47140703  0.97057678  0.22287077  1  0  0.096221  0  0.927002  0  0  0.105035  0  0.985922  0  0  0.108289  0  0.982762  0  0  0.123701  0.102591  0  0.98834  0
H  H5  1  0.40258128  0.64198416  0.46369057  1  0  0.077271  0  0.972835  0  0  0.084564  0  1.039288  0  0  0.086398  0  1.038578  0  0  0.116002  0.083179  0  1.039891  0
H  H6  1  0.59741463  0.35800803  0.53630730  1  0  0.077325  0  0.972891  0  0  0.084613  0  1.039333  0  0  0.086451  0  1.038622  0  0  0.116  0.083227  0  1.03994  0
H  H7  1  0.33994646  0.44254715  0.58109091  1  0  0.118156  0  0.967841  0  0  0.126552  0  1.030903  0  0  0.129985  0  1.029486  0  0  0.11406  0.124033  0  1.032105  0
H  H8  1  0.66004216  0.55744018  0.41890153  1  0  0.118129  0  0.967836  0  0  0.126631  0  1.030775  0  0  0.130069  0  1.029358  0  0  0.114067  0.124108  0  1.031973  0
H  H9  1  0.97889014  0.25963151  0.38090321  1  0  0.105444  0  0.942655  0  0  0.116771  0  1.000264  0  0  0.12  0  0.998712  0  0  0.104444  0.114394  0  1.001503  0
H  H10  1  0.02111642  0.74039775  0.61911041  1  0  0.105422  0  0.942704  0  0  0.116719  0  1.000333  0  0  0.119993  0  0.99872  0  0  0.1044  0.114329  0  1.001604  0
H  H11  1  0.00694108  0.57081276  0.42921223  1  0  0.099227  0  0.977433  0  0  0.108067  0  1.04393  0  0  0.110675  0  1.04314  0  0  0.103532  0.106166  0  1.04459  0
H  H12  1  0.99305423  0.42921663  0.57078922  1  0  0.099234  0  0.977549  0  0  0.108017  0  1.044096  0  0  0.110609  0  1.043334  0  0  0.103468  0.106112  0  1.044762  0
H  H13  1  0.48136861  0.84633587  0.91088919  1  0  0.104593  0  0.939363  0  0  0.117501  0  0.993926  0  0  0.121111  0  0.99198  0  0  0.112962  0.114887  0  0.995512  0
H  H14  1  0.51864442  0.15363871  0.08911362  1  0  0.104569  0  0.939421  0  0  0.117471  0  0.993974  0  0  0.121079  0  0.992031  0  0  0.112945  0.114857  0  0.995562  0
H  H15  1  0.19729010  0.70381726  0.10097257  1  0  0.078855  0  0.951276  0  0  0.087935  0  1.016874  0  0  0.091775  0  1.012135  0  0  0.117051  0.084999  0  1.020519  0
H  H16  1  0.80271282  0.29618471  0.89902111  1  0  0.078855  0  0.951156  0  0  0.087909  0  1.016793  0  0  0.091776  0  1.012015  0  0  0.117072  0.084977  0  1.02044  0
H  H17  1  0.15089443  0.24414923  0.05429812  1  0  0.110701  0  0.944616  0  0  0.119133  0  1.006527  0  0  0.122825  0  1.004179  0  0  0.106803  0.116504  0  1.008238  0
H  H18  1  0.84910452  0.75585658  0.94570861  1  0  0.11077  0  0.944677  0  0  0.119202  0  1.006562  0  0  0.122901  0  1.004205  0  0  0.106825  0.116572  0  1.008271  0
H  H19  1  0.05120141  0.09700682  0.19376236  1  0  0.11255  0  0.987798  0  0  0.121959  0  1.046557  0  0  0.12577  0  1.043641  0  0  0.099052  0.119181  0  1.048699  0
H  H20  1  0.94879904  0.90301015  0.80625256  1  0  0.112775  0  0.987722  0  0  0.122057  0  1.046608  0  0  0.12588  0  1.043684  0  0  0.099074  0.119283  0  1.048745  0
H  H21  1  0.33905087  0.22205089  0.64630197  1  0  0.431896  0  0.867863  0  0  0.401938  0  0.930253  0  0  0.412488  0  0.914836  0  0  0.295974  0.394493  0  0.941125  0
H  H22  1  0.66094679  0.77794129  0.35370226  1  0  0.432005  0  0.867715  0  0  0.402085  0  0.930036  0  0  0.412629  0  0.914627  0  0  0.296066  0.394637  0  0.940912  0
H  H23  1  0.18824427  0.09993965  0.54423391  1  0  0.448134  0  0.825188  0  0  0.416568  0  0.896586  0  0  0.42639  0  0.882146  0  0  0.303789  0.409543  0  0.906921  0
H  H24  1  0.81176040  0.90005239  0.45575924  1  0  0.448119  0  0.825155  0  0  0.416564  0  0.896577  0  0  0.426387  0  0.882137  0  0  0.303798  0.409541  0  0.90691  0
C  C25  1  0.48691501  0.89836861  0.73814441  1  0  0.15105  0  3.659508  0  0  0.121172  0  3.907863  0  0  0.127815  0  3.924698  0  0  0.061  0.116807  0  3.896514  0
C  C26  1  0.51308607  0.10161732  0.26186017  1  0  0.15111  0  3.659492  0  0  0.121254  0  3.907811  0  0  0.127897  0  3.92465  0  0  0.061163  0.116892  0  3.896456  0
C  C27  1  0.40304905  0.62792932  0.75594085  1  0  0.004363  0  3.753825  0  0  0.01777  0  3.991533  0  0  0.0169  0  4.013126  0  0  0.011019  0.018422  0  3.976904  0
C  C28  1  0.59694443  0.37205050  0.24405543  1  0  0.0043  0  3.75398  0  0  0.017718  0  3.991477  0  0  0.016861  0  4.013058  0  0  0.010992  0.018374  0  3.976844  0
C  C29  1  0.41807547  0.68154019  0.56303073  1  0  0.140864  0  3.684552  0  0  0.109921  0  3.933415  0  0  0.116415  0  3.951366  0  0  0.053674  0.105666  0  3.921322  0
C  C30  1  0.58192028  0.31844706  0.43697063  1  0  0.140708  0  3.684545  0  0  0.109766  0  3.933511  0  0  0.116255  0  3.951468  0  0  0.05367  0.10551  0  3.921421  0
C  C31  1  0.38429147  0.57095705  0.62883732  1  0  -0.125018  0  3.682006  0  0  -0.14298  0  3.924856  0  0  -0.149342  0  3.945908  0  0  -0.072882  -0.138883  0  3.910912  0
C  C32  1  0.61570091  0.42902898  0.37115462  1  0  -0.124995  0  3.681777  0  0  -0.143078  0  3.924606  0  0  -0.149455  0  3.945669  0  0  -0.072946  -0.138975  0  3.910657  0
C  C33  1  0.02510828  0.32351903  0.32139285  1  0  -0.052719  0  3.727754  0  0  -0.070232  0  3.986389  0  0  -0.072291  0  4.007  0  0  -0.089768  -0.068691  0  3.972331  0
C  C34  1  0.97489063  0.67650288  0.67861311  1  0  -0.052585  0  3.727854  0  0  -0.070045  0  3.986377  0  0  -0.072134  0  4.006981  0  0  -0.089644  -0.068508  0  3.972314  0
C  C35  1  0.36430813  0.50624111  0.82463033  1  0  0.512762  0  3.834936  0  0  0.461381  0  4.128407  0  0  0.490041  0  4.128235  0  0  0.248146  0.442096  0  4.127995  0
C  C36  1  0.63568625  0.49373498  0.17536459  1  0  0.512568  0  3.835696  0  0  0.461493  0  4.128576  0  0  0.490151  0  4.128417  0  0  0.248181  0.442214  0  4.128168  0
C  C37  1  0.10014583  0.57833963  0.27317343  1  0  -0.144718  0  3.67061  0  0  -0.124924  0  3.914655  0  0  -0.131412  0  3.936009  0  0  -0.015186  -0.120706  0  3.900416  0
C  C38  1  0.89984961  0.42167736  0.72682595  1  0  -0.144857  0  3.670828  0  0  -0.125011  0  3.914789  0  0  -0.131498  0  3.936136  0  0  -0.015262  -0.120788  0  3.900554  0
C  C39  1  0.14505720  0.48723335  0.16734193  1  0  0.050656  0  3.786036  0  0  0.061159  0  4.022343  0  0  0.060876  0  4.0467  0  0  -0.009091  0.061374  0  4.005866  0
C  C40  1  0.85493892  0.51277620  0.83265716  1  0  0.050667  0  3.786159  0  0  0.061174  0  4.022444  0  0  0.060891  0  4.046804  0  0  -0.009068  0.061364  0  4.00601  0
C  C41  1  0.04092951  0.49623254  0.34902474  1  0  -0.092753  0  3.788085  0  0  -0.119115  0  4.044673  0  0  -0.120533  0  4.067358  0  0  -0.09728  -0.118014  0  4.029251  0
C  C42  1  0.95906658  0.50379188  0.65097513  1  0  -0.092756  0  3.788048  0  0  -0.11909  0  4.044582  0  0  -0.120513  0  4.06732  0  0  -0.097239  -0.117975  0  4.029139  0
C  C43  1  0.45711537  0.79542792  0.81122804  1  0  -0.137344  0  3.707536  0  0  -0.159819  0  3.959809  0  0  -0.165522  0  3.979966  0  0  -0.075465  -0.156157  0  3.946328  0
C  C44  1  0.54288343  0.20455306  0.18876840  1  0  -0.137238  0  3.707276  0  0  -0.159744  0  3.959497  0  0  -0.165453  0  3.979655  0  0  -0.075452  -0.156086  0  3.94602  0
C  C45  1  0.20622454  0.56933139  0.08619343  1  0  0.064549  0  3.666706  0  0  0.026793  0  3.940209  0  0  0.032776  0  3.952287  0  0  0.065216  0.022911  0  3.932044  0
C  C46  1  0.79377247  0.43067441  0.91380431  1  0  0.064641  0  3.666675  0  0  0.026872  0  3.940214  0  0  0.032843  0  3.952271  0  0  0.065198  0.022996  0  3.932054  0
C  C47  1  0.12365449  0.31314576  0.13919041  1  0  -0.102923  0  3.714615  0  0  -0.126604  0  3.969581  0  0  -0.129273  0  3.990386  0  0  -0.086438  -0.124747  0  3.95546  0
C  C48  1  0.87634462  0.68686375  0.86081436  1  0  -0.103097  0  3.714755  0  0  -0.126779  0  3.969704  0  0  -0.129454  0  3.990501  0  0  -0.086548  -0.124914  0  3.955586  0
C  C49  1  0.06553583  0.23191885  0.21547019  1  0  -0.072923  0  3.747968  0  0  -0.088895  0  4.001002  0  0  -0.089704  0  4.020252  0  0  -0.096063  -0.088247  0  3.987877  0
C  C50  1  0.93446203  0.76810186  0.78454062  1  0  -0.073092  0  3.748063  0  0  -0.088977  0  4.0011  0  0  -0.089805  0  4.020363  0  0  -0.096058  -0.088329  0  3.987974  0
S  S51  1  0.11649967  0.80087324  0.31391647  1  0  1.295901  0  5.639685  0  0  1.197856  0  6.159353  0  0  1.246387  0  6.135609  0  0  0.507748  1.164322  0  6.174611  0
S  S52  1  0.88350142  0.19914115  0.68607380  1  0  1.295595  0  5.639881  0  0  1.197507  0  6.159559  0  0  1.246035  0  6.135826  0  0  0.507689  1.163979  0  6.174806  0
N  N53  1  0.46776786  0.84239119  0.61578454  1  0  -0.311465  0  3.260418  0  0  -0.232789  0  3.520482  0  0  -0.250091  0  3.536623  0  0  -0.312289  -0.221105  0  3.509502  0
N  N54  1  0.53223320  0.15759721  0.38421698  1  0  -0.311343  0  3.260621  0  0  -0.232773  0  3.520801  0  0  -0.250074  0  3.536945  0  0  -0.31239  -0.221092  0  3.509819  0
N  N55  1  0.31089029  0.57638855  0.92664590  1  0  -0.280524  0  3.469854  0  0  -0.229578  0  3.725857  0  0  -0.250558  0  3.74176  0  0  -0.280687  -0.215265  0  3.714776  0
N  N56  1  0.68910479  0.42359620  0.07334886  1  0  -0.280645  0  3.470116  0  0  -0.229702  0  3.725915  0  0  -0.250691  0  3.741828  0  0  -0.280686  -0.215415  0  3.714864  0
N  N57  1  0.26555700  0.48523228  0.99819975  1  0  -0.122113  0  3.052142  0  0  -0.109558  0  3.344149  0  0  -0.113287  0  3.359716  0  0  -0.203501  -0.10703  0  3.333459  0
N  N58  1  0.73444291  0.51476108  0.00179808  1  0  -0.12209  0  3.052168  0  0  -0.109565  0  3.344141  0  0  -0.113288  0  3.359716  0  0  -0.203512  -0.107025  0  3.333453  0
O  O59  1  0.30925753  0.84536997  0.33957613  1  0  -0.715963  0  2.048894  0  0  -0.65102  0  2.333244  0  0  -0.675086  0  2.316233  0  0  -0.349265  -0.633731  0  2.34419  0
O  O60  1  0.69074762  0.15463572  0.66042635  1  0  -0.715862  0  2.048904  0  0  -0.650909  0  2.333242  0  0  -0.674972  0  2.316232  0  0  -0.349262  -0.633621  0  2.344189  0
O  O61  1  0.05733671  0.85181070  0.42592608  1  0  -0.663786  0  1.976881  0  0  -0.608672  0  2.222037  0  0  -0.628946  0  2.207564  0  0  -0.33627  -0.594365  0  2.231625  0
O  O62  1  0.94265367  0.14821626  0.57406376  1  0  -0.663542  0  1.976979  0  0  -0.608404  0  2.22215  0  0  -0.628675  0  2.20768  0  0  -0.33612  -0.594097  0  2.231728  0
O  O63  1  0.01106481  0.85183564  0.20504155  1  0  -0.635097  0  1.934371  0  0  -0.591898  0  2.172841  0  0  -0.612492  0  2.158702  0  0  -0.338973  -0.57715  0  2.181917  0
O  O64  1  0.98894793  0.14817733  0.79494945  1  0  -0.635058  0  1.934204  0  0  -0.591837  0  2.172671  0  0  -0.612435  0  2.158548  0  0  -0.339009  -0.577086  0  2.181736  0
O  O65  1  0.37809691  0.35539224  0.79060744  1  0  -0.521765  0  1.977511  0  0  -0.479627  0  2.202176  0  0  -0.499904  0  2.194324  0  0  -0.278676  -0.465642  0  2.207268  0
O  O66  1  0.62190328  0.64458626  0.20939314  1  0  -0.521701  0  1.97776  0  0  -0.47974  0  2.202295  0  0  -0.500016  0  2.194451  0  0  -0.278709  -0.465753  0  2.207382  0
O  O67  1  0.30615508  0.15364096  0.55926934  1  0  -0.839913  0  1.902695  0  0  -0.783687  0  2.115467  0  0  -0.804204  0  2.082576  0  0  -0.573522  -0.769084  0  2.13832  0
O  O68  1  0.69385021  0.84635233  0.44073106  1  0  -0.839952  0  1.902555  0  0  -0.783782  0  2.115401  0  0  -0.804297  0  2.082515  0  0  -0.573628  -0.769181  0  2.138251  0
