# generated using pymatgen
data_ZnH13(C7N2)3
_symmetry_space_group_name_H-M   'P 1'
_cell_length_a   9.71642971
_cell_length_b   9.84418978
_cell_length_c   10.53033643
_cell_angle_alpha   98.93127245
_cell_angle_beta   99.25633869
_cell_angle_gamma   116.99813106
_symmetry_Int_Tables_number   1
_chemical_formula_structural   ZnH13(C7N2)3
_chemical_formula_sum   'Zn2 H26 C42 N12'
_cell_volume   855.41727809
_cell_formula_units_Z   2
loop_
 _symmetry_equiv_pos_site_id
 _symmetry_equiv_pos_as_xyz
  1  'x, y, z'
loop_
 _atom_site_type_symbol
 _atom_site_label
 _atom_site_symmetry_multiplicity
 _atom_site_fract_x
 _atom_site_fract_y
 _atom_site_fract_z
 _atom_site_occupancy
 _atom_site_pbe_bader_spin_density
 _atom_site_pbe_cm5_charge
 _atom_site_pbe_ddec_charge
 _atom_site_pbe_ddec_spin_density
 _atom_site_pbe_ddec_sum_bond_order
 _atom_site_pbe_magmom
Zn  Zn0  1  0.68793084  0.67201997  0.76746666  1  0  0.732091  0.693903  0  2.424847  0
Zn  Zn1  1  0.29406237  0.98232098  0.69900292  1  0  0.727035  0.691028  0  2.422202  0
H  H2  1  0.85279997  0.82483696  0.11767181  1  0  0.102338  0.112665  0  1.025661  0
H  H3  1  0.06860429  0.03019189  0.31445064  1  0  0.094992  0.096197  0  1.03834  0
H  H4  1  0.34179200  0.19420334  0.29696658  1  0  0.097269  0.094291  0  1.0157  0
H  H5  1  0.41410256  0.15878040  0.07962347  1  0  0.104168  0.117895  0  1.012339  0
H  H6  1  0.16278870  0.78101009  0.32013698  1  0  0.097817  0.105432  0  1.037838  0
H  H7  1  0.97468498  0.55247593  0.12361387  1  0  0.094622  0.093715  0  1.02848  0
H  H8  1  0.71922457  0.34389476  0.13867625  1  0  0.092833  0.091573  0  1.052809  0
H  H9  1  0.63942071  0.34833415  0.35419070  1  0  0.098899  0.106993  0  1.01394  0
H  H10  1  0.22675124  0.73197945  0.13098729  1  0  0.105707  0.116453  0  1.023206  0
H  H11  1  0.27362745  0.56936825  0.27509707  1  0  0.100061  0.098899  0  1.023345  0
H  H12  1  0.46763916  0.47688952  0.24994201  1  0  0.097958  0.094293  0  1.021952  0
H  H13  1  0.61821224  0.53590129  0.07709658  1  0  0.102434  0.115646  0  1.023173  0
H  H14  1  0.77452174  0.80704226  0.46512999  1  0  0.103702  0.115142  0  1.022971  0
H  H15  1  0.72889632  0.92441242  0.28032596  1  0  0.100023  0.098051  0  1.005237  0
H  H16  1  0.55940173  0.05028056  0.27761648  1  0  0.095959  0.092376  0  1.021231  0
H  H17  1  0.42236885  0.05875777  0.45710645  1  0  0.099183  0.10626  0  1.027929  0
H  H18  1  0.79428331  0.12342871  0.05603572  1  0  0.099058  0.110769  0  0.995553  0
H  H19  1  0.07588197  0.18792671  0.06848924  1  0  0.088104  0.084804  0  1.084914  0
H  H20  1  0.22466888  0.33771174  0.92417111  1  0  0.093131  0.095225  0  1.018945  0
H  H21  1  0.10290902  0.44272561  0.76603409  1  0  0.098341  0.113992  0  1.016335  0
H  H22  1  0.37458001  0.60125622  0.52893944  1  0  0.100129  0.110299  0  1.051939  0
H  H23  1  0.08139791  0.46485618  0.42536873  1  0  0.091777  0.091421  0  1.063097  0
H  H24  1  0.90277609  0.20015603  0.44783980  1  0  0.091466  0.091651  0  1.053931  0
H  H25  1  0.01120416  0.05485502  0.56626192  1  0  0.098144  0.104489  0  1.041624  0
H  H26  1  0.32190217  0.85028461  0.90538031  1  0  0.312485  0.269598  0  1.01085  0
H  H27  1  0.80094450  0.44968293  0.68447064  1  0  0.300023  0.264907  0  1.021562  0
C  C28  1  0.98068765  0.73229776  0.64753275  1  0  0.188725  0.214603  0  4.192784  0
C  C29  1  0.02376745  0.80866931  0.78627448  1  0  0.210002  0.260497  0  4.113448  0
C  C30  1  0.01276817  0.87810026  0.98808944  1  0  0.086975  0.152422  0  4.019166  0
C  C31  1  0.97358874  0.89700514  0.10921372  1  0  -0.093631  -0.162101  0  3.986918  0
C  C32  1  0.09517075  0.01109796  0.21877817  1  0  -0.098369  -0.089764  0  4.027471  0
C  C33  1  0.25203596  0.10430763  0.20880703  1  0  -0.098474  -0.097399  0  4.04111  0
C  C34  1  0.29363144  0.08605490  0.08895709  1  0  -0.099306  -0.174822  0  3.991571  0
C  C35  1  0.17230362  0.97180827  0.97846111  1  0  0.084367  0.149873  0  4.026809  0
C  C36  1  0.00548542  0.69187606  0.44758714  1  0  0.084249  0.154781  0  4.036191  0
C  C37  1  0.04941182  0.68830075  0.32728922  1  0  -0.101633  -0.174422  0  4.006177  0
C  C38  1  0.94379750  0.56123321  0.21849630  1  0  -0.101192  -0.09422  0  4.034536  0
C  C39  1  0.79708625  0.44013619  0.22731663  1  0  -0.10667  -0.107186  0  4.048098  0
C  C40  1  0.75148362  0.44217240  0.34585326  1  0  -0.098381  -0.161784  0  3.998954  0
C  C41  1  0.85636602  0.56864314  0.45649450  1  0  0.080379  0.146388  0  4.064983  0
C  C42  1  0.52828530  0.85050967  0.73941998  1  0  0.212376  0.237816  0  4.103244  0
C  C43  1  0.49811558  0.79607239  0.85677743  1  0  0.232281  0.261379  0  4.040377  0
C  C44  1  0.39662798  0.72313501  0.02435485  1  0  0.099735  0.148908  0  4.009386  0
C  C45  1  0.31115202  0.68971161  0.12015250  1  0  -0.092961  -0.173208  0  4.003727  0
C  C46  1  0.33860599  0.59928658  0.19944596  1  0  -0.086253  -0.067722  0  3.999663  0
C  C47  1  0.44870112  0.54574826  0.18442967  1  0  -0.089433  -0.080085  0  4.018541  0
C  C48  1  0.53440438  0.57901230  0.08885827  1  0  -0.095336  -0.171083  0  3.986268  0
C  C49  1  0.50721411  0.66910695  0.00770849  1  0  0.091036  0.147232  0  4.052984  0
C  C50  1  0.62772075  0.87222253  0.56825642  1  0  0.090823  0.160877  0  4.032172  0
C  C51  1  0.70178511  0.86479136  0.46551791  1  0  -0.090889  -0.154145  0  3.961332  0
C  C52  1  0.67506241  0.93018418  0.36274428  1  0  -0.092985  -0.081708  0  4.034793  0
C  C53  1  0.57721373  0.00114705  0.36063152  1  0  -0.099771  -0.094071  0  4.051076  0
C  C54  1  0.50010857  0.00631716  0.46020338  1  0  -0.103634  -0.178439  0  4.011032  0
C  C55  1  0.52462113  0.93944946  0.56392601  1  0  0.085404  0.15008  0  4.020633  0
C  C56  1  0.49985419  0.32168563  0.72028533  1  0  0.214477  0.257565  0  4.080168  0
C  C57  1  0.63685849  0.31379901  0.78806799  1  0  0.209672  0.231217  0  4.108161  0
C  C58  1  0.78980169  0.25009393  0.90501991  1  0  0.080895  0.144307  0  4.060955  0
C  C59  1  0.86005599  0.19225868  0.99312326  1  0  -0.097756  -0.156116  0  3.98987  0
C  C60  1  0.01680837  0.22737725  0.99839951  1  0  -0.107511  -0.100635  0  4.036512  0
C  C61  1  0.10255628  0.31498228  0.91665958  1  0  -0.098684  -0.076699  0  4.028661  0
C  C62  1  0.03665483  0.37535277  0.82938601  1  0  -0.10484  -0.17907  0  4.011654  0
C  C63  1  0.88018233  0.34289434  0.82606568  1  0  0.090607  0.152005  0  4.009668  0
C  C64  1  0.35789594  0.40507677  0.60945221  1  0  0.080023  0.148345  0  4.028384  0
C  C65  1  0.29682140  0.48464405  0.53969800  1  0  -0.106499  -0.175474  0  3.993343  0
C  C66  1  0.13266140  0.40704878  0.48130691  1  0  -0.103309  -0.091314  0  4.028796  0
C  C67  1  0.03084093  0.25489101  0.49233559  1  0  -0.101464  -0.091228  0  4.036174  0
C  C68  1  0.09012825  0.17279717  0.55826264  1  0  -0.099954  -0.169091  0  4.011898  0
C  C69  1  0.25516019  0.24867084  0.61554554  1  0  0.081173  0.144462  0  4.047375  0
N  N70  1  0.84396785  0.59748406  0.58559024  1  0  -0.348261  -0.425986  0  3.302814  0
N  N71  1  0.08302936  0.79654419  0.57269402  1  0  -0.369454  -0.404999  0  3.441982  0
N  N72  1  0.17632467  0.92357028  0.84814414  1  0  -0.367964  -0.414278  0  3.440166  0
N  N73  1  0.92042153  0.77661133  0.86283586  1  0  -0.362498  -0.372822  0  3.475824  0
N  N74  1  0.62884769  0.81815128  0.68134253  1  0  -0.359848  -0.384458  0  3.457628  0
N  N75  1  0.46136686  0.92207705  0.67320739  1  0  -0.359513  -0.372745  0  3.503667  0
N  N76  1  0.39533770  0.80338459  0.92753883  1  0  -0.372648  -0.28265  0  3.585212  0
N  N77  1  0.56917847  0.71803580  0.90337652  1  0  -0.350816  -0.379539  0  3.442336  0
N  N78  1  0.51266925  0.44911649  0.67854674  1  0  -0.364701  -0.387105  0  3.49218  0
N  N79  1  0.34895420  0.19794575  0.68497548  1  0  -0.368173  -0.380119  0  3.513186  0
N  N80  1  0.63785865  0.23403843  0.87912173  1  0  -0.349665  -0.430156  0  3.22838  0
N  N81  1  0.77891107  0.38202786  0.75339839  1  0  -0.38047  -0.304085  0  3.607773  0
