# generated using pymatgen
data_CrH8C17(O2F3)2
_symmetry_space_group_name_H-M   'P 1'
_cell_length_a   6.94281239
_cell_length_b   12.43300802
_cell_length_c   20.57800000
_cell_angle_alpha   90.29697789
_cell_angle_beta   90.00000000
_cell_angle_gamma   90.00000000
_symmetry_Int_Tables_number   1
_chemical_formula_structural   CrH8C17(O2F3)2
_chemical_formula_sum   'Cr4 H32 C68 O16 F24'
_cell_volume   1776.26996734
_cell_formula_units_Z   4
loop_
 _symmetry_equiv_pos_site_id
 _symmetry_equiv_pos_as_xyz
  1  'x, y, z'
loop_
 _atom_site_type_symbol
 _atom_site_label
 _atom_site_symmetry_multiplicity
 _atom_site_fract_x
 _atom_site_fract_y
 _atom_site_fract_z
 _atom_site_occupancy
 _atom_site_pbe_bader_charge
 _atom_site_pbe_bader_spin_density
 _atom_site_pbe_cm5_charge
 _atom_site_pbe_ddec_charge
 _atom_site_pbe_ddec_spin_density
 _atom_site_pbe_ddec_sum_bond_order
 _atom_site_pbe_magmom
Cr  Cr0  1  0.39335789  0.53608986  0.01635908  1  1.307739  0.000477  0.779123  0.926061  0.000505  3.279287  0.0
Cr  Cr1  1  0.39336653  0.96391243  0.48364260  1  1.305983  0.00198  0.779087  0.926074  0.002092  3.279061  0.002
Cr  Cr2  1  0.60663601  0.46392051  0.98364790  1  1.305924  -0.000477  0.778952  0.925979  -0.000505  3.279196  0.0
Cr  Cr3  1  0.60664897  0.03608347  0.51635462  1  1.307789  -0.001979  0.779002  0.926198  -0.002092  3.278636  -0.002
H  H4  1  0.96722763  0.71157268  0.89009067  1  0.099464  -2e-06  0.109747  0.117036  -1e-06  1.002679  0.0
H  H5  1  0.96720747  0.78842961  0.60990566  1  0.09972  -2e-06  0.109773  0.116997  -1e-06  1.002543  0.0
H  H6  1  0.03275474  0.28843206  0.10991678  1  0.099331  2e-06  0.109809  0.117158  1e-06  1.002428  0.0
H  H7  1  0.03273313  0.21157192  0.39008234  1  0.099119  2e-06  0.109795  0.117166  2e-06  1.002357  0.0
H  H8  1  0.09279957  0.88424198  0.84861907  1  0.078045  -4e-06  0.104262  0.112341  -3e-06  0.99507  0.0
H  H9  1  0.09278661  0.61576352  0.65138262  1  0.078142  -5e-06  0.104254  0.11234  -3e-06  0.995092  0.0
H  H10  1  0.90720585  0.11575713  0.15138642  1  0.077999  4e-06  0.104267  0.112318  3e-06  0.995133  0.0
H  H11  1  0.90719288  0.38424765  0.34861367  1  0.077884  5e-06  0.104294  0.112407  3e-06  0.995228  0.0
H  H12  1  0.57923501  0.04438085  0.91731315  1  0.103848  -1e-06  0.092649  0.101938  -1e-06  1.054168  0.0
H  H13  1  0.57923069  0.45561268  0.58269030  1  0.103705  -0.0  0.092649  0.101948  -0.0  1.054166  0.0
H  H14  1  0.42077473  0.95563275  0.08268558  1  0.103625  1e-06  0.092665  0.101947  1e-06  1.054076  0.0
H  H15  1  0.42076897  0.54436552  0.41731658  1  0.103761  0.0  0.092683  0.101977  0.0  1.054062  0.0
H  H16  1  0.45194797  0.87142512  0.95546395  1  0.127431  -1e-06  0.106015  0.11882  -0.0  0.993431  0.0
H  H17  1  0.45193645  0.62856350  0.54453623  1  0.127424  -2e-06  0.106017  0.118762  -1e-06  0.993521  0.0
H  H18  1  0.54804160  0.12859490  0.04453480  1  0.127626  1e-06  0.106059  0.118868  0.0  0.993411  0.0
H  H19  1  0.54803008  0.37139782  0.45546623  1  0.127516  2e-06  0.106062  0.118905  1e-06  0.993371  0.0
H  H20  1  0.45562372  0.13630513  0.71221421  1  0.089773  -1e-06  0.10129  0.111275  -0.0  1.013416  0.0
H  H21  1  0.45562948  0.36369644  0.78778199  1  0.089667  -2e-06  0.101275  0.111287  -1e-06  1.013502  0.0
H  H22  1  0.54436874  0.86368675  0.28776891  1  0.089164  1e-06  0.101328  0.111406  0.0  1.013374  0.0
H  H23  1  0.54437018  0.63631394  0.21222743  1  0.089174  2e-06  0.101275  0.111311  1e-06  1.013419  0.0
H  H24  1  0.80864780  0.98028439  0.75142494  1  0.083829  -3e-06  0.104354  0.113183  -2e-06  0.992323  0.0
H  H25  1  0.80865789  0.51971709  0.74857674  1  0.083942  -4e-06  0.104389  0.113209  -3e-06  0.992321  0.0
H  H26  1  0.19135329  0.01971392  0.24857860  1  0.083859  3e-06  0.104375  0.113223  2e-06  0.992332  0.0
H  H27  1  0.19135185  0.48028765  0.25142294  1  0.083877  4e-06  0.104363  0.113237  3e-06  0.992326  0.0
H  H28  1  0.96004034  0.96246385  0.64311420  1  0.106638  -1e-06  0.106751  0.115892  -1e-06  1.027531  0.0
H  H29  1  0.96005475  0.53753925  0.85688846  1  0.106369  -2e-06  0.106714  0.115894  -1e-06  1.027422  0.0
H  H30  1  0.03992474  0.03753205  0.35688836  1  0.106421  1e-06  0.106703  0.115895  1e-06  1.027566  0.0
H  H31  1  0.03993627  0.46247032  0.14311221  1  0.106412  2e-06  0.106712  0.115922  1e-06  1.027499  0.0
H  H32  1  0.30127704  0.16102353  0.81875483  1  0.091885  -1e-06  0.09179  0.098218  -1e-06  1.057976  0.0
H  H33  1  0.30127993  0.33897643  0.68124427  1  0.091886  -1e-06  0.091783  0.098149  -0.0  1.057989  0.0
H  H34  1  0.69874133  0.83897397  0.18123559  1  0.09176  1e-06  0.091804  0.098156  1e-06  1.057999  0.0
H  H35  1  0.69873845  0.66102752  0.31876269  1  0.091739  1e-06  0.09182  0.098164  0.0  1.057991  0.0
C  C36  1  0.62793141  0.67826493  0.95167166  1  1.497798  -1e-06  0.208321  0.544176  -1e-06  4.148374  0.0
C  C37  1  0.62790981  0.82173013  0.54832611  1  1.496362  -1e-06  0.208342  0.544334  -1e-06  4.148055  0.0
C  C38  1  0.37206536  0.32174625  0.04833289  1  1.497692  1e-06  0.208242  0.544019  1e-06  4.148368  0.0
C  C39  1  0.37204952  0.17825049  0.45166377  1  1.497767  1e-06  0.208328  0.54401  1e-06  4.148338  0.0
C  C40  1  0.70059793  0.78019658  0.92495520  1  -0.059514  -3e-06  -0.01859  -0.032589  -2e-06  4.001271  0.0
C  C41  1  0.70058353  0.71980008  0.57504306  1  -0.057522  -4e-06  -0.018536  -0.032521  -3e-06  4.001218  0.0
C  C42  1  0.29939020  0.21981460  0.07504935  1  -0.05942  3e-06  -0.018593  -0.032352  2e-06  4.000951  0.0
C  C43  1  0.29937580  0.28018214  0.42495071  1  -0.059668  5e-06  -0.018483  -0.032087  3e-06  4.000974  0.0
C  C44  1  0.88113716  0.78448844  0.89444041  1  -0.050558  -4e-06  -0.079018  -0.075839  -3e-06  3.943035  0.0
C  C45  1  0.88111988  0.71550983  0.60555737  1  -0.051344  -5e-06  -0.079008  -0.075726  -4e-06  3.942891  0.0
C  C46  1  0.11885385  0.21551711  0.10556364  1  -0.050276  4e-06  -0.079058  -0.076125  3e-06  3.94294  0.0
C  C47  1  0.11884089  0.28448204  0.39443692  1  -0.05004  5e-06  -0.079113  -0.076239  3e-06  3.942908  0.0
C  C48  1  0.95187074  0.88190865  0.87185649  1  0.021115  -3e-06  -0.08941  -0.12431  -3e-06  3.970083  0.0
C  C49  1  0.95186066  0.61809123  0.62814421  1  0.021579  -4e-06  -0.089406  -0.12436  -3e-06  3.970073  0.0
C  C50  1  0.04812747  0.11809368  0.12814707  1  0.021151  3e-06  -0.089399  -0.124229  3e-06  3.970102  0.0
C  C51  1  0.04811595  0.38190628  0.37185398  1  0.021005  4e-06  -0.089442  -0.124361  3e-06  3.970209  0.0
C  C52  1  0.84555792  0.97721349  0.87976794  1  -0.053599  -2e-06  -0.015764  0.08467  -1e-06  3.945934  0.0
C  C53  1  0.84554640  0.52278719  0.62023277  1  -0.053634  -2e-06  -0.015777  0.084692  -1e-06  3.945895  0.0
C  C54  1  0.15445326  0.02279286  0.12023272  1  -0.053587  2e-06  -0.015808  0.084681  1e-06  3.945939  0.0
C  C55  1  0.15444318  0.47720790  0.37976687  1  -0.053498  2e-06  -0.01578  0.084838  1e-06  3.945869  0.0
C  C56  1  0.66479256  0.97230713  0.90984587  1  -0.008961  -2e-06  -0.099661  -0.142997  -1e-06  3.990362  0.0
C  C57  1  0.66478391  0.52768792  0.59015627  1  -0.008717  -2e-06  -0.09969  -0.143007  -1e-06  3.990274  0.0
C  C58  1  0.33521574  0.02770324  0.09015528  1  -0.009088  2e-06  -0.09971  -0.143106  1e-06  3.990339  0.0
C  C59  1  0.33520278  0.47229430  0.40984625  1  -0.00908  2e-06  -0.09972  -0.143123  1e-06  3.990256  0.0
C  C60  1  0.59223839  0.87470032  0.93180330  1  -0.048023  -3e-06  -0.082958  -0.079067  -2e-06  3.945353  0.0
C  C61  1  0.59222542  0.62529312  0.56819641  1  -0.048524  -4e-06  -0.082965  -0.079063  -3e-06  3.945222  0.0
C  C62  1  0.40775839  0.12531327  0.06819786  1  -0.048124  3e-06  -0.08298  -0.079108  2e-06  3.945007  0.0
C  C63  1  0.40774255  0.37468186  0.43180268  1  -0.04763  4e-06  -0.083012  -0.079296  3e-06  3.945211  0.0
C  C64  1  0.94053528  0.08357060  0.85914693  1  0.051836  -1e-06  -0.010481  -0.27305  -1e-06  3.856704  0.0
C  C65  1  0.94053528  0.41643016  0.64085460  1  0.051945  -1e-06  -0.010515  -0.273105  -0.0  3.856644  0.0
C  C66  1  0.05948310  0.91643334  0.14085226  1  0.052449  1e-06  -0.010391  -0.272941  1e-06  3.8564  0.0
C  C67  1  0.05947878  0.58357056  0.35914700  1  0.051861  1e-06  -0.010519  -0.273332  0.0  3.856886  0.0
C  C68  1  0.07801882  0.11567187  0.91617719  1  1.703332  -1e-06  0.304303  0.675116  -1e-06  3.965516  0.0
C  C69  1  0.07801738  0.38433291  0.58382338  1  1.703409  -0.0  0.304226  0.674868  -0.0  3.965887  0.0
C  C70  1  0.92200965  0.88433046  0.08381956  1  1.702993  1e-06  0.304062  0.67494  1e-06  3.965854  0.0
C  C71  1  0.92200533  0.61567022  0.41617969  1  1.703004  0.0  0.304201  0.675243  0.0  3.965373  0.0
C  C72  1  0.79324627  0.17711077  0.85056971  1  1.722391  -1e-06  0.303491  0.672255  -1e-06  3.97552  0.0
C  C73  1  0.79324915  0.32289080  0.64943134  1  1.722027  -0.0  0.303497  0.672415  -0.0  3.975407  0.0
C  C74  1  0.20677644  0.82289478  0.14943094  1  1.721858  1e-06  0.30344  0.672329  1e-06  3.975332  0.0
C  C75  1  0.20677211  0.67710751  0.35057026  1  1.721963  0.0  0.303434  0.672358  0.0  3.975524  0.0
C  C76  1  0.31730657  0.03283079  0.60805840  1  1.451276  -1e-06  0.208163  0.548254  -1e-06  4.141259  0.0
C  C77  1  0.31732530  0.46716756  0.89193924  1  1.451265  -2e-06  0.20813  0.548276  -2e-06  4.140974  0.0
C  C78  1  0.68266428  0.96716028  0.39193200  1  1.450327  1e-06  0.208081  0.548352  1e-06  4.140909  0.0
C  C79  1  0.68267724  0.53283718  0.10806675  1  1.449854  2e-06  0.208095  0.54831  2e-06  4.14088  0.0
C  C80  1  0.22005060  0.04649943  0.67123222  1  -0.030564  -2e-06  -0.01828  -0.029902  -1e-06  3.991687  0.0
C  C81  1  0.22006212  0.45350134  0.82876640  1  -0.030458  -4e-06  -0.018233  -0.029963  -2e-06  3.991787  0.0
C  C82  1  0.77993466  0.95349325  0.32876110  1  -0.029158  2e-06  -0.018254  -0.029911  1e-06  3.991597  0.0
C  C83  1  0.77994186  0.54650582  0.17123863  1  -0.029184  4e-06  -0.018273  -0.029973  3e-06  3.991739  0.0
C  C84  1  0.31358618  0.10253972  0.72122014  1  0.07671  -2e-06  -0.083594  -0.074965  -2e-06  3.945509  0.0
C  C85  1  0.31359770  0.39746105  0.77877702  1  0.076685  -4e-06  -0.083557  -0.074961  -3e-06  3.945677  0.0
C  C86  1  0.68640484  0.89745618  0.27877028  1  0.07717  2e-06  -0.083597  -0.075165  2e-06  3.945816  0.0
C  C87  1  0.68640772  0.60254611  0.22122849  1  0.07706  4e-06  -0.083464  -0.074878  3e-06  3.945538  0.0
C  C88  1  0.04488239  0.07051807  0.79361232  1  -0.10326  -2e-06  -0.015936  0.084633  -1e-06  3.944918  0.0
C  C89  1  0.04489103  0.42948349  0.70638873  1  -0.103241  -2e-06  -0.015979  0.084591  -1e-06  3.944729  0.0
C  C90  1  0.95512447  0.92948184  0.20638539  1  -0.103679  2e-06  -0.015846  0.084645  1e-06  3.944939  0.0
C  C91  1  0.95512591  0.57052045  0.29361435  1  -0.103465  2e-06  -0.01582  0.084748  1e-06  3.944984  0.0
C  C92  1  0.95077897  0.01476493  0.74318551  1  -0.046744  -2e-06  -0.089798  -0.123718  -2e-06  3.962452  0.0
C  C93  1  0.95078761  0.48523664  0.75681602  1  -0.046758  -3e-06  -0.089897  -0.123914  -3e-06  3.962636  0.0
C  C94  1  0.04922069  0.98523338  0.25681560  1  -0.046738  2e-06  -0.089915  -0.123923  2e-06  3.962491  0.0
C  C95  1  0.04922357  0.51476891  0.24318511  1  -0.046768  3e-06  -0.08989  -0.123923  3e-06  3.962528  0.0
C  C96  1  0.03613809  0.00345134  0.68239394  1  0.016948  -3e-06  -0.079691  -0.079425  -2e-06  3.935407  0.0
C  C97  1  0.03615106  0.49654942  0.81760565  1  0.017278  -5e-06  -0.079644  -0.07928  -3e-06  3.935276  0.0
C  C98  1  0.96384572  0.99654375  0.31760376  1  0.017423  3e-06  -0.079655  -0.079339  2e-06  3.935396  0.0
C  C99  1  0.96385004  0.50345854  0.18239598  1  0.017388  5e-06  -0.07966  -0.079387  3e-06  3.93555  0.0
C  C100  1  0.22605825  0.11538634  0.78154368  1  -0.031667  -3e-06  -0.099257  -0.139937  -2e-06  3.991656  0.0
C  C101  1  0.22606545  0.38461603  0.71845640  1  -0.031628  -2e-06  -0.099162  -0.139705  -2e-06  3.991401  0.0
C  C102  1  0.77394717  0.88461278  0.21845015  1  -0.031513  2e-06  -0.099299  -0.139773  2e-06  3.991795  0.0
C  C103  1  0.77395005  0.61539032  0.28155008  1  -0.031441  3e-06  -0.099396  -0.139953  2e-06  3.991777  0.0
O  O104  1  0.72557340  0.59094458  0.94408797  1  -1.124289  -2e-06  -0.323751  -0.515981  -1e-06  2.365841  0.0
O  O105  1  0.72555900  0.90904726  0.55591125  1  -1.124363  -5e-06  -0.323828  -0.516199  1e-06  2.365368  0.0
O  O106  1  0.27441761  0.40906419  0.05591901  1  -1.124335  2e-06  -0.323857  -0.516041  0.0  2.365864  0.0
O  O107  1  0.27441041  0.09093014  0.44407619  1  -1.124385  5e-06  -0.323902  -0.516071  -1e-06  2.36573  0.0
O  O108  1  0.23247928  0.98283731  0.56119628  1  -1.117621  1e-06  -0.324515  -0.510182  -3e-06  2.338586  0.0
O  O109  1  0.23249800  0.51716257  0.93880151  1  -1.117362  -2e-06  -0.324584  -0.510227  -2e-06  2.338568  0.0
O  O110  1  0.76748581  0.01715457  0.43879461  1  -1.117406  -1e-06  -0.324631  -0.510347  3e-06  2.338678  0.0
O  O111  1  0.76749733  0.48284459  0.06120254  1  -1.117092  2e-06  -0.324569  -0.510217  2e-06  2.338705  0.0
O  O112  1  0.46782771  0.67728768  0.98319353  1  -1.119723  -1e-06  -0.329052  -0.51762  -1e-06  2.378801  0.0
O  O113  1  0.46780466  0.82270979  0.51680571  1  -1.119839  -2e-06  -0.329024  -0.517649  -4e-06  2.37885  0.0
O  O114  1  0.53217051  0.32272672  0.01681201  1  -1.119639  1e-06  -0.328901  -0.517469  1e-06  2.378813  0.0
O  O115  1  0.53215034  0.17727324  0.48318661  1  -1.119797  2e-06  -0.328955  -0.517551  4e-06  2.378846  0.0
O  O116  1  0.48937805  0.06975558  0.60058000  1  -1.119335  -3e-06  -0.332338  -0.527715  1e-06  2.372073  0.0
O  O117  1  0.48939678  0.43024438  0.89942056  1  -1.119581  -4e-06  -0.332321  -0.527735  -1e-06  2.372002  0.0
O  O118  1  0.51059568  0.93023228  0.39941136  1  -1.119778  3e-06  -0.332186  -0.527698  -1e-06  2.371964  0.0
O  O119  1  0.51060288  0.56976438  0.10058885  1  -1.119577  4e-06  -0.332227  -0.5277  1e-06  2.371939  0.0
F  F120  1  0.98608310  0.11066738  0.97418902  1  -0.615023  -0.0  -0.090793  -0.197724  -0.0  1.396356  0.0
F  F121  1  0.98608166  0.38933660  0.52581203  1  -0.614891  2e-06  -0.09078  -0.197654  1e-06  1.396463  0.0
F  F122  1  0.01395400  0.88933253  0.02581161  1  -0.614892  0.0  -0.090795  -0.197724  0.0  1.396413  0.0
F  F123  1  0.01395112  0.61066332  0.47418908  1  -0.614864  -2e-06  -0.090839  -0.197783  -1e-06  1.396252  0.0
F  F124  1  0.23125355  0.04729410  0.91932150  1  -0.622462  -2e-06  -0.083647  -0.191912  -1e-06  1.366855  0.0
F  F125  1  0.23124635  0.45271310  0.58067957  1  -0.622508  -1e-06  -0.083584  -0.191835  -0.0  1.367017  0.0
F  F126  1  0.76877779  0.95270823  0.08067234  1  -0.622255  2e-06  -0.083501  -0.191856  1e-06  1.366954  0.0
F  F127  1  0.76877059  0.54729406  0.41932594  1  -0.622307  1e-06  -0.083537  -0.191897  1e-06  1.36681  0.0
F  F128  1  0.15088266  0.21733649  0.91125405  1  -0.610561  -2e-06  -0.0923  -0.19876  -1e-06  1.335377  0.0
F  F129  1  0.15088554  0.28266910  0.58874556  1  -0.610674  1e-06  -0.092274  -0.198678  1e-06  1.335376  0.0
F  F130  1  0.84914292  0.78266665  0.08874173  1  -0.610569  2e-06  -0.092225  -0.198666  1e-06  1.335396  0.0
F  F131  1  0.84914724  0.71733403  0.41125800  1  -0.610373  -1e-06  -0.092255  -0.198717  -1e-06  1.335309  0.0
F  F132  1  0.71180521  0.21096546  0.90728085  1  -0.613286  -2e-06  -0.088743  -0.196281  -1e-06  1.376295  0.0
F  F133  1  0.71180665  0.28903450  0.59272068  1  -0.613267  0.0  -0.088758  -0.196333  0.0  1.376317  0.0
F  F134  1  0.28822758  0.78904170  0.09272175  1  -0.613373  2e-06  -0.088737  -0.196276  1e-06  1.376144  0.0
F  F135  1  0.28821750  0.71096140  0.40727993  1  -0.613419  -0.0  -0.088689  -0.196284  -0.0  1.37633  0.0
F  F136  1  0.87592890  0.26452683  0.82307935  1  -0.622798  -3e-06  -0.091242  -0.198155  -2e-06  1.400644  0.0
F  F137  1  0.87593178  0.23547474  0.67692170  1  -0.623228  -1e-06  -0.091254  -0.1982  -0.0  1.400638  0.0
F  F138  1  0.12409668  0.73547711  0.17691935  1  -0.623016  3e-06  -0.091227  -0.198214  2e-06  1.400688  0.0
F  F139  1  0.12408948  0.76452277  0.32308038  1  -0.623373  1e-06  -0.091232  -0.198195  0.0  1.400697  0.0
F  F140  1  0.64662269  0.14593366  0.81054643  1  -0.63118  -3e-06  -0.081341  -0.193732  -1e-06  1.389408  0.0
F  F141  1  0.64662413  0.35406710  0.68945559  1  -0.630779  -2e-06  -0.081326  -0.193769  -1e-06  1.389298  0.0
F  F142  1  0.35339281  0.85407511  0.18945617  1  -0.630498  3e-06  -0.081317  -0.193732  1e-06  1.389404  0.0
F  F143  1  0.35339137  0.64592799  0.31054600  1  -0.630592  2e-06  -0.081323  -0.193706  1e-06  1.389253  0.0
