# generated using pymatgen
data_CuH16C15S2(NO3)2
_symmetry_space_group_name_H-M   'P 1'
_cell_length_a   4.79361780
_cell_length_b   15.29238453
_cell_length_c   25.60672086
_cell_angle_alpha   89.99989045
_cell_angle_beta   90.00005041
_cell_angle_gamma   92.61509298
_symmetry_Int_Tables_number   1
_chemical_formula_structural   CuH16C15S2(NO3)2
_chemical_formula_sum   'Cu4 H64 C60 S8 N8 O24'
_cell_volume   1875.16749228
_cell_formula_units_Z   4
loop_
 _symmetry_equiv_pos_site_id
 _symmetry_equiv_pos_as_xyz
  1  'x, y, z'
loop_
 _atom_site_type_symbol
 _atom_site_label
 _atom_site_symmetry_multiplicity
 _atom_site_fract_x
 _atom_site_fract_y
 _atom_site_fract_z
 _atom_site_occupancy
 _atom_site_pbe_bader_charge
 _atom_site_pbe_bader_spin_density
 _atom_site_pbe_cm5_charge
 _atom_site_pbe_ddec_charge
 _atom_site_pbe_ddec_spin_density
 _atom_site_pbe_ddec_sum_bond_order
 _atom_site_pbe_magmom
Cu  Cu0  1  0.72581601  0.67113354  0.82550327  1  1.078456  0.56748  0.74594  0.781527  0.729225  2.194774  0.567
Cu  Cu1  1  0.77418372  0.82886649  0.32550242  1  1.07835  0.567482  0.745939  0.781533  0.72923  2.194809  0.567
Cu  Cu2  1  0.27418775  0.32886590  0.17449816  1  1.078333  0.567475  0.745954  0.781608  0.729221  2.194692  0.567
Cu  Cu3  1  0.22581405  0.17113491  0.67449706  1  1.07853  0.56747  0.745993  0.781622  0.72921  2.194683  0.567
H  H4  1  0.86055933  0.58258814  0.72557956  1  0.116634  0.001686  0.116812  0.093215  0.000728  1.021819  0.001
H  H5  1  0.63943981  0.91741090  0.22557781  1  0.116645  0.001686  0.116825  0.093239  0.000728  1.021833  0.001
H  H6  1  0.13944670  0.41741261  0.27442187  1  0.116657  0.001686  0.116822  0.093252  0.000728  1.021832  0.001
H  H7  1  0.36054881  0.08258461  0.77442011  1  0.116577  0.001686  0.116779  0.093164  0.000729  1.021856  0.001
H  H8  1  0.69424889  0.58197413  0.63465537  1  0.153326  0.000881  0.104046  0.11903  0.000445  1.057507  0.001
H  H9  1  0.80574578  0.91802585  0.13465325  1  0.153257  0.000881  0.104016  0.118965  0.000445  1.057559  0.001
H  H10  1  0.30574852  0.41802465  0.36534645  1  0.153294  0.000881  0.104031  0.118994  0.000445  1.057517  0.001
H  H11  1  0.19424746  0.08197293  0.86534427  1  0.153305  0.000881  0.104012  0.118975  0.000445  1.057583  0.001
H  H12  1  0.14595487  0.78949245  0.67986561  1  0.140852  0.000766  0.106451  0.125406  0.000429  1.042009  0.0
H  H13  1  0.35404060  0.71050710  0.17986451  1  0.140861  0.000766  0.106466  0.125437  0.000429  1.041963  0.0
H  H14  1  0.85404027  0.21050502  0.32013544  1  0.140888  0.000766  0.106471  0.125468  0.000429  1.041979  0.0
H  H15  1  0.64595899  0.28949234  0.82013379  1  0.140867  0.000766  0.106424  0.125367  0.000429  1.042031  0.0
H  H16  1  0.32724612  0.77639588  0.76849705  1  0.183251  0.001483  0.12119  0.107052  0.000581  1.039539  0.001
H  H17  1  0.17274746  0.72360208  0.26849630  1  0.183145  0.001483  0.121167  0.10702  0.00058  1.039559  0.001
H  H18  1  0.67274476  0.22360094  0.23150478  1  0.182888  0.001483  0.121163  0.107013  0.00058  1.039578  0.001
H  H19  1  0.82724986  0.27639605  0.73150240  1  0.183248  0.001483  0.12118  0.107014  0.00058  1.039592  0.001
H  H20  1  0.92932765  0.76042788  0.54413804  1  0.117264  3e-05  0.104843  0.129111  3e-06  1.010409  0.0
H  H21  1  0.57067934  0.73957370  0.04413765  1  0.117246  3e-05  0.104833  0.129068  3e-06  1.010444  0.0
H  H22  1  0.07067838  0.23957287  0.45586261  1  0.117237  3e-05  0.104853  0.129121  3e-06  1.010382  0.0
H  H23  1  0.42933077  0.26042640  0.95586222  1  0.117294  3e-05  0.104843  0.1291  3e-06  1.010423  0.0
H  H24  1  0.95960091  0.79094257  0.61050771  1  0.161232  3.1e-05  0.113086  0.150178  8e-06  1.005658  0.0
H  H25  1  0.54040844  0.70905881  0.11050735  1  0.161198  3.1e-05  0.113101  0.150186  8e-06  1.005701  0.0
H  H26  1  0.04040503  0.20905753  0.38949372  1  0.161269  3.1e-05  0.113101  0.150219  8e-06  1.005632  0.0
H  H27  1  0.45959976  0.29094260  0.88949252  1  0.161247  3.1e-05  0.113095  0.150226  8e-06  1.005636  0.0
H  H28  1  0.92231745  0.93789975  0.41639140  1  0.140055  0.002245  0.115668  0.092191  0.001061  1.029951  0.002
H  H29  1  0.57768267  0.56210000  0.91639235  1  0.140153  0.002245  0.115655  0.092153  0.001061  1.029912  0.002
H  H30  1  0.07768477  0.06210361  0.58360925  1  0.140046  0.002245  0.115632  0.092124  0.001061  1.030047  0.002
H  H31  1  0.42231674  0.43789813  0.08360869  1  0.140052  0.002245  0.11566  0.092179  0.001061  1.029972  0.002
H  H32  1  0.74738441  0.95565861  0.50780292  1  0.085211  0.001155  0.100674  0.113264  0.000594  1.023416  0.001
H  H33  1  0.75262433  0.54434177  0.00780356  1  0.085229  0.001155  0.10067  0.113206  0.000594  1.023421  0.001
H  H34  1  0.25260928  0.04434344  0.49219773  1  0.085255  0.001155  0.100655  0.113193  0.000594  1.023506  0.001
H  H35  1  0.24739195  0.45565768  0.99219670  1  0.085143  0.001155  0.100661  0.113257  0.000594  1.023424  0.001
H  H36  1  0.16382449  0.73595889  0.47702319  1  0.094382  0.001055  0.109816  0.128717  0.000543  0.995647  0.001
H  H37  1  0.33617885  0.76404234  0.97702317  1  0.09435  0.001056  0.10983  0.128687  0.000543  0.995651  0.001
H  H38  1  0.83617537  0.26404251  0.52297824  1  0.094417  0.001055  0.109809  0.128762  0.000543  0.995531  0.001
H  H39  1  0.66383108  0.23595645  0.02297709  1  0.094374  0.001055  0.109805  0.128708  0.000543  0.995541  0.001
H  H40  1  0.35709457  0.72967181  0.38869913  1  0.185482  0.002178  0.123972  0.103674  0.001054  1.024891  0.001
H  H41  1  0.14290831  0.77032904  0.88869907  1  0.18548  0.002178  0.123986  0.103701  0.001054  1.024878  0.001
H  H42  1  0.64290121  0.27033024  0.61130152  1  0.185649  0.002178  0.124014  0.103734  0.001054  1.024866  0.001
H  H43  1  0.85710171  0.22967040  0.11130080  1  0.185629  0.002178  0.123989  0.103714  0.001054  1.024859  0.001
H  H44  1  0.79180236  0.97452139  0.87462614  1  0.072874  0.00076  0.106999  0.099571  0.000321  0.975808  0.0
H  H45  1  0.70819141  0.52547914  0.37462250  1  0.072852  0.00076  0.107029  0.099663  0.000321  0.975645  0.0
H  H46  1  0.20818698  0.02547935  0.12537568  1  0.072791  0.00076  0.107031  0.099647  0.000321  0.975706  0.0
H  H47  1  0.29180246  0.47452422  0.62537307  1  0.072878  0.000759  0.107001  0.099577  0.000321  0.975715  0.0
H  H48  1  0.67155935  0.98567949  0.80986149  1  0.043655  0.001168  0.090836  0.061533  0.000565  1.012391  0.0
H  H49  1  0.82842190  0.51432320  0.30985710  1  0.043648  0.001168  0.090824  0.061505  0.000564  1.012337  0.0
H  H50  1  0.32843198  0.01432060  0.19014034  1  0.043586  0.001168  0.090797  0.061453  0.000565  1.01247  0.0
H  H51  1  0.17155772  0.48568277  0.69013691  1  0.043669  0.001168  0.090833  0.061483  0.000564  1.012494  0.0
H  H52  1  0.07015390  0.39898854  0.83253980  1  0.067785  -6.1e-05  0.097599  0.079222  -8.6e-05  1.037125  0.0
H  H53  1  0.42984830  0.10100981  0.33254041  1  0.067778  -6.1e-05  0.097591  0.079247  -8.6e-05  1.037157  0.0
H  H54  1  0.92984796  0.60101221  0.16745890  1  0.067717  -6.1e-05  0.097601  0.079246  -8.6e-05  1.037087  0.0
H  H55  1  0.57015919  0.89898636  0.66745985  1  0.067784  -6.1e-05  0.097591  0.079226  -8.6e-05  1.037123  0.0
H  H56  1  0.22905126  0.43360117  0.77308158  1  0.064505  1.1e-05  0.09883  0.084116  -9.7e-05  0.996324  0.0
H  H57  1  0.27095512  0.06639933  0.27308103  1  0.064266  1.2e-05  0.098849  0.084186  -9.6e-05  0.996255  0.0
H  H58  1  0.77095277  0.56640023  0.22691829  1  0.064525  1.2e-05  0.098818  0.084113  -9.6e-05  0.996341  0.0
H  H59  1  0.72905064  0.93359946  0.72691845  1  0.064504  1.2e-05  0.098824  0.084107  -9.6e-05  0.996332  0.0
H  H60  1  0.63028108  0.47214507  0.82678077  1  0.635993  2.7e-05  0.289305  0.333085  0.000148  1.005138  0.0
H  H61  1  0.86972066  0.02785489  0.32677911  1  0.635951  2.7e-05  0.289318  0.333111  0.000148  1.005061  0.0
H  H62  1  0.36972068  0.52785502  0.17321910  1  0.63601  2.7e-05  0.289292  0.333113  0.000148  1.005105  0.0
H  H63  1  0.13028301  0.97214390  0.67321998  1  0.635997  2.7e-05  0.28932  0.333157  0.000148  1.004992  0.0
H  H64  1  0.24307427  0.91290135  0.84308402  1  0.636959  7.6e-05  0.285529  0.33313  0.000208  1.009882  0.0
H  H65  1  0.25691581  0.58709899  0.34308032  1  0.636813  7.7e-05  0.285499  0.333084  0.000207  1.009921  0.0
H  H66  1  0.75691706  0.08709874  0.15691663  1  0.636973  7.6e-05  0.285547  0.333144  0.000207  1.009853  0.0
H  H67  1  0.74307797  0.41290372  0.65691447  1  0.637036  7.6e-05  0.285514  0.333099  0.000207  1.009934  0.0
C  C68  1  0.70383919  0.62752692  0.71330228  1  0.449546  -5e-05  0.04299  0.103835  -0.000361  3.940357  0.0
C  C69  1  0.79615363  0.87247215  0.21329865  1  0.449224  -4.8e-05  0.043028  0.103835  -0.000359  3.940544  0.0
C  C70  1  0.29615604  0.37247121  0.28669993  1  0.449308  -4.9e-05  0.043009  0.103804  -0.00036  3.940587  0.0
C  C71  1  0.20383516  0.12752466  0.78669732  1  0.44972  -4.9e-05  0.043024  0.103922  -0.00036  3.940311  0.0
C  C72  1  0.60781669  0.62788573  0.66226137  1  -0.020306  0.005372  -0.094536  -0.193984  0.003641  3.976641  0.004
C  C73  1  0.89218445  0.87211482  0.16225971  1  -0.02006  0.005371  -0.094536  -0.193953  0.003641  3.97669  0.004
C  C74  1  0.39218290  0.37211371  0.33773967  1  -0.020095  0.005371  -0.094525  -0.193936  0.003641  3.976654  0.004
C  C75  1  0.10781505  0.12788397  0.83773820  1  -0.020433  0.005372  -0.094516  -0.193945  0.003641  3.976644  0.004
C  C76  1  0.39909893  0.68533213  0.64840559  1  -0.165504  -0.003013  0.005783  0.088523  -0.003363  4.039059  -0.002
C  C77  1  0.10089832  0.81466621  0.14840394  1  -0.165507  -0.003013  0.005814  0.088635  -0.003363  4.03886  -0.002
C  C78  1  0.60089631  0.31466600  0.35159624  1  -0.165502  -0.003013  0.005806  0.088627  -0.003363  4.038822  -0.002
C  C79  1  0.89910100  0.18533127  0.85159397  1  -0.165469  -0.003012  0.005836  0.088538  -0.003362  4.038967  -0.002
C  C80  1  0.30230068  0.74139528  0.68709851  1  -0.0288  0.005349  -0.093422  -0.184778  0.003519  3.959533  0.004
C  C81  1  0.19768820  0.75860162  0.18709812  1  -0.028826  0.005349  -0.09348  -0.184843  0.003518  3.959502  0.004
C  C82  1  0.69769002  0.25860022  0.31290331  1  -0.028914  0.005349  -0.093509  -0.184952  0.003518  3.959575  0.004
C  C83  1  0.80230278  0.24139585  0.81290097  1  -0.028828  0.005349  -0.093404  -0.184709  0.003518  3.95947  0.004
C  C84  1  0.40840774  0.73602275  0.73741852  1  0.449096  -0.000808  0.0471  0.103024  -0.001314  3.905756  0.0
C  C85  1  0.09158353  0.76397465  0.23741771  1  0.449123  -0.000807  0.047129  0.103004  -0.001314  3.905879  0.0
C  C86  1  0.59158713  0.26397276  0.26258331  1  0.449799  -0.000808  0.04717  0.103097  -0.001314  3.905841  0.0
C  C87  1  0.90840527  0.23602216  0.76258099  1  0.449129  -0.000808  0.047065  0.102987  -0.001314  3.905857  0.0
C  C88  1  0.07928095  0.77394942  0.57579918  1  -0.256112  0.000242  -0.138295  -0.252744  0.000124  3.923241  0.0
C  C89  1  0.42072687  0.72605243  0.07579886  1  -0.255808  0.000242  -0.138296  -0.252702  0.000125  3.923318  0.0
C  C90  1  0.92072499  0.22605068  0.42420225  1  -0.255872  0.000242  -0.138313  -0.252821  0.000125  3.923237  0.0
C  C91  1  0.57928133  0.27394898  0.92420140  1  -0.256185  0.000242  -0.138306  -0.252809  0.000124  3.923323  0.0
C  C92  1  0.75510782  0.89500551  0.43224701  1  0.442137  -0.000514  0.041571  0.095147  -0.000847  3.944708  0.0
C  C93  1  0.74489454  0.60499485  0.93224794  1  0.442094  -0.000514  0.041595  0.095231  -0.000847  3.944616  0.0
C  C94  1  0.24489594  0.10499393  0.56775364  1  0.442143  -0.000514  0.041602  0.095265  -0.000847  3.944625  0.0
C  C95  1  0.25510958  0.39500721  0.06775349  1  0.442098  -0.000514  0.04159  0.09516  -0.000847  3.944693  0.0
C  C96  1  0.65531802  0.90460778  0.48268610  1  0.022925  0.00591  -0.10147  -0.200814  0.003964  3.996738  0.005
C  C97  1  0.84468882  0.59539307  0.98268705  1  0.02294  0.00591  -0.101427  -0.200656  0.003965  3.996644  0.005
C  C98  1  0.34467976  0.09539362  0.51731416  1  0.022934  0.005909  -0.101429  -0.200737  0.003964  3.996866  0.005
C  C99  1  0.15531721  0.40460768  0.01731438  1  0.022997  0.005909  -0.101427  -0.200759  0.003964  3.996917  0.005
C  C100  1  0.43481195  0.84843624  0.50065757  1  -0.180292  -0.003181  0.000687  0.075018  -0.00355  4.063668  -0.002
C  C101  1  0.06519537  0.65156453  0.00065845  1  -0.180423  -0.00318  0.000607  0.07482  -0.003549  4.06388  -0.002
C  C102  1  0.56518183  0.15156647  0.49934387  1  -0.180395  -0.00318  0.000707  0.07503  -0.003549  4.063705  -0.002
C  C103  1  0.93482300  0.34843492  0.99934299  1  -0.180202  -0.00318  0.000681  0.074938  -0.003549  4.06378  -0.002
C  C104  1  0.33275695  0.78250282  0.46656069  1  0.024798  0.005574  -0.093781  -0.185404  0.003784  3.95898  0.004
C  C105  1  0.16724626  0.71749780  0.96656108  1  0.024684  0.005575  -0.093772  -0.185304  0.003784  3.95895  0.004
C  C106  1  0.66724091  0.21749924  0.53344074  1  0.024809  0.005574  -0.093858  -0.185616  0.003784  3.958919  0.004
C  C107  1  0.83276585  0.28250165  0.03343957  1  0.024845  0.005574  -0.093784  -0.185371  0.003784  3.958886  0.004
C  C108  1  0.44304515  0.77756044  0.41659452  1  0.415405  -0.000774  0.056204  0.124404  -0.001487  3.894244  -0.001
C  C109  1  0.05695775  0.72243967  0.91659528  1  0.415458  -0.000773  0.056193  0.12438  -0.001486  3.894264  -0.001
C  C110  1  0.55695262  0.22244096  0.58340652  1  0.415156  -0.000773  0.056174  0.124461  -0.001486  3.894251  -0.001
C  C111  1  0.94305217  0.27755912  0.08340537  1  0.415098  -0.000772  0.056213  0.124368  -0.001486  3.894293  -0.001
C  C112  1  0.75152906  0.85527409  0.83166405  1  1.555005  -0.000789  0.19941  0.560805  -0.001528  4.201088  -0.003
C  C113  1  0.74846679  0.64472788  0.33166262  1  1.555181  -0.000789  0.19945  0.560818  -0.00153  4.200936  -0.003
C  C114  1  0.24846454  0.14472730  0.16833777  1  1.555053  -0.000788  0.199391  0.560703  -0.001529  4.201242  -0.003
C  C115  1  0.25153152  0.35527745  0.66833608  1  1.555004  -0.000789  0.199396  0.560795  -0.001529  4.200891  -0.003
C  C116  1  0.64551353  0.94532052  0.84568101  1  0.462175  0.012945  -0.080717  -0.061246  0.009223  3.984321  0.01
C  C117  1  0.85448012  0.55468010  0.34567697  1  0.462374  0.012943  -0.080617  -0.061213  0.009222  3.984007  0.01
C  C118  1  0.35447771  0.05467891  0.15432120  1  0.462451  0.012946  -0.080639  -0.06117  0.009224  3.984255  0.01
C  C119  1  0.14551375  0.44532326  0.65431821  1  0.462281  0.012946  -0.080668  -0.061136  0.009223  3.984242  0.01
C  C120  1  0.14096835  0.53834847  0.82527406  1  1.553901  0.000337  0.20304  0.585123  -0.000247  4.157597  -0.001
C  C121  1  0.35903200  0.96165128  0.32527268  1  1.553884  0.000337  0.203099  0.585118  -0.000247  4.157556  -0.001
C  C122  1  0.85902915  0.46165097  0.17472542  1  1.553934  0.000338  0.203103  0.585206  -0.000246  4.157707  -0.001
C  C123  1  0.64097385  0.03834816  0.67472524  1  1.553942  0.000338  0.203166  0.585405  -0.000247  4.157371  -0.001
C  C124  1  0.22929314  0.44475252  0.81580200  1  0.444264  0.008691  -0.084074  -0.070264  0.006231  3.954535  0.007
C  C125  1  0.27070925  0.05524784  0.31580146  1  0.444715  0.00869  -0.084075  -0.070338  0.006231  3.954574  0.007
C  C126  1  0.77070871  0.55524823  0.18419787  1  0.444371  0.008692  -0.084059  -0.07024  0.006232  3.954567  0.007
C  C127  1  0.72929261  0.94475291  0.68419841  1  0.444209  0.008692  -0.084067  -0.070311  0.006232  3.954542  0.007
S  S128  1  0.26588950  0.67509993  0.58498629  1  0.125315  -0.000859  0.035175  0.049705  -0.001135  2.691642  0.0
S  S129  1  0.23411619  0.82490123  0.08498661  1  0.125315  -0.000858  0.035193  0.049672  -0.001133  2.691784  0.0
S  S130  1  0.73412279  0.32490083  0.41501397  1  0.125319  -0.000859  0.035176  0.049669  -0.001134  2.691697  0.0
S  S131  1  0.76588775  0.17509952  0.91501326  1  0.125354  -0.000858  0.035173  0.04971  -0.001133  2.691689  0.0
S  S132  1  0.29811029  0.87067498  0.56227223  1  0.145838  -0.00126  0.048478  0.071445  -0.001558  2.789526  -0.001
S  S133  1  0.20189538  0.62932690  0.06227237  1  0.145771  -0.001259  0.048466  0.071458  -0.001557  2.789718  -0.001
S  S134  1  0.70188757  0.12932707  0.43772921  1  0.145754  -0.00126  0.04846  0.071473  -0.001557  2.789419  -0.001
S  S135  1  0.79811064  0.37067385  0.93772867  1  0.145807  -0.00126  0.048453  0.071469  -0.001558  2.789488  -0.001
N  N136  1  0.60629697  0.68015583  0.75077756  1  -1.238636  0.079189  -0.355051  -0.246908  0.052772  3.603095  0.068
N  N137  1  0.89369401  0.81984378  0.25077635  1  -1.238291  0.079185  -0.355034  -0.246865  0.05277  3.603119  0.068
N  N138  1  0.39369826  0.31984229  0.24922426  1  -1.238733  0.079187  -0.355045  -0.246912  0.052771  3.603194  0.068
N  N139  1  0.10629288  0.18015434  0.74922235  1  -1.23869  0.079182  -0.355018  -0.246891  0.052768  3.603046  0.068
N  N140  1  0.64913393  0.83309440  0.39957905  1  -1.211468  0.090174  -0.353445  -0.221305  0.059942  3.607782  0.078
N  N141  1  0.85086830  0.66690606  0.89957993  1  -1.211463  0.090169  -0.353403  -0.221319  0.059939  3.6078  0.078
N  N142  1  0.35086602  0.16690766  0.60042160  1  -1.21147  0.09017  -0.353395  -0.221321  0.059939  3.607793  0.078
N  N143  1  0.14913764  0.33309404  0.10042072  1  -1.211316  0.090171  -0.353449  -0.221279  0.059941  3.607789  0.078
O  O144  1  0.58614423  0.78908525  0.84148181  1  -1.114139  0.117248  -0.311666  -0.515867  0.074882  2.389236  0.106
O  O145  1  0.91385358  0.71091539  0.34148150  1  -1.114143  0.117257  -0.311677  -0.515853  0.074888  2.389225  0.106
O  O146  1  0.41385327  0.21091419  0.15851963  1  -1.114109  0.117252  -0.311676  -0.51585  0.074885  2.38931  0.106
O  O147  1  0.08614855  0.28908732  0.65851876  1  -1.114043  0.117258  -0.31165  -0.515846  0.074889  2.389154  0.106
O  O148  1  0.99039596  0.85185447  0.81134128  1  -1.194734  0.003769  -0.323314  -0.572294  0.001508  2.220327  0.004
O  O149  1  0.50959818  0.64815084  0.31133981  1  -1.194972  0.003768  -0.323375  -0.572331  0.001507  2.220209  0.004
O  O150  1  0.00959982  0.14814758  0.18866015  1  -1.19488  0.003768  -0.32333  -0.572266  0.001507  2.220402  0.004
O  O151  1  0.49040068  0.35185842  0.68865889  1  -1.194769  0.003768  -0.323347  -0.572344  0.001507  2.220264  0.004
O  O152  1  0.37443762  0.94668347  0.86663681  1  -1.167544  0.001071  -0.428857  -0.481487  0.000258  2.305565  0.0
O  O153  1  0.12555645  0.55331483  0.36663352  1  -1.167513  0.001068  -0.428919  -0.481528  0.000256  2.305551  0.0
O  O154  1  0.62555371  0.05331661  0.13336384  1  -1.167629  0.00107  -0.428927  -0.481559  0.000257  2.305561  0.0
O  O155  1  0.87444096  0.44668395  0.63336088  1  -1.167854  0.001069  -0.428892  -0.481531  0.000256  2.30567  0.0
O  O156  1  0.30771610  0.59501034  0.84368171  1  -1.184582  0.002259  -0.313554  -0.558776  0.000697  2.344195  0.003
O  O157  1  0.19228841  0.90498870  0.34368193  1  -1.184559  0.002259  -0.313543  -0.558739  0.000696  2.344163  0.003
O  O158  1  0.69229401  0.40498977  0.15631933  1  -1.184641  0.002257  -0.313604  -0.558796  0.000696  2.344372  0.003
O  O159  1  0.80771490  0.09500747  0.65631755  1  -1.184658  0.002259  -0.31364  -0.558877  0.000697  2.34417  0.003
O  O160  1  0.88496910  0.55199329  0.81178273  1  -1.143331  0.085137  -0.323649  -0.568356  0.054808  2.402052  0.078
O  O161  1  0.61503039  0.94800548  0.31178016  1  -1.143381  0.085131  -0.323726  -0.568422  0.054805  2.40209  0.078
O  O162  1  0.11503075  0.44800812  0.18821792  1  -1.143292  0.085137  -0.323656  -0.568483  0.054809  2.402065  0.078
O  O163  1  0.38497301  0.05199134  0.68821776  1  -1.143255  0.085139  -0.323687  -0.568562  0.05481  2.401975  0.078
O  O164  1  0.48908624  0.42637867  0.83839375  1  -1.162913  0.00701  -0.416239  -0.476844  0.004309  2.355502  0.006
O  O165  1  0.01091389  0.07361966  0.33839315  1  -1.163041  0.00701  -0.416271  -0.476876  0.004309  2.35552  0.006
O  O166  1  0.51091961  0.57362077  0.16160494  1  -1.162992  0.007012  -0.416233  -0.476893  0.00431  2.35553  0.006
O  O167  1  0.98908751  0.92637782  0.66160711  1  -1.16291  0.007012  -0.416244  -0.476884  0.00431  2.35542  0.006
