# generated using pymatgen
data_FeH18PdC30(N2O)4
_symmetry_space_group_name_H-M   'P 1'
_cell_length_a   7.48491258
_cell_length_b   13.98009028
_cell_length_c   14.88304125
_cell_angle_alpha   87.37993818
_cell_angle_beta   83.15374578
_cell_angle_gamma   89.60695387
_symmetry_Int_Tables_number   1
_chemical_formula_structural   FeH18PdC30(N2O)4
_chemical_formula_sum   'Fe2 H36 Pd2 C60 N16 O8'
_cell_volume   1544.63520467
_cell_formula_units_Z   2
loop_
 _symmetry_equiv_pos_site_id
 _symmetry_equiv_pos_as_xyz
  1  'x, y, z'
loop_
 _atom_site_type_symbol
 _atom_site_label
 _atom_site_symmetry_multiplicity
 _atom_site_fract_x
 _atom_site_fract_y
 _atom_site_fract_z
 _atom_site_occupancy
 _atom_site_pbe_bader_charge
 _atom_site_pbe_bader_spin_density
 _atom_site_pbe_cm5_charge
 _atom_site_pbe_ddec_charge
 _atom_site_pbe_ddec_spin_density
 _atom_site_pbe_ddec_sum_bond_order
 _atom_site_pbe_magmom
Fe  Fe0  1  0.50000134  0.50000206  0.49999851  1  1.448436  3.620634  0.807106  0.833218  3.870196  2.926536  3.594
Fe  Fe1  1  0.50000047  0.00000244  0.49999820  1  1.434171  3.651062  0.794358  0.816674  3.89992  2.92651  3.622
H  H2  1  0.53300873  0.47623307  0.29823247  1  0.103944  0.002062  0.11273  0.083014  0.000636  1.031366  0.001
H  H3  1  0.46699128  0.52376745  0.70176356  1  0.103967  0.002062  0.112696  0.083016  0.000636  1.031357  0.001
H  H4  1  0.53775898  0.57426920  0.15334364  1  0.105706  0.000867  0.107198  0.12142  0.000369  1.013867  0.0
H  H5  1  0.46223160  0.42572990  0.84665367  1  0.10621  0.000867  0.107178  0.12141  0.000369  1.013912  0.0
H  H6  1  0.50230786  0.82649162  0.31344357  1  0.083511  0.000733  0.10849  0.124424  9.3e-05  1.023221  0.0
H  H7  1  0.49770159  0.17350746  0.68655133  1  0.083486  0.000733  0.10848  0.124443  9.3e-05  1.023204  0.0
H  H8  1  0.50296854  0.71841142  0.45008077  1  0.103115  0.001666  0.116272  0.092373  0.000293  1.007212  0.001
H  H9  1  0.49704218  0.28158913  0.54991802  1  0.103265  0.001666  0.11626  0.092341  0.000293  1.007269  0.001
H  H10  1  0.77457899  0.00364684  0.63928492  1  0.127669  0.001827  0.119975  0.097831  0.000434  0.993591  0.001
H  H11  1  0.22542088  0.99635450  0.36071980  1  0.127625  0.001827  0.119978  0.097839  0.000434  0.993472  0.001
H  H12  1  0.78291616  0.96016720  0.80301459  1  0.107423  0.000977  0.112797  0.125717  0.000414  0.995559  0.0
H  H13  1  0.21707973  0.03982981  0.19698723  1  0.107343  0.000977  0.112854  0.125832  0.000414  0.995694  0.0
H  H14  1  0.20001911  0.95323148  0.83292414  1  0.11784  0.000948  0.116371  0.132005  0.000404  0.985509  0.0
H  H15  1  0.79997011  0.04677407  0.16707356  1  0.117925  0.000948  0.11633  0.132015  0.000404  0.985412  0.0
H  H16  1  0.21683560  0.99648261  0.66770112  1  0.141948  0.001887  0.118471  0.095034  0.0005  1.006525  0.001
H  H17  1  0.78316705  0.00352582  0.33229702  1  0.141987  0.001887  0.118486  0.095048  0.0005  1.006507  0.001
H  H18  1  0.01598455  0.71868889  0.06865375  1  0.137058  -2.5e-05  0.112405  0.121355  -2.9e-05  1.013002  0.0
H  H19  1  0.98401675  0.28130810  0.93134643  1  0.137024  -2.5e-05  0.112396  0.121312  -2.9e-05  1.013048  0.0
H  H20  1  0.02554783  0.54014068  0.08354404  1  0.095156  -3e-06  0.09969  0.098604  2e-06  1.021391  0.0
H  H21  1  0.97445884  0.45985775  0.91645642  1  0.09516  -3e-06  0.099686  0.098564  2e-06  1.021512  0.0
H  H22  1  0.03630241  0.45848013  0.23584114  1  0.090394  -7.8e-05  0.100508  0.096078  -8.7e-05  1.00774  0.0
H  H23  1  0.96370159  0.54151685  0.76415821  1  0.09047  -7.8e-05  0.100516  0.096151  -8.7e-05  1.007721  0.0
H  H24  1  0.03579218  0.55429319  0.37216554  1  0.102771  0.000142  0.104771  0.114154  -3.5e-05  0.99412  0.0
H  H25  1  0.96421047  0.44570308  0.62783392  1  0.102835  0.000142  0.104758  0.114189  -3.5e-05  0.994074  0.0
H  H26  1  0.02668294  0.73337949  0.35647215  1  0.124727  -0.000268  0.088518  0.086755  -0.000348  1.087525  0.0
H  H27  1  0.97331431  0.26661680  0.64352896  1  0.124727  -0.000268  0.088541  0.086763  -0.000348  1.087539  0.0
H  H28  1  0.23730279  0.26392725  0.24255073  1  0.124303  -0.000225  0.10539  0.103375  -0.0003  1.031344  0.0
H  H29  1  0.76271047  0.73607700  0.75745712  1  0.124221  -0.000225  0.105389  0.103349  -0.0003  1.03138  0.0
H  H30  1  0.48959563  0.23494921  0.33688542  1  0.110696  5.8e-05  0.106941  0.116294  -0.000116  0.987742  0.0
H  H31  1  0.51042305  0.76505502  0.66312011  1  0.110433  5.8e-05  0.106924  0.116223  -0.000116  0.98778  0.0
H  H32  1  0.79843948  0.28889498  0.27745454  1  0.053505  -0.000249  0.096049  0.087044  -0.00035  1.032912  0.0
H  H33  1  0.20157796  0.71110558  0.72254454  1  0.053806  -0.000249  0.096057  0.08705  -0.00035  1.032892  0.0
H  H34  1  0.85588257  0.37560273  0.12707655  1  0.107399  -9e-06  0.102089  0.104525  -5e-06  1.040908  0.0
H  H35  1  0.14412958  0.62439061  0.87291784  1  0.106944  -9e-06  0.1021  0.104474  -5e-06  1.040865  0.0
H  H36  1  0.60154027  0.41020494  0.03582638  1  0.114768  -2e-06  0.111656  0.119936  -1e-06  1.015999  0.0
H  H37  1  0.39846238  0.58978917  0.96417320  1  0.114711  -3e-06  0.111658  0.119897  -1e-06  1.016019  0.0
Pd  Pd38  1  0.00897652  0.25917296  0.45999543  1  0.545461  0.019806  0.646857  0.138246  0.022982  4.141119  0.022
Pd  Pd39  1  0.99101950  0.74082824  0.53999809  1  0.54556  0.019808  0.646878  0.138167  0.022984  4.141143  0.022
C  C40  1  0.52644669  0.55414136  0.29809895  1  0.507845  -0.010194  0.044941  0.096329  -0.01082  3.952193  -0.006
C  C41  1  0.47355060  0.44585704  0.70189936  1  0.507467  -0.010192  0.044929  0.096174  -0.010818  3.952248  -0.006
C  C42  1  0.52820124  0.60859115  0.21790947  1  -0.049396  0.004949  -0.074635  -0.161329  0.001615  3.901551  0.004
C  C43  1  0.47179202  0.39140510  0.78208918  1  -0.04941  0.004948  -0.074592  -0.161275  0.001615  3.901609  0.004
C  C44  1  0.51745839  0.70920457  0.22129273  1  0.148894  -0.016965  0.01135  0.155088  -0.017936  4.117898  -0.011
C  C45  1  0.48253889  0.29079527  0.77870617  1  0.148995  -0.016959  0.011332  0.155179  -0.01793  4.117527  -0.011
C  C46  1  0.50935871  0.74938379  0.30683575  1  -0.004012  0.007239  -0.076943  -0.159331  0.002656  3.88515  0.006
C  C47  1  0.49064532  0.25061603  0.69316143  1  -0.004033  0.007236  -0.076903  -0.159371  0.002656  3.885041  0.006
C  C48  1  0.50932028  0.68905862  0.38329090  1  0.487738  -0.011457  0.046192  0.099175  -0.012159  3.942475  -0.007
C  C49  1  0.49068508  0.31094121  0.61670755  1  0.487578  -0.01145  0.046179  0.099208  -0.012152  3.942549  -0.007
C  C50  1  0.51267067  0.76707955  0.14173995  1  -0.321766  -0.00413  -0.012863  -0.063472  -0.004623  3.991385  -0.001
C  C51  1  0.48732791  0.23291245  0.85826267  1  -0.322339  -0.004132  -0.012962  -0.063673  -0.004622  3.992184  -0.001
C  C52  1  0.50509035  0.81613930  0.07180643  1  0.139036  -0.010265  -0.028636  -0.01908  -0.010691  4.259674  -0.006
C  C53  1  0.49488954  0.18386691  0.92818638  1  0.13927  -0.010248  -0.028546  -0.018864  -0.010674  4.260024  -0.006
C  C54  1  0.17420969  0.64174025  0.55616863  1  0.827758  0.026394  -0.008895  0.049518  0.014188  3.818888  0.025
C  C55  1  0.82578229  0.35825524  0.44382610  1  0.8278  0.026389  -0.009013  0.049484  0.014186  3.819069  0.025
C  C56  1  0.19058500  0.16176476  0.48534323  1  0.835772  0.018596  -0.007519  0.057659  0.01027  3.803438  0.02
C  C57  1  0.80941506  0.83823787  0.51464932  1  0.835655  0.018598  -0.007422  0.057767  0.010271  3.803316  0.02
C  C58  1  0.81804118  0.16111232  0.47478925  1  0.812083  0.01516  -0.008641  0.05643  0.008279  3.800686  0.017
C  C59  1  0.18195757  0.83889028  0.52520136  1  0.811417  0.015165  -0.008557  0.05659  0.008278  3.800691  0.017
C  C60  1  0.19834699  0.35735072  0.44928016  1  0.818108  0.025314  -0.008005  0.058426  0.013616  3.81179  0.024
C  C61  1  0.80165172  0.64265048  0.55071322  1  0.818036  0.025326  -0.008035  0.058369  0.013622  3.811917  0.024
C  C62  1  0.65065318  0.99019100  0.68429288  1  0.472687  -0.011077  0.04408  0.088356  -0.011818  3.962578  -0.007
C  C63  1  0.34934406  0.00981102  0.31570859  1  0.472742  -0.011082  0.044069  0.088398  -0.011825  3.962342  -0.007
C  C64  1  0.65492267  0.96598052  0.77531463  1  -0.023651  0.006552  -0.074823  -0.164804  0.002378  3.913394  0.005
C  C65  1  0.34506789  0.03402146  0.22468386  1  -0.023644  0.006555  -0.07483  -0.164981  0.00238  3.913723  0.005
C  C66  1  0.49144435  0.94728924  0.83070971  1  0.062515  -0.017013  0.017315  0.159619  -0.01793  4.116307  -0.011
C  C67  1  0.50854879  0.05271640  0.16929516  1  0.062212  -0.017018  0.017329  0.159757  -0.017934  4.116698  -0.011
C  C68  1  0.32986541  0.96219438  0.79204158  1  0.019063  0.005873  -0.075896  -0.166877  0.002069  3.908839  0.005
C  C69  1  0.67013044  0.03781197  0.20796175  1  0.019192  0.005875  -0.075931  -0.167013  0.00207  3.908873  0.005
C  C70  1  0.33887907  0.98622980  0.70023455  1  0.426907  -0.009889  0.043327  0.08877  -0.010585  3.9569  -0.006
C  C71  1  0.66111953  0.01377649  0.29976460  1  0.426881  -0.00989  0.043287  0.08874  -0.010586  3.956978  -0.006
C  C72  1  0.49174320  0.90875241  0.91960701  1  0.245157  -0.006511  -0.003858  -0.052244  -0.00726  3.984306  -0.003
C  C73  1  0.50825796  0.09125327  0.08040077  1  0.245115  -0.006492  -0.003949  -0.052402  -0.007241  3.984784  -0.003
C  C74  1  0.49757525  0.86624866  0.99310143  1  -0.407012  -0.008506  -0.025193  -0.017199  -0.008656  4.256402  -0.004
C  C75  1  0.50240986  0.13374693  0.00690174  1  -0.406586  -0.008515  -0.025162  -0.0172  -0.008665  4.255943  -0.004
C  C76  1  0.02244232  0.73385232  0.21195354  1  0.152138  -0.0  0.07339  0.056788  -7.1e-05  3.944448  0.0
C  C77  1  0.97756034  0.26614465  0.78804522  1  0.151251  0.0  0.073428  0.056769  -7e-05  3.944407  0.0
C  C78  1  0.02205231  0.68166244  0.13419177  1  0.029055  -0.000287  -0.077835  -0.117612  -0.000306  3.957071  0.0
C  C79  1  0.97795303  0.31833383  0.86580822  1  0.02933  -0.000287  -0.077795  -0.117468  -0.000306  3.956899  0.0
C  C80  1  0.02748850  0.58201420  0.14340028  1  -0.106904  0.000107  -0.088641  -0.078759  6.2e-05  3.9957  0.0
C  C81  1  0.97251278  0.41798209  0.85660127  1  -0.106945  0.000107  -0.088682  -0.078778  6.2e-05  3.995634  0.0
C  C82  1  0.03314808  0.53645485  0.22870010  1  -0.002393  -0.000476  -0.077993  -0.060139  -0.000544  3.962473  0.0
C  C83  1  0.96685053  0.46354213  0.77129956  1  -0.002478  -0.000476  -0.077984  -0.060227  -0.000544  3.962512  0.0
C  C84  1  0.03260480  0.59008125  0.30580076  1  -0.092506  -1e-05  -0.082172  -0.057208  -0.000192  3.949849  0.0
C  C85  1  0.96739647  0.40991576  0.69420076  1  -0.092377  -1e-05  -0.082206  -0.057292  -0.000192  3.949882  0.0
C  C86  1  0.02741722  0.68964122  0.29770798  1  0.027099  -0.000487  -0.082745  -0.115259  -0.000576  3.970681  0.0
C  C87  1  0.97258407  0.31035576  0.70229219  1  0.027542  -0.000487  -0.082704  -0.115192  -0.000576  3.970719  0.0
C  C88  1  0.40875131  0.33794502  0.13489248  1  0.192299  -0.000101  0.074825  0.050201  -0.000172  3.971075  0.0
C  C89  1  0.59125121  0.66205564  0.86511482  1  0.229255  -0.000101  0.074818  0.050236  -0.000171  3.970769  0.0
C  C90  1  0.37313467  0.28850766  0.21887321  1  0.02542  -0.000235  -0.078412  -0.124573  -0.000308  3.978906  0.0
C  C91  1  0.62687318  0.71149662  0.78113695  1  0.025538  -0.000235  -0.078472  -0.124599  -0.000309  3.978801  0.0
C  C92  1  0.51450574  0.27208735  0.27060960  1  -0.136762  0.000255  -0.081069  -0.06315  -1.7e-05  3.958651  0.0
C  C93  1  0.48551296  0.72791972  0.72939376  1  -0.136155  0.000255  -0.080873  -0.062845  -1.7e-05  3.958902  0.0
C  C94  1  0.68797796  0.30302407  0.23717470  1  0.113451  -0.000558  -0.071463  -0.044729  -0.00065  3.939237  0.0
C  C95  1  0.31203678  0.69697936  0.76282438  1  0.112917  -0.000558  -0.071595  -0.045018  -0.000651  3.93943  0.0
C  C96  1  0.72027885  0.35281211  0.15318458  1  -0.083926  2.7e-05  -0.081253  -0.063977  -3e-06  3.958226  0.0
C  C97  1  0.27973052  0.64718774  0.84681499  1  -0.083091  2.7e-05  -0.081247  -0.063816  -3e-06  3.95811  0.0
C  C98  1  0.58006817  0.37158164  0.10140741  1  -0.018428  -0.000484  -0.076295  -0.117159  -0.00051  3.955444  0.0
C  C99  1  0.41993712  0.62841610  0.89859519  1  -0.056733  -0.000484  -0.076283  -0.117136  -0.00051  3.955521  0.0
N  N100  1  0.51596280  0.59290519  0.37987792  1  -1.25233  0.058103  -0.326667  -0.241696  0.02703  3.557815  0.046
N  N101  1  0.48403720  0.40709390  0.62011885  1  -1.252329  0.058099  -0.32655  -0.241534  0.027029  3.557768  0.046
N  N102  1  0.28793074  0.58401897  0.55817942  1  -1.341967  0.053345  -0.367024  -0.351736  0.023826  3.370344  0.027
N  N103  1  0.71206388  0.41597798  0.44181777  1  -1.342006  0.053346  -0.366903  -0.351724  0.023828  3.370414  0.027
N  N104  1  0.29993429  0.10590327  0.50267745  1  -1.340006  0.055435  -0.365988  -0.34823  0.025745  3.377326  0.031
N  N105  1  0.70006575  0.89410079  0.49731569  1  -1.339931  0.05543  -0.366073  -0.348304  0.025745  3.377266  0.031
N  N106  1  0.70223220  0.10445328  0.48508693  1  -1.329649  0.054822  -0.365267  -0.346838  0.025972  3.389378  0.031
N  N107  1  0.29775838  0.89555368  0.51490927  1  -1.32897  0.054811  -0.365352  -0.347009  0.025972  3.389417  0.031
N  N108  1  0.49608166  0.99715470  0.64603743  1  -1.234883  0.060918  -0.333293  -0.256404  0.028282  3.572224  0.049
N  N109  1  0.50391691  0.00284805  0.35396460  1  -1.234902  0.060925  -0.333228  -0.256301  0.028284  3.572062  0.049
N  N110  1  0.31281397  0.41408985  0.44846159  1  -1.33571  0.053682  -0.367932  -0.354806  0.024219  3.385758  0.027
N  N111  1  0.68718733  0.58590857  0.55153851  1  -1.335633  0.053681  -0.367912  -0.354713  0.024217  3.385762  0.027
N  N112  1  0.01696632  0.83893960  0.20383409  1  0.379267  -0.000917  0.055937  0.514602  -0.000975  4.191989  -0.001
N  N113  1  0.98302288  0.16105666  0.79616546  1  0.379272  -0.000917  0.055967  0.514751  -0.000975  4.191898  -0.001
N  N114  1  0.26278342  0.35366095  0.07895334  1  0.343895  -0.001056  0.056063  0.515621  -0.001096  4.204621  -0.001
N  N115  1  0.73721774  0.64633829  0.92105478  1  0.345323  -0.001057  0.055912  0.515433  -0.001096  4.204782  -0.001
O  O116  1  0.01672584  0.88356975  0.27447076  1  -0.498877  -7e-05  -0.133019  -0.349769  -0.000139  1.967079  0.0
O  O117  1  0.98324721  0.11642652  0.72553036  1  -0.498728  -7e-05  -0.133004  -0.349805  -0.000139  1.967123  0.0
O  O118  1  0.01295908  0.87823333  0.12756592  1  -0.459723  -0.000766  -0.132088  -0.341394  -0.000796  1.901365  -0.001
O  O119  1  0.98703953  0.12176293  0.87243378  1  -0.459784  -0.000766  -0.132167  -0.341544  -0.000796  1.901356  -0.001
O  O120  1  0.12349322  0.30511406  0.09802209  1  -0.474635  -0.000777  -0.128858  -0.339227  -0.000773  1.945171  -0.001
O  O121  1  0.87651459  0.69488238  0.90199119  1  -0.4749  -0.000777  -0.128864  -0.339209  -0.000773  1.945278  -0.001
O  O122  1  0.28410503  0.41450542  0.01484168  1  -0.490444  -0.000519  -0.131451  -0.352721  -0.000534  1.960495  0.0
O  O123  1  0.71588807  0.58549454  0.98516686  1  -0.490722  -0.000519  -0.131312  -0.352585  -0.000534  1.960701  0.0
