# generated using pymatgen
data_Cu2SiH16C7(SI)2
_symmetry_space_group_name_H-M   'P 1'
_cell_length_a   6.78069642
_cell_length_b   8.24766619
_cell_length_c   24.94971212
_cell_angle_alpha   94.99969417
_cell_angle_beta   89.99968034
_cell_angle_gamma   90.00004427
_symmetry_Int_Tables_number   1
_chemical_formula_structural   Cu2SiH16C7(SI)2
_chemical_formula_sum   'Cu8 Si4 H64 C28 S8 I8'
_cell_volume   1390.00173960
_cell_formula_units_Z   4
loop_
 _symmetry_equiv_pos_site_id
 _symmetry_equiv_pos_as_xyz
  1  'x, y, z'
loop_
 _atom_site_type_symbol
 _atom_site_label
 _atom_site_symmetry_multiplicity
 _atom_site_fract_x
 _atom_site_fract_y
 _atom_site_fract_z
 _atom_site_occupancy
 _atom_site_hle17_bader_spin_density
 _atom_site_hle17_ddec_charge
 _atom_site_hle17_ddec_spin_density
 _atom_site_hle17_ddec_sum_bond_order
 _atom_site_hle17_magmom
 _atom_site_hse06_10hf_bader_spin_density
 _atom_site_hse06_10hf_ddec_charge
 _atom_site_hse06_10hf_ddec_spin_density
 _atom_site_hse06_10hf_ddec_sum_bond_order
 _atom_site_hse06_10hf_magmom
 _atom_site_hse06_bader_spin_density
 _atom_site_hse06_ddec_charge
 _atom_site_hse06_ddec_spin_density
 _atom_site_hse06_ddec_sum_bond_order
 _atom_site_hse06_magmom
 _atom_site_pbe_bader_spin_density
 _atom_site_pbe_cm5_charge
 _atom_site_pbe_ddec_charge
 _atom_site_pbe_ddec_spin_density
 _atom_site_pbe_ddec_sum_bond_order
 _atom_site_pbe_magmom
Cu  Cu0  1  0.04021340  0.48851244  0.55230658  1  0  0.152844  0  2.329728  0  0  0.088247  0  2.810058  0  0  0.100167  0  2.755537  0  0  0.193535  0.081501  0  2.846373  0
Cu  Cu1  1  0.54020222  0.01149615  0.94769611  1  0  0.152867  0  2.329678  0  0  0.088277  0  2.809997  0  0  0.100188  0  2.755463  0  0  0.193525  0.081532  0  2.846298  0
Cu  Cu2  1  0.95980140  0.51149517  0.44769373  1  0  0.152866  0  2.329732  0  0  0.088252  0  2.810111  0  0  0.100176  0  2.755584  0  0  0.193495  0.081503  0  2.846436  0
Cu  Cu3  1  0.45977718  0.98850295  0.05230477  1  0  0.152833  0  2.329617  0  0  0.08822  0  2.809959  0  0  0.100132  0  2.755426  0  0  0.19351  0.081475  0  2.846269  0
Cu  Cu4  1  0.44692221  0.48963783  0.56821838  1  0  0.192952  0  2.203437  0  0  0.123649  0  2.673743  0  0  0.134708  0  2.624522  0  0  0.207531  0.11755  0  2.706568  0
Cu  Cu5  1  0.94691281  0.01037451  0.93178337  1  0  0.192909  0  2.203423  0  0  0.123565  0  2.67379  0  0  0.134626  0  2.624574  0  0  0.207488  0.117502  0  2.706545  0
Cu  Cu6  1  0.55308521  0.51036980  0.43178434  1  0  0.192893  0  2.203372  0  0  0.123573  0  2.6737  0  0  0.134632  0  2.62448  0  0  0.207513  0.11747  0  2.706541  0
Cu  Cu7  1  0.05307397  0.98962581  0.06821834  1  0  0.192946  0  2.203298  0  0  0.123615  0  2.673629  0  0  0.134681  0  2.624411  0  0  0.20752  0.117536  0  2.706421  0
Si  Si8  1  0.81926757  0.48154717  0.70652633  1  0  1.101676  0  3.375394  0  0  0.998433  0  3.761128  0  0  1.015924  0  3.758201  0  0  0.105198  0.986231  0  3.76295  0
Si  Si9  1  0.31926035  0.01845535  0.79347054  1  0  1.101603  0  3.375249  0  0  0.998375  0  3.760987  0  0  1.015866  0  3.758061  0  0  0.105146  0.986178  0  3.762813  0
Si  Si10  1  0.18073838  0.51844948  0.29347328  1  0  1.101629  0  3.375407  0  0  0.998364  0  3.761098  0  0  1.015854  0  3.758175  0  0  0.105181  0.98616  0  3.762927  0
Si  Si11  1  0.68073233  0.98154251  0.20652790  1  0  1.101607  0  3.375436  0  0  0.998376  0  3.761169  0  0  1.015869  0  3.758241  0  0  0.10515  0.986176  0  3.763  0
H  H12  1  0.78087648  0.77116310  0.69384311  1  0  0.114165  0  0.967802  0  0  0.129602  0  1.021344  0  0  0.131125  0  1.021911  0  0  0.106884  0.128443  0  1.021073  0
H  H13  1  0.28086920  0.72883609  0.80615897  1  0  0.114158  0  0.967826  0  0  0.129583  0  1.021397  0  0  0.131105  0  1.021967  0  0  0.10689  0.128424  0  1.021128  0
H  H14  1  0.21913832  0.22883598  0.30615697  1  0  0.114172  0  0.967792  0  0  0.129622  0  1.021318  0  0  0.131146  0  1.021881  0  0  0.106886  0.128462  0  1.02105  0
H  H15  1  0.71911758  0.27116180  0.19384347  1  0  0.114159  0  0.967826  0  0  0.129592  0  1.021383  0  0  0.131113  0  1.021954  0  0  0.106887  0.128434  0  1.021118  0
H  H16  1  0.91820978  0.97629334  0.62182646  1  0  0.088455  0  0.949687  0  0  0.106412  0  1.009826  0  0  0.107143  0  1.011018  0  0  0.089281  0.105898  0  1.00902  0
H  H17  1  0.41821566  0.52370833  0.87817547  1  0  0.088382  0  0.949639  0  0  0.106404  0  1.009707  0  0  0.10713  0  1.010903  0  0  0.089264  0.105889  0  1.008901  0
H  H18  1  0.08180060  0.02370944  0.37817852  1  0  0.088382  0  0.949578  0  0  0.106411  0  1.009707  0  0  0.107151  0  1.010883  0  0  0.089266  0.105895  0  1.0089  0
H  H19  1  0.58176817  0.47628709  0.12182290  1  0  0.088461  0  0.949643  0  0  0.106484  0  1.009728  0  0  0.107196  0  1.01094  0  0  0.08927  0.105967  0  1.008921  0
H  H20  1  0.99076634  0.89397895  0.55684842  1  0  0.097975  0  0.950954  0  0  0.112845  0  1.014984  0  0  0.114517  0  1.014742  0  0  0.086251  0.11147  0  1.015441  0
H  H21  1  0.49076218  0.60602272  0.94315179  1  0  0.09799  0  0.950956  0  0  0.112855  0  1.014986  0  0  0.114517  0  1.014751  0  0  0.086267  0.111481  0  1.015441  0
H  H22  1  0.00924993  0.10603233  0.44315440  1  0  0.097933  0  0.950941  0  0  0.112857  0  1.014949  0  0  0.114516  0  1.014716  0  0  0.08628  0.111482  0  1.015407  0
H  H23  1  0.50922607  0.39396661  0.05684561  1  0  0.097942  0  0.950965  0  0  0.112815  0  1.015024  0  0  0.114489  0  1.014771  0  0  0.086223  0.111442  0  1.01548  0
H  H24  1  0.65266353  0.00230520  0.55489818  1  0  0.089605  0  0.930552  0  0  0.106312  0  0.992089  0  0  0.107422  0  0.992614  0  0  0.084633  0.105413  0  0.991857  0
H  H25  1  0.15265820  0.49770708  0.94510604  1  0  0.089595  0  0.930637  0  0  0.106332  0  0.992124  0  0  0.10744  0  0.992649  0  0  0.084666  0.105436  0  0.991886  0
H  H26  1  0.34735717  0.99771220  0.44510881  1  0  0.089583  0  0.930566  0  0  0.106315  0  0.992125  0  0  0.107432  0  0.992653  0  0  0.084654  0.105419  0  0.991888  0
H  H27  1  0.84732563  0.50229689  0.05489538  1  0  0.089627  0  0.930626  0  0  0.106349  0  0.992104  0  0  0.107459  0  0.992631  0  0  0.084668  0.105451  0  0.991871  0
H  H28  1  0.65301210  0.79058879  0.53702469  1  0  0.065327  0  0.990424  0  0  0.076993  0  1.066867  0  0  0.078401  0  1.066203  0  0  0.068902  0.075738  0  1.06765  0
H  H29  1  0.15300616  0.70942254  0.96297833  1  0  0.065317  0  0.990234  0  0  0.076979  0  1.0667  0  0  0.078387  0  1.066032  0  0  0.068862  0.075703  0  1.067503  0
H  H30  1  0.34700565  0.20942491  0.46297699  1  0  0.065172  0  0.990461  0  0  0.07685  0  1.066976  0  0  0.078262  0  1.066311  0  0  0.068811  0.075592  0  1.067766  0
H  H31  1  0.84698946  0.29058142  0.03702309  1  0  0.065321  0  0.990372  0  0  0.076965  0  1.06684  0  0  0.078374  0  1.066173  0  0  0.068875  0.075708  0  1.067625  0
H  H32  1  0.37295918  0.88158770  0.59846124  1  0  0.096189  0  0.957495  0  0  0.11028  0  1.022273  0  0  0.111334  0  1.023077  0  0  0.085572  0.10943  0  1.021864  0
H  H33  1  0.87295637  0.61841395  0.90154077  1  0  0.096096  0  0.957548  0  0  0.110211  0  1.022319  0  0  0.111264  0  1.023126  0  0  0.085531  0.10936  0  1.021911  0
H  H34  1  0.62706004  0.11841991  0.40153948  1  0  0.096081  0  0.957751  0  0  0.110236  0  1.022466  0  0  0.111292  0  1.02327  0  0  0.085515  0.109387  0  1.022058  0
H  H35  1  0.12703188  0.38159124  0.09846188  1  0  0.09619  0  0.957416  0  0  0.11026  0  1.022206  0  0  0.111313  0  1.023013  0  0  0.085541  0.109412  0  1.0218  0
H  H36  1  0.54263303  0.95470411  0.64905876  1  0  0.092393  0  0.932811  0  0  0.113322  0  0.987701  0  0  0.113737  0  0.989257  0  0  0.09626  0.112983  0  0.986672  0
H  H37  1  0.04263652  0.54530231  0.85094189  1  0  0.092243  0  0.932692  0  0  0.113209  0  0.987598  0  0  0.113623  0  0.989156  0  0  0.096208  0.11287  0  0.986572  0
H  H38  1  0.45737734  0.04530108  0.35094268  1  0  0.092247  0  0.932662  0  0  0.113201  0  0.987615  0  0  0.113617  0  0.989169  0  0  0.096202  0.112861  0  0.986593  0
H  H39  1  0.95734584  0.45469922  0.14905945  1  0  0.092358  0  0.932801  0  0  0.113296  0  0.987669  0  0  0.113711  0  0.989225  0  0  0.096257  0.11296  0  0.986641  0
H  H40  1  0.12168979  0.38910136  0.74931092  1  0  0.15024  0  0.991116  0  0  0.174607  0  1.041328  0  0  0.176171  0  1.04226  0  0  0.091621  0.173466  0  1.040714  0
H  H41  1  0.62166042  0.11090960  0.75068290  1  0  0.150182  0  0.991129  0  0  0.174565  0  1.041322  0  0  0.176126  0  1.042257  0  0  0.091609  0.173423  0  1.040709  0
H  H42  1  0.87832206  0.61088554  0.25068722  1  0  0.15032  0  0.991067  0  0  0.174645  0  1.041305  0  0  0.176209  0  1.042237  0  0  0.091644  0.173502  0  1.040692  0
H  H43  1  0.37832193  0.88908946  0.24931357  1  0  0.150176  0  0.991109  0  0  0.174556  0  1.041307  0  0  0.17612  0  1.042238  0  0  0.091612  0.173412  0  1.040694  0
H  H44  1  0.13135709  0.60284081  0.74320384  1  0  0.143252  0  0.997367  0  0  0.160466  0  1.061005  0  0  0.162346  0  1.061292  0  0  0.085092  0.159107  0  1.060832  0
H  H45  1  0.63135293  0.89717164  0.75678803  1  0  0.143311  0  0.997394  0  0  0.160526  0  1.061057  0  0  0.162408  0  1.061337  0  0  0.08508  0.159165  0  1.060884  0
H  H46  1  0.86865181  0.39714731  0.25679473  1  0  0.143317  0  0.997277  0  0  0.160494  0  1.060961  0  0  0.162375  0  1.061247  0  0  0.08507  0.159136  0  1.06079  0
H  H47  1  0.36863680  0.10282863  0.24320847  1  0  0.143181  0  0.997496  0  0  0.160379  0  1.061172  0  0  0.162258  0  1.061459  0  0  0.085047  0.159021  0  1.060999  0
H  H48  1  0.17919191  0.46248538  0.68625202  1  0  0.142167  0  1.035527  0  0  0.154546  0  1.106019  0  0  0.156473  0  1.106937  0  0  0.075559  0.15302  0  1.105673  0
H  H49  1  0.67919369  0.03752922  0.81373939  1  0  0.142149  0  1.035516  0  0  0.154526  0  1.106009  0  0  0.156451  0  1.106929  0  0  0.07556  0.153001  0  1.105662  0
H  H50  1  0.82081404  0.53750639  0.31374624  1  0  0.142104  0  1.035594  0  0  0.154464  0  1.106095  0  0  0.156389  0  1.107016  0  0  0.075531  0.152939  0  1.105752  0
H  H51  1  0.32079751  0.96247226  0.18625674  1  0  0.142172  0  1.035551  0  0  0.154543  0  1.106041  0  0  0.156475  0  1.106956  0  0  0.075585  0.153017  0  1.105696  0
H  H52  1  0.51150369  0.52724633  0.75970155  1  0  0.147183  0  0.982805  0  0  0.165259  0  1.043933  0  0  0.166982  0  1.044671  0  0  0.086371  0.163961  0  1.043469  0
H  H53  1  0.01148907  0.97273452  0.74029804  1  0  0.147227  0  0.982914  0  0  0.165278  0  1.044063  0  0  0.167003  0  1.044799  0  0  0.086372  0.16398  0  1.043598  0
H  H54  1  0.48850668  0.47274543  0.24029551  1  0  0.147197  0  0.982835  0  0  0.165239  0  1.043992  0  0  0.166965  0  1.044727  0  0  0.086343  0.163941  0  1.04353  0
H  H55  1  0.98849181  0.02725483  0.25970217  1  0  0.147157  0  0.982921  0  0  0.165246  0  1.044027  0  0  0.166969  0  1.044766  0  0  0.086361  0.163947  0  1.043564  0
H  H56  1  0.71171442  0.63611301  0.79225147  1  0  0.142261  0  1.013253  0  0  0.154123  0  1.084708  0  0  0.155608  0  1.086613  0  0  0.081172  0.152923  0  1.083632  0
H  H57  1  0.21170624  0.86387399  0.70774998  1  0  0.142256  0  1.013269  0  0  0.154085  0  1.084752  0  0  0.155569  0  1.086656  0  0  0.081142  0.152883  0  1.083676  0
H  H58  1  0.28829448  0.36388363  0.20774693  1  0  0.142266  0  1.013262  0  0  0.154082  0  1.084743  0  0  0.155567  0  1.086647  0  0  0.081141  0.152883  0  1.083669  0
H  H59  1  0.78828054  0.13611537  0.29225143  1  0  0.142269  0  1.01318  0  0  0.154102  0  1.084675  0  0  0.155586  0  1.08658  0  0  0.081176  0.1529  0  1.083601  0
H  H60  1  0.69030204  0.42290451  0.79614884  1  0  0.154711  0  0.975265  0  0  0.172145  0  1.035005  0  0  0.174546  0  1.0351  0  0  0.086537  0.170371  0  1.03503  0
H  H61  1  0.19028335  0.07707848  0.70384569  1  0  0.154783  0  0.975241  0  0  0.172204  0  1.034994  0  0  0.174605  0  1.03509  0  0  0.086611  0.170428  0  1.03502  0
H  H62  1  0.30970244  0.57708725  0.20384822  1  0  0.154697  0  0.975344  0  0  0.172111  0  1.035091  0  0  0.174512  0  1.035187  0  0  0.086539  0.170336  0  1.035116  0
H  H63  1  0.80969901  0.92290721  0.29615321  1  0  0.154712  0  0.975233  0  0  0.172128  0  1.035001  0  0  0.174529  0  1.035096  0  0  0.08655  0.170356  0  1.035022  0
H  H64  1  0.58216390  0.27341896  0.66650556  1  0  0.147921  0  0.994057  0  0  0.162672  0  1.059296  0  0  0.165318  0  1.058596  0  0  0.078947  0.160631  0  1.060037  0
H  H65  1  0.08216346  0.22658350  0.83349129  1  0  0.147941  0  0.994096  0  0  0.162689  0  1.059327  0  0  0.165337  0  1.058626  0  0  0.078946  0.160648  0  1.060073  0
H  H66  1  0.41782583  0.72658256  0.33349379  1  0  0.147933  0  0.994081  0  0  0.162678  0  1.059323  0  0  0.165324  0  1.058622  0  0  0.078929  0.160636  0  1.060067  0
H  H67  1  0.91783807  0.77342411  0.16650902  1  0  0.147944  0  0.994171  0  0  0.162688  0  1.059397  0  0  0.165336  0  1.058697  0  0  0.078973  0.160646  0  1.060144  0
H  H68  1  0.80570116  0.18394691  0.68816176  1  0  0.144221  0  0.987018  0  0  0.164562  0  1.043896  0  0  0.166663  0  1.043957  0  0  0.088217  0.163032  0  1.043946  0
H  H69  1  0.30569532  0.31606291  0.81183573  1  0  0.144267  0  0.986902  0  0  0.164646  0  1.043746  0  0  0.166747  0  1.043808  0  0  0.088247  0.163118  0  1.043795  0
H  H70  1  0.19428857  0.81605096  0.31183868  1  0  0.144265  0  0.987015  0  0  0.164588  0  1.043899  0  0  0.166689  0  1.043961  0  0  0.088237  0.163055  0  1.043951  0
H  H71  1  0.69430620  0.68394225  0.18816291  1  0  0.144223  0  0.987021  0  0  0.164577  0  1.043884  0  0  0.166679  0  1.043945  0  0  0.088204  0.163049  0  1.043933  0
H  H72  1  0.80013305  0.27856337  0.62705545  1  0  0.14918  0  1.015862  0  0  0.161733  0  1.086438  0  0  0.164515  0  1.085738  0  0  0.072883  0.159608  0  1.087115  0
H  H73  1  0.30012888  0.22143792  0.87294021  1  0  0.149115  0  1.015806  0  0  0.161694  0  1.086374  0  0  0.164476  0  1.085674  0  0  0.072865  0.159567  0  1.087049  0
H  H74  1  0.19986110  0.72143817  0.37294589  1  0  0.149194  0  1.015865  0  0  0.161739  0  1.086451  0  0  0.164521  0  1.085752  0  0  0.072878  0.159614  0  1.087129  0
H  H75  1  0.69987264  0.77855139  0.12705599  1  0  0.149205  0  1.015721  0  0  0.161746  0  1.086322  0  0  0.164527  0  1.085623  0  0  0.072873  0.15962  0  1.087  0
C  C76  1  0.77201037  0.66267186  0.66468269  1  0  -0.398443  0  3.549766  0  0  -0.365245  0  3.801946  0  0  -0.370955  0  3.813313  0  0  -0.11012  -0.361356  0  3.7943  0
C  C77  1  0.27200557  0.83732976  0.83531867  1  0  -0.398345  0  3.549653  0  0  -0.365184  0  3.801892  0  0  -0.370898  0  3.813265  0  0  -0.110104  -0.361297  0  3.794251  0
C  C78  1  0.22800885  0.33732601  0.33531775  1  0  -0.398531  0  3.550069  0  0  -0.365221  0  3.801939  0  0  -0.37093  0  3.813307  0  0  -0.110128  -0.361332  0  3.794301  0
C  C79  1  0.72798563  0.16267056  0.16468304  1  0  -0.398428  0  3.549711  0  0  -0.365313  0  3.802069  0  0  -0.371023  0  3.813431  0  0  -0.110124  -0.361427  0  3.794436  0
C  C80  1  0.88832816  0.87836471  0.59011734  1  0  -0.133579  0  3.612875  0  0  -0.169243  0  3.871276  0  0  -0.169766  0  3.883313  0  0  -0.15633  -0.168709  0  3.862763  0
C  C81  1  0.38832760  0.62163937  0.90988350  1  0  -0.13354  0  3.612852  0  0  -0.169209  0  3.871197  0  0  -0.169719  0  3.883233  0  0  -0.156336  -0.168676  0  3.862676  0
C  C82  1  0.11169402  0.12163684  0.40988641  1  0  -0.133485  0  3.61265  0  0  -0.169293  0  3.871229  0  0  -0.169802  0  3.883276  0  0  -0.156414  -0.168759  0  3.862715  0
C  C83  1  0.61165917  0.37835362  0.09011560  1  0  -0.133466  0  3.612737  0  0  -0.169217  0  3.871169  0  0  -0.169727  0  3.883203  0  0  -0.156265  -0.168678  0  3.862648  0
C  C84  1  0.67609351  0.88323522  0.57084104  1  0  -0.102061  0  3.716529  0  0  -0.138992  0  3.966873  0  0  -0.140924  0  3.982215  0  0  -0.178789  -0.137468  0  3.956217  0
C  C85  1  0.17609700  0.61676393  0.92915920  1  0  -0.102122  0  3.716487  0  0  -0.13911  0  3.966962  0  0  -0.141031  0  3.982285  0  0  -0.178809  -0.13757  0  3.956324  0
C  C86  1  0.32392276  0.11677118  0.42916124  1  0  -0.101755  0  3.716308  0  0  -0.13876  0  3.966846  0  0  -0.140722  0  3.982241  0  0  -0.17861  -0.137228  0  3.956188  0
C  C87  1  0.82389568  0.38323394  0.07084044  1  0  -0.102177  0  3.716432  0  0  -0.139076  0  3.966745  0  0  -0.141006  0  3.982079  0  0  -0.178803  -0.137552  0  3.956105  0
C  C88  1  0.52213102  0.86522602  0.61416419  1  0  -0.141654  0  3.633038  0  0  -0.178025  0  3.893107  0  0  -0.178285  0  3.90545  0  0  -0.157503  -0.177717  0  3.884701  0
C  C89  1  0.02212505  0.63478407  0.88583941  1  0  -0.14133  0  3.632826  0  0  -0.177771  0  3.892954  0  0  -0.178037  0  3.905307  0  0  -0.157388  -0.177457  0  3.884545  0
C  C90  1  0.47788968  0.13478161  0.38583933  1  0  -0.141441  0  3.632925  0  0  -0.177893  0  3.893116  0  0  -0.178154  0  3.905477  0  0  -0.157451  -0.177585  0  3.884712  0
C  C91  1  0.97785731  0.36522113  0.11416324  1  0  -0.141624  0  3.633085  0  0  -0.177996  0  3.893176  0  0  -0.178259  0  3.905525  0  0  -0.157474  -0.177686  0  3.884777  0
C  C92  1  0.08882474  0.48479286  0.72266033  1  0  -0.712226  0  3.625193  0  0  -0.751012  0  3.845691  0  0  -0.760668  0  3.851463  0  0  -0.303239  -0.744134  0  3.84181  0
C  C93  1  0.58881984  0.01521445  0.77733423  1  0  -0.712165  0  3.625276  0  0  -0.750946  0  3.845687  0  0  -0.760596  0  3.851465  0  0  -0.303174  -0.744068  0  3.841804  0
C  C94  1  0.91118121  0.51519770  0.27733790  1  0  -0.712259  0  3.625144  0  0  -0.750956  0  3.845659  0  0  -0.76061  0  3.851435  0  0  -0.30318  -0.744075  0  3.841781  0
C  C95  1  0.41117137  0.98478096  0.22266254  1  0  -0.712058  0  3.625248  0  0  -0.75084  0  3.84575  0  0  -0.760502  0  3.85152  0  0  -0.303189  -0.743959  0  3.841867  0
C  C96  1  0.66927942  0.52119154  0.76951353  1  0  -0.70876  0  3.600968  0  0  -0.743665  0  3.824163  0  0  -0.753597  0  3.829754  0  0  -0.300717  -0.736456  0  3.820199  0
C  C97  1  0.16925762  0.97879544  0.73048638  1  0  -0.708908  0  3.60109  0  0  -0.743729  0  3.824295  0  0  -0.75366  0  3.829884  0  0  -0.300772  -0.736519  0  3.820331  0
C  C98  1  0.33073095  0.47880388  0.23048484  1  0  -0.708765  0  3.601075  0  0  -0.743561  0  3.824322  0  0  -0.753494  0  3.829912  0  0  -0.30065  -0.736351  0  3.820361  0
C  C99  1  0.83072621  0.02119269  0.26951299  1  0  -0.708741  0  3.600998  0  0  -0.743604  0  3.824201  0  0  -0.753535  0  3.829794  0  0  -0.300712  -0.736395  0  3.82024  0
C  C100  1  0.74343198  0.28646080  0.66840569  1  0  -0.712723  0  3.621275  0  0  -0.749194  0  3.845161  0  0  -0.758587  0  3.848303  0  0  -0.30532  -0.74238  0  3.843155  0
C  C101  1  0.24342567  0.21354413  0.83159017  1  0  -0.712712  0  3.621097  0  0  -0.749238  0  3.844958  0  0  -0.75863  0  3.848086  0  0  -0.30529  -0.742428  0  3.842957  0
C  C102  1  0.25656364  0.71354071  0.33159365  1  0  -0.712775  0  3.621241  0  0  -0.749228  0  3.845137  0  0  -0.758625  0  3.848282  0  0  -0.305324  -0.742405  0  3.843136  0
C  C103  1  0.75657881  0.78645738  0.16840797  1  0  -0.71276  0  3.621279  0  0  -0.749226  0  3.845182  0  0  -0.758615  0  3.848305  0  0  -0.30528  -0.742412  0  3.84318  0
S  S104  1  0.96742146  0.68998144  0.61677084  1  0  0.059679  0  2.874312  0  0  0.07714  0  3.299945  0  0  0.077454  0  3.287313  0  0  -0.036367  0.076808  0  3.309062  0
S  S105  1  0.46741864  0.81002387  0.88322871  1  0  0.05967  0  2.874117  0  0  0.077111  0  3.299811  0  0  0.07743  0  3.287168  0  0  -0.036381  0.076773  0  3.308924  0
S  S106  1  0.03260366  0.31002373  0.38322901  1  0  0.059578  0  2.874226  0  0  0.077033  0  3.299893  0  0  0.077346  0  3.287256  0  0  -0.036383  0.076701  0  3.309018  0
S  S107  1  0.53257698  0.18997279  0.11677129  1  0  0.059696  0  2.874213  0  0  0.077182  0  3.299911  0  0  0.077502  0  3.287265  0  0  -0.036361  0.076848  0  3.30903  0
S  S108  1  0.52012499  0.66452601  0.63930319  1  0  0.063388  0  2.842255  0  0  0.083175  0  3.261634  0  0  0.083516  0  3.249936  0  0  -0.027048  0.081835  0  3.270637  0
S  S109  1  0.02011969  0.83547798  0.86069863  1  0  0.063343  0  2.842188  0  0  0.083164  0  3.261618  0  0  0.083501  0  3.249934  0  0  -0.027029  0.081821  0  3.270623  0
S  S110  1  0.47989718  0.33547795  0.36069702  1  0  0.063469  0  2.842281  0  0  0.083295  0  3.261597  0  0  0.083642  0  3.249893  0  0  -0.026997  0.081955  0  3.270609  0
S  S111  1  0.97987299  0.16452598  0.13930198  1  0  0.063394  0  2.842228  0  0  0.083208  0  3.261612  0  0  0.083544  0  3.249924  0  0  -0.027053  0.081865  0  3.270626  0
I  I112  1  0.72832451  0.33886967  0.50759633  1  0  -0.25092  0  2.127902  0  0  -0.193043  0  2.639692  0  0  -0.203325  0  2.586271  0  0  -0.111529  -0.186716  0  2.676097  0
I  I113  1  0.22831943  0.16114869  0.99240513  1  0  -0.2509  0  2.127771  0  0  -0.192994  0  2.639562  0  0  -0.203279  0  2.586152  0  0  -0.111511  -0.186678  0  2.675948  0
I  I114  1  0.27167554  0.66114768  0.49240465  1  0  -0.250924  0  2.127871  0  0  -0.193011  0  2.639612  0  0  -0.203304  0  2.58621  0  0  -0.111513  -0.186683  0  2.676008  0
I  I115  1  0.77166882  0.83886376  0.00759211  1  0  -0.250931  0  2.127889  0  0  -0.192975  0  2.639585  0  0  -0.203257  0  2.586165  0  0  -0.111541  -0.186662  0  2.675976  0
I  I116  1  0.23227732  0.23884600  0.58505711  1  0  -0.375384  0  1.528354  0  0  -0.30809  0  1.920552  0  0  -0.327947  0  1.889983  0  0  -0.183471  -0.294471  0  1.941347  0
I  I117  1  0.73226699  0.26116626  0.91494298  1  0  -0.375373  0  1.528256  0  0  -0.308093  0  1.9205  0  0  -0.327946  0  1.889928  0  0  -0.183469  -0.294487  0  1.941287  0
I  I118  1  0.76773453  0.76115794  0.41494110  1  0  -0.375393  0  1.528324  0  0  -0.308116  0  1.920546  0  0  -0.32797  0  1.889975  0  0  -0.183488  -0.2945  0  1.941348  0
I  I119  1  0.26772863  0.73883036  0.08505422  1  0  -0.375405  0  1.528326  0  0  -0.308107  0  1.920535  0  0  -0.327962  0  1.889963  0  0  -0.183484  -0.294497  0  1.941327  0
