# generated using pymatgen
data_Zn2H15C25N3O8
_symmetry_space_group_name_H-M   'P 1'
_cell_length_a   10.69105478
_cell_length_b   16.84300486
_cell_length_c   18.11410949
_cell_angle_alpha   117.70243243
_cell_angle_beta   107.19461839
_cell_angle_gamma   90.00584606
_symmetry_Int_Tables_number   1
_chemical_formula_structural   Zn2H15C25N3O8
_chemical_formula_sum   'Zn8 H60 C100 N12 O32'
_cell_volume   2722.12405061
_cell_formula_units_Z   4
loop_
 _symmetry_equiv_pos_site_id
 _symmetry_equiv_pos_as_xyz
  1  'x, y, z'
loop_
 _atom_site_type_symbol
 _atom_site_label
 _atom_site_symmetry_multiplicity
 _atom_site_fract_x
 _atom_site_fract_y
 _atom_site_fract_z
 _atom_site_occupancy
 _atom_site_pbe_bader_charge
 _atom_site_pbe_bader_spin_density
 _atom_site_pbe_cm5_charge
 _atom_site_pbe_ddec_charge
 _atom_site_pbe_ddec_spin_density
 _atom_site_pbe_ddec_sum_bond_order
 _atom_site_pbe_magmom
Zn  Zn0  1  0.42170843  0.21068349  0.64756560  1  1.312749  0  0.691143  0.822868  0  2.348001  0
Zn  Zn1  1  0.39513937  0.52982417  0.15904401  1  1.3247  0  0.69543  0.959808  0  2.277492  0
Zn  Zn2  1  0.57857250  0.56310270  0.35245796  1  1.30987  0  0.690819  0.823755  0  2.343955  0
Zn  Zn3  1  0.60517851  0.37074276  0.84108802  1  1.324207  0  0.695448  0.959734  0  2.276156  0
Zn  Zn4  1  0.22613799  0.71063683  0.64735013  1  1.310836  0  0.691137  0.822939  0  2.344038  0
Zn  Zn5  1  0.76317891  0.02985271  0.15917492  1  1.325576  0  0.694454  0.958196  0  2.280872  0
Zn  Zn6  1  0.77350092  0.06316328  0.35248611  1  1.31149  0  0.691018  0.823535  0  2.343786  0
Zn  Zn7  1  0.23672119  0.87037747  0.84086330  1  1.325053  0  0.694204  0.958518  0  2.279879  0
H  H8  1  0.24723227  0.50702893  0.69530590  1  0.081141  0  0.104214  0.10456  0  1.02306  0
H  H9  1  0.27192402  0.69928880  0.96233710  1  0.135645  0  0.114734  0.124113  0  0.989857  0
H  H10  1  0.36050460  0.43176903  0.90028388  1  0.105165  0  0.112106  0.122433  0  1.001196  0
H  H11  1  0.03877758  0.99638432  0.63925761  1  0.139366  0  0.125596  0.126641  0  1.025678  0
H  H12  1  0.24081307  0.14496749  0.75295564  1  0.15772  0  0.13604  0.138688  0  0.958609  0
H  H13  1  0.06425456  0.98058035  0.35924015  1  0.118168  0  0.107771  0.119073  0  1.052462  0
H  H14  1  0.15790882  0.99456349  0.25591431  1  0.114507  0  0.122907  0.125835  0  0.94938  0
H  H15  1  0.37725058  0.09778360  0.31721184  1  0.097606  0  0.11389  0.125635  0  0.993537  0
H  H16  1  0.48682328  0.18398843  0.48150812  1  0.147512  0  0.117651  0.091322  0  1.034786  0
H  H17  1  0.94677236  0.90022177  0.48458884  1  0.103615  0  0.117865  0.112589  0  0.991614  0
H  H18  1  0.95249325  0.94208302  0.41247465  1  0.134786  0  0.11296  0.106833  0  1.028363  0
H  H19  1  0.99058893  0.81873763  0.28857091  1  0.062539  0  0.100656  0.104055  0  1.044856  0
H  H20  1  0.12820100  0.70192893  0.22640083  1  0.09934  0  0.115205  0.127596  0  0.976694  0
H  H21  1  0.36081013  0.76266827  0.49053496  1  0.122436  0  0.103579  0.111847  0  1.035676  0
H  H22  1  0.22468807  0.87516884  0.55185274  1  0.084882  0  0.101168  0.112351  0  1.02572  0
H  H23  1  0.75287307  0.81216477  0.30459933  1  0.124136  0  0.104078  0.104879  0  1.023318  0
H  H24  1  0.72848376  0.73712783  0.03757735  1  0.154929  0  0.115101  0.124292  0  0.989355  0
H  H25  1  0.63931165  0.53184634  0.09976291  1  0.110238  0  0.111705  0.12205  0  1.002701  0
H  H26  1  0.96132050  0.35693698  0.36071421  1  0.126841  0  0.125259  0.126174  0  1.025017  0
H  H27  1  0.75923645  0.39176936  0.24703438  1  0.156896  0  0.136188  0.138454  0  0.958344  0
H  H28  1  0.93608993  0.62096848  0.64079640  1  0.129594  0  0.10789  0.119236  0  1.052219  0
H  H29  1  0.84226029  0.73782397  0.74430453  1  0.100753  0  0.122776  0.12532  0  0.950057  0
H  H30  1  0.62295208  0.77988346  0.68320971  1  0.09202  0  0.114016  0.125585  0  0.993141  0
H  H31  1  0.51361081  0.70242325  0.51889305  1  0.135753  0  0.117535  0.091238  0  1.034603  0
H  H32  1  0.05333508  0.41546631  0.51546941  1  0.106771  0  0.117676  0.112402  0  0.990681  0
H  H33  1  0.04788443  0.52952323  0.58749364  1  0.105328  0  0.112822  0.107382  0  1.029466  0
H  H34  1  0.01013540  0.52986274  0.71154817  1  0.047387  0  0.09977  0.103334  0  1.045126  0
H  H35  1  0.87233507  0.47537456  0.77369954  1  0.088343  0  0.115487  0.128413  0  0.975646  0
H  H36  1  0.63874208  0.27263120  0.50952305  1  0.104412  0  0.1033  0.111024  0  1.03583  0
H  H37  1  0.77490432  0.32372400  0.44818572  1  0.088293  0  0.101033  0.112274  0  1.025829  0
H  H38  1  0.44888080  0.00735141  0.69554424  1  0.085436  0  0.104195  0.104724  0  1.024496  0
H  H39  1  0.69073367  0.19989636  0.96273110  1  0.128083  0  0.114633  0.12417  0  0.989979  0
H  H40  1  0.54085581  0.93215123  0.90058072  1  0.102949  0  0.112189  0.122578  0  1.00282  0
H  H41  1  0.60016401  0.49612600  0.63917959  1  0.141219  0  0.125718  0.126033  0  1.026224  0
H  H42  1  0.51178591  0.64468606  0.75272032  1  0.164074  0  0.136808  0.139226  0  0.957826  0
H  H43  1  0.29455823  0.48011533  0.35892632  1  0.128611  0  0.108352  0.120045  0  1.052252  0
H  H44  1  0.09741883  0.49397567  0.25549776  1  0.093664  0  0.123642  0.125915  0  0.950161  0
H  H45  1  0.93960629  0.59735526  0.31669876  1  0.098632  0  0.113754  0.124951  0  0.993315  0
H  H46  1  0.99472924  0.68387288  0.48099822  1  0.127849  0  0.117594  0.0916  0  1.034439  0
H  H47  1  0.53791967  0.40019445  0.48454434  1  0.108372  0  0.117435  0.112017  0  0.990853  0
H  H48  1  0.45989184  0.44193042  0.41233976  1  0.099321  0  0.112766  0.106291  0  1.028269  0
H  H49  1  0.29815256  0.31823060  0.28841693  1  0.068031  0  0.101248  0.104646  0  1.043993  0
H  H50  1  0.09807771  0.20158369  0.22623849  1  0.101692  0  0.114402  0.127438  0  0.977305  0
H  H51  1  0.12939003  0.26275176  0.49037208  1  0.100391  0  0.103597  0.111898  0  1.035746  0
H  H52  1  0.32704239  0.37521434  0.55175021  1  0.090388  0  0.101323  0.112434  0  1.025802  0
H  H53  1  0.55102955  0.31202457  0.30425375  1  0.101665  0  0.104134  0.104702  0  1.024106  0
H  H54  1  0.30851515  0.23691188  0.03709665  1  0.120843  0  0.114952  0.12411  0  0.99045  0
H  H55  1  0.45934646  0.03165413  0.09951026  1  0.11389  0  0.111819  0.122249  0  1.002625  0
H  H56  1  0.39914991  0.85695749  0.36107209  1  0.138749  0  0.125008  0.125848  0  1.026638  0
H  H57  1  0.48719470  0.89153322  0.24719824  1  0.16261  0  0.136215  0.138142  0  0.957491  0
H  H58  1  0.70508897  0.12127191  0.64089237  1  0.119338  0  0.107805  0.119239  0  1.053403  0
H  H59  1  0.90230263  0.23846800  0.74420164  1  0.100958  0  0.123771  0.12583  0  0.949868  0
H  H60  1  0.06022958  0.28041518  0.68293038  1  0.097771  0  0.113928  0.125204  0  0.993241  0
H  H61  1  0.00493053  0.20259405  0.51859659  1  0.131121  0  0.117803  0.092126  0  1.034941  0
H  H62  1  0.46220669  0.91581058  0.51592731  1  0.111356  0  0.117561  0.112214  0  0.99036  0
H  H63  1  0.54020464  0.02977878  0.58782231  1  0.104836  0  0.112761  0.106288  0  1.029829  0
H  H64  1  0.70191529  0.02967922  0.71188796  1  0.101852  0  0.100961  0.104503  0  1.044124  0
H  H65  1  0.90166627  0.97488011  0.77385291  1  0.10615  0  0.114433  0.127312  0  0.976726  0
H  H66  1  0.87072924  0.77266158  0.50953439  1  0.091798  0  0.103596  0.111644  0  1.036026  0
H  H67  1  0.67332911  0.82397590  0.44834833  1  0.103714  0  0.101775  0.113081  0  1.025478  0
C  C68  1  0.26601831  0.52382144  0.76376305  1  -0.029622  0  -0.073333  -0.097541  0  3.948141  0
C  C69  1  0.25347913  0.61021086  0.82530312  1  -0.002605  0  -0.021058  -0.055791  0  3.987537  0
C  C70  1  0.27939500  0.63171908  0.91371787  1  -0.037869  0  -0.057393  -0.070497  0  3.871242  0
C  C71  1  0.31499108  0.56661306  0.93992103  1  0.021695  0  -0.011015  -0.019701  0  3.937301  0
C  C72  1  0.33011571  0.48109124  0.87837321  1  -0.055825  0  -0.067031  -0.084781  0  3.901929  0
C  C73  1  0.30699559  0.45979399  0.79063511  1  0.007598  0  -0.022099  -0.053646  0  4.019791  0
C  C74  1  0.34200323  0.58807926  0.03438944  1  1.587477  0  0.19935  0.570472  0  4.240175  0
C  C75  1  0.32548789  0.36954689  0.72562274  1  1.517368  0  0.213014  0.584798  0  4.159346  0
C  C76  1  0.21845962  0.68031517  0.79729585  1  1.552067  0  0.221675  0.597886  0  4.158081  0
C  C77  1  0.10441428  0.03320250  0.62588728  1  0.34041  0  0.016403  -0.082103  0  3.881831  0
C  C78  1  0.20455551  0.10697772  0.68123261  1  0.414977  0  0.021294  0.003808  0  3.973399  0
C  C79  1  0.19189821  0.06750154  0.54554181  1  0.937739  0  0.21189  0.173871  0  3.988388  0
C  C80  1  0.23103696  0.07011123  0.47580629  1  0.422718  0  0.119887  0.156808  0  4.007254  0
C  C81  1  0.16043847  0.02217787  0.38495069  1  0.085  0  -0.07854  -0.151613  0  3.925455  0
C  C82  1  0.21277206  0.03095313  0.32667369  1  -0.052738  0  -0.056792  -0.013183  0  3.943253  0
C  C83  1  0.33285492  0.08798488  0.35980189  1  -0.103068  0  -0.076378  -0.121267  0  3.962206  0
C  C84  1  0.39544097  0.13592157  0.45106705  1  0.551103  0  0.054751  0.11128  0  3.930677  0
C  C85  1  0.01443928  0.92589037  0.46230229  1  0.236467  0  -0.047543  -0.118188  0  3.859279  0
C  C86  1  0.09787461  0.85534160  0.42414976  1  -0.003692  0  -0.008544  0.096236  0  3.961079  0
C  C87  1  0.07161588  0.80591112  0.33261708  1  -0.062159  0  -0.091688  -0.137546  0  3.976044  0
C  C88  1  0.14817510  0.74059218  0.29755039  1  -0.03803  0  -0.077876  -0.077941  0  3.949091  0
C  C89  1  0.25385301  0.72480259  0.35411145  1  -0.091335  0  -0.02636  -0.062936  0  4.009257  0
C  C90  1  0.28041672  0.77462069  0.44563953  1  -0.032206  0  -0.087083  -0.096357  0  3.994852  0
C  C91  1  0.20264719  0.83879726  0.48038734  1  -0.007312  0  -0.093764  -0.138742  0  3.968131  0
C  C92  1  0.33642274  0.65477871  0.31681273  1  1.548623  0  0.218584  0.59189  0  4.191281  0
C  C93  1  0.73399788  0.76038828  0.23616821  1  -0.039959  0  -0.071914  -0.095336  0  3.947244  0
C  C94  1  0.74662947  0.78515563  0.17458595  1  -0.018858  0  -0.021722  -0.057392  0  3.989492  0
C  C95  1  0.72083477  0.71822278  0.08619391  1  -0.022533  0  -0.057962  -0.070041  0  3.870945  0
C  C96  1  0.68517496  0.62692760  0.06004195  1  -0.04634  0  -0.011172  -0.020001  0  3.936961  0
C  C97  1  0.66984718  0.60304935  0.12161797  1  0.042687  0  -0.066342  -0.083373  0  3.903346  0
C  C98  1  0.69291578  0.66951777  0.20933916  1  -0.061021  0  -0.023429  -0.056697  0  4.022936  0
C  C99  1  0.65839132  0.55382228  0.96562313  1  1.573584  0  0.199191  0.569616  0  4.241435  0
C  C100  1  0.67456086  0.64434015  0.27444240  1  1.51993  0  0.213814  0.586325  0  4.160143  0
C  C101  1  0.78148974  0.88325368  0.20256221  1  1.536499  0  0.221141  0.597762  0  4.157012  0
C  C102  1  0.89574659  0.40717260  0.37409764  1  0.327468  0  0.016535  -0.081467  0  3.879747  0
C  C103  1  0.79557137  0.42559045  0.31876432  1  0.453877  0  0.021621  0.004604  0  3.97082  0
C  C104  1  0.80851307  0.52195717  0.45446928  1  0.952116  0  0.212387  0.175413  0  3.987257  0
C  C105  1  0.76946118  0.59426777  0.52425881  1  0.457047  0  0.121059  0.159125  0  4.004233  0
C  C106  1  0.83998590  0.63694247  0.61511185  1  -0.021095  0  -0.079739  -0.153207  0  3.924624  0
C  C107  1  0.78759105  0.70376684  0.67351848  1  -0.018903  0  -0.056745  -0.012524  0  3.943191  0
C  C108  1  0.66751074  0.72773807  0.64049876  1  -0.068807  0  -0.075819  -0.120585  0  3.959559  0
C  C109  1  0.60505520  0.68473933  0.54921073  1  0.573724  0  0.054833  0.110885  0  3.92887  0
C  C110  1  0.98578393  0.46353142  0.53771686  1  0.250031  0  -0.048053  -0.11941  0  3.85947  0
C  C111  1  0.90224619  0.43126066  0.57591342  1  -0.029769  0  -0.008342  0.096495  0  3.96213  0
C  C112  1  0.92880473  0.47321225  0.66746664  1  0.00297  0  -0.089957  -0.135232  0  3.974793  0
C  C113  1  0.85219271  0.44303604  0.70255006  1  -0.062583  0  -0.07869  -0.080672  0  3.949782  0
C  C114  1  0.74621043  0.37089841  0.64599604  1  0.056757  0  -0.026057  -0.061642  0  4.007747  0
C  C115  1  0.71935871  0.32933196  0.55445209  1  -0.097747  0  -0.087633  -0.09569  0  3.994143  0
C  C116  1  0.79713488  0.35870898  0.51967016  1  -0.060111  0  -0.09321  -0.139108  0  3.968933  0
C  C117  1  0.66364454  0.33816153  0.68329776  1  1.554578  0  0.218137  0.591279  0  4.191587  0
C  C118  1  0.49840971  0.02414657  0.76402039  1  -0.001825  0  -0.072404  -0.096892  0  3.94993  0
C  C119  1  0.57245975  0.11061118  0.82559753  1  -0.013194  0  -0.021  -0.056052  0  3.987375  0
C  C120  1  0.63474153  0.13225557  0.91408301  1  -0.039243  0  -0.058439  -0.07097  0  3.872085  0
C  C121  1  0.62539561  0.06713471  0.94026522  1  0.062151  0  -0.0102  -0.019241  0  3.936566  0
C  C122  1  0.54894596  0.98148442  0.87863173  1  -0.089737  0  -0.06769  -0.085424  0  3.906281  0
C  C123  1  0.48425662  0.96011105  0.79087656  1  -0.015891  0  -0.021688  -0.053403  0  4.022553  0
C  C124  1  0.69264486  0.08859822  0.03477747  1  1.582694  0  0.198781  0.569575  0  4.239308  0
C  C125  1  0.40083322  0.86975990  0.72576501  1  1.532923  0  0.213183  0.584462  0  4.159857  0
C  C126  1  0.57968669  0.18067784  0.79757551  1  1.5418  0  0.222032  0.598275  0  4.155963  0
C  C127  1  0.52125373  0.53299133  0.62575208  1  0.301009  0  0.018037  -0.079065  0  3.882317  0
C  C128  1  0.47644851  0.60674678  0.68100477  1  0.459227  0  0.019171  0.000902  0  3.975514  0
C  C129  1  0.35365819  0.56736920  0.54524508  1  0.941037  0  0.21249  0.174477  0  3.986698  0
C  C130  1  0.24472403  0.56995284  0.47546507  1  0.5389  0  0.122275  0.160171  0  4.00312  0
C  C131  1  0.22423299  0.52182540  0.38460993  1  -0.03365  0  -0.081368  -0.156203  0  3.926807  0
C  C132  1  0.11356190  0.53053240  0.32626696  1  -0.022756  0  -0.055837  -0.011473  0  3.944571  0
C  C133  1  0.02667915  0.58761312  0.35932727  1  0.008884  0  -0.076533  -0.12063  0  3.960245  0
C  C134  1  0.05561713  0.63577002  0.45060687  1  0.449973  0  0.052964  0.109647  0  3.930942  0
C  C135  1  0.44785328  0.42574926  0.46217891  1  0.266988  0  -0.046439  -0.115382  0  3.857684  0
C  C136  1  0.32627148  0.35511682  0.42401380  1  -0.108971  0  -0.010559  0.093078  0  3.962373  0
C  C137  1  0.26103123  0.30554958  0.33246918  1  0.024534  0  -0.091493  -0.13667  0  3.973254  0
C  C138  1  0.14923931  0.24030672  0.29739519  1  -0.026309  0  -0.077274  -0.079436  0  3.948359  0
C  C139  1  0.10000571  0.22468682  0.35396255  1  -0.012367  0  -0.024095  -0.058357  0  4.006397  0
C  C140  1  0.16500254  0.27459546  0.44549194  1  -0.071573  0  -0.088451  -0.097571  0  3.997127  0
C  C141  1  0.27762309  0.33875528  0.48026906  1  -0.053262  0  -0.093038  -0.138319  0  3.970064  0
C  C142  1  0.97999596  0.15473991  0.31671444  1  1.562977  0  0.218308  0.590535  0  4.192185  0
C  C143  1  0.50139661  0.26020692  0.23584059  1  -0.011347  0  -0.072868  -0.097178  0  3.94966  0
C  C144  1  0.42718432  0.28497429  0.17422221  1  -0.002729  0  -0.020655  -0.055579  0  3.987806  0
C  C145  1  0.36475824  0.21804815  0.08577838  1  -0.025627  0  -0.058891  -0.071259  0  3.872332  0
C  C146  1  0.37428316  0.12677211  0.05967161  1  -0.050065  0  -0.010828  -0.019288  0  3.936335  0
C  C147  1  0.45092650  0.10287473  0.12134698  1  0.061969  0  -0.066714  -0.084199  0  3.903598  0
C  C148  1  0.51557934  0.16935270  0.20908687  1  -0.079181  0  -0.021669  -0.054652  0  4.020915  0
C  C149  1  0.30706456  0.05363909  0.96520411  1  1.576951  0  0.197769  0.569078  0  4.241472  0
C  C150  1  0.59914338  0.14432287  0.27433572  1  1.530564  0  0.213562  0.585367  0  4.157388  0
C  C151  1  0.42026821  0.38309731  0.20226683  1  1.538948  0  0.221629  0.598484  0  4.154707  0
C  C152  1  0.47814640  0.90713874  0.37436604  1  0.313297  0  0.017268  -0.081047  0  3.879972  0
C  C153  1  0.52278074  0.92546755  0.31893754  1  0.436446  0  0.020777  0.00521  0  3.970457  0
C  C154  1  0.64591707  0.02193215  0.45457475  1  0.942527  0  0.211752  0.174028  0  3.988983  0
C  C155  1  0.75486566  0.09432294  0.52426300  1  0.46702  0  0.122301  0.160406  0  4.004319  0
C  C156  1  0.77539954  0.13718903  0.61513409  1  0.029864  0  -0.080435  -0.155032  0  3.927089  0
C  C157  1  0.88614773  0.20419324  0.67342131  1  -0.044283  0  -0.056162  -0.010845  0  3.94347  0
C  C158  1  0.97305932  0.22809955  0.64030191  1  0.042352  0  -0.076493  -0.121357  0  3.960605  0
C  C159  1  0.94401372  0.18492289  0.54900467  1  0.451908  0  0.052734  0.109565  0  3.931292  0
C  C160  1  0.55218196  0.96371124  0.53803156  1  0.247389  0  -0.047258  -0.116504  0  3.858273  0
C  C161  1  0.67390822  0.93130364  0.57615051  1  -0.115616  0  -0.010153  0.094356  0  3.960963  0
C  C162  1  0.73902285  0.97305424  0.66771198  1  0.019488  0  -0.090937  -0.136797  0  3.973328  0
C  C163  1  0.85069643  0.94273074  0.70269138  1  -0.068736  0  -0.078075  -0.07899  0  3.94788  0
C  C164  1  0.90003957  0.87069286  0.64604833  1  0.024729  0  -0.023468  -0.059395  0  4.006259  0
C  C165  1  0.83519374  0.82932690  0.55451830  1  -0.094934  0  -0.088909  -0.096782  0  3.997135  0
C  C166  1  0.72265177  0.85881751  0.51983410  1  -0.030491  0  -0.093621  -0.139854  0  3.969913  0
C  C167  1  0.01998659  0.83791362  0.68323661  1  1.542095  0  0.218374  0.591007  0  4.19112  0
N  N168  1  0.09663605  0.00886966  0.54048806  1  -1.189545  0  -0.228032  0.020369  0  3.723825  0
N  N169  1  0.25706342  0.12730033  0.63062673  1  -1.216946  0  -0.344361  -0.325272  0  3.551421  0
N  N170  1  0.34683063  0.12717049  0.50766337  1  -1.239573  0  -0.321829  -0.274599  0  3.501992  0
N  N171  1  0.90365651  0.46831642  0.45950485  1  -1.210075  0  -0.22825  0.019625  0  3.722712  0
N  N172  1  0.74324056  0.49663752  0.36938713  1  -1.214865  0  -0.344592  -0.326601  0  3.55047  0
N  N173  1  0.65372121  0.61956794  0.49248458  1  -1.246119  0  -0.322157  -0.275716  0  3.498607  0
N  N174  1  0.44378995  0.50871621  0.54030825  1  -1.207602  0  -0.23009  0.017955  0  3.726626  0
N  N175  1  0.37353277  0.62715060  0.63030370  1  -1.215439  0  -0.343882  -0.324337  0  3.550701  0
N  N176  1  0.16089807  0.62708479  0.50727280  1  -1.24381  0  -0.32062  -0.274111  0  3.498634  0
N  N177  1  0.55585758  0.96835801  0.45973589  1  -1.217182  0  -0.228453  0.0194  0  3.724178  0
N  N178  1  0.62588849  0.99648645  0.36945319  1  -1.200667  0  -0.343943  -0.32684  0  3.549512  0
N  N179  1  0.83864969  0.11959971  0.49238882  1  -1.243789  0  -0.321225  -0.275045  0  3.50129  0
O  O180  1  0.35446056  0.51556134  0.04377453  1  -1.151153  0  -0.343876  -0.57818  0  2.329073  0
O  O181  1  0.35224275  0.66672338  0.09443707  1  -1.173498  0  -0.339375  -0.554326  0  2.056016  0
O  O182  1  0.26072925  0.33335193  0.64518472  1  -1.172787  0  -0.299365  -0.520232  0  2.15566  0
O  O183  1  0.41278921  0.32789822  0.75699563  1  -1.185062  0  -0.332079  -0.593109  0  2.47641  0
O  O184  1  0.16960019  0.65354780  0.71409268  1  -1.203669  0  -0.327432  -0.580023  0  2.372496  0
O  O185  1  0.24107811  0.76247723  0.85853488  1  -1.161317  0  -0.307604  -0.524611  0  2.305016  0
O  O186  1  0.44253161  0.65242652  0.37059196  1  -1.192404  0  -0.313816  -0.555629  0  2.375542  0
O  O187  1  0.29255219  0.60254030  0.23320279  1  -1.161882  0  -0.315145  -0.555843  0  2.368184  0
O  O188  1  0.64591941  0.47193470  0.95629377  1  -1.149112  0  -0.343112  -0.577691  0  2.328583  0
O  O189  1  0.64839770  0.57234318  0.90555395  1  -1.165107  0  -0.339976  -0.554151  0  2.056096  0
O  O190  1  0.73935502  0.68867512  0.35486156  1  -1.173623  0  -0.299714  -0.520628  0  2.156682  0
O  O191  1  0.58745449  0.57122095  0.24314333  1  -1.185915  0  -0.332044  -0.593875  0  2.477434  0
O  O192  1  0.83046836  0.93966512  0.28578583  1  -1.205567  0  -0.326943  -0.579947  0  2.3717  0
O  O193  1  0.75866237  0.90423408  0.14136846  1  -1.160118  0  -0.307651  -0.524225  0  2.304668  0
O  O194  1  0.55740320  0.28216318  0.62953588  1  -1.19843  0  -0.314031  -0.555679  0  2.377221  0
O  O195  1  0.70768654  0.36936870  0.76687901  1  -1.151856  0  -0.314467  -0.555403  0  2.369368  0
O  O196  1  0.68908035  0.01604027  0.04407470  1  -1.152119  0  -0.342703  -0.577917  0  2.32949  0
O  O197  1  0.74270757  0.16719599  0.09487461  1  -1.174823  0  -0.339503  -0.553212  0  2.055692  0
O  O198  1  0.38497909  0.83370394  0.64533452  1  -1.167225  0  -0.299273  -0.519871  0  2.154798  0
O  O199  1  0.34501988  0.82789162  0.75699263  1  -1.185587  0  -0.332684  -0.593257  0  2.477562  0
O  O200  1  0.54536571  0.15384503  0.71435511  1  -1.201306  0  -0.327395  -0.580063  0  2.372209  0
O  O201  1  0.61853413  0.26283917  0.85878434  1  -1.161774  0  -0.308224  -0.524855  0  2.303925  0
O  O202  1  0.92760190  0.15256394  0.37049122  1  -1.186802  0  -0.315343  -0.556192  0  2.37689  0
O  O203  1  0.94026529  0.10232415  0.23313722  1  -1.161707  0  -0.313908  -0.555212  0  2.368306  0
O  O204  1  0.31055817  0.97180168  0.95595277  1  -1.150966  0  -0.342291  -0.578134  0  2.329891  0
O  O205  1  0.25708352  0.07206997  0.90505457  1  -1.168002  0  -0.33928  -0.553175  0  2.055846  0
O  O206  1  0.61491509  0.18876538  0.35474615  1  -1.167997  0  -0.299394  -0.520057  0  2.154638  0
O  O207  1  0.65502098  0.07125021  0.24317000  1  -1.188874  0  -0.33263  -0.593328  0  2.477685  0
O  O208  1  0.45481399  0.43945041  0.28550811  1  -1.20527  0  -0.326786  -0.580379  0  2.370153  0
O  O209  1  0.38151768  0.40410454  0.14109553  1  -1.162087  0  -0.308424  -0.524815  0  2.303007  0
O  O210  1  0.07241505  0.78205049  0.62939048  1  -1.191463  0  -0.315632  -0.556668  0  2.376535  0
O  O211  1  0.05969897  0.86892105  0.76677713  1  -1.150042  0  -0.313317  -0.55469  0  2.369924  0
