# generated using pymatgen
data_MnH12C16(N5O)2
_symmetry_space_group_name_H-M   'P 1'
_cell_length_a   6.85443352
_cell_length_b   7.07171764
_cell_length_c   9.43876811
_cell_angle_alpha   107.50356091
_cell_angle_beta   100.64724818
_cell_angle_gamma   93.34945456
_symmetry_Int_Tables_number   1
_chemical_formula_structural   MnH12C16(N5O)2
_chemical_formula_sum   'Mn1 H12 C16 N10 O2'
_cell_volume   425.64196582
_cell_formula_units_Z   1
loop_
 _symmetry_equiv_pos_site_id
 _symmetry_equiv_pos_as_xyz
  1  'x, y, z'
loop_
 _atom_site_type_symbol
 _atom_site_label
 _atom_site_symmetry_multiplicity
 _atom_site_fract_x
 _atom_site_fract_y
 _atom_site_fract_z
 _atom_site_occupancy
 _atom_site_pbe_cm5_charge
 _atom_site_pbe_ddec_charge
 _atom_site_pbe_ddec_spin_density
 _atom_site_pbe_ddec_sum_bond_order
 _atom_site_pbe_magmom
Mn  Mn0  1  0.98936112  0.99497124  0.98984304  1  0.795833  0.710975  -1.038553  3.781135  -0.994
H  H1  1  0.53099539  0.42750390  0.76254172  1  0.292643  0.288647  0.000229  1.034439  0.0
H  H2  1  0.47123916  0.57344913  0.23949769  1  0.292497  0.288985  0.000221  1.035215  0.0
H  H3  1  0.78918626  0.48162723  0.82726554  1  0.311226  0.309374  0.000253  0.953652  0.0
H  H4  1  0.21282736  0.52179001  0.17500564  1  0.311542  0.311878  0.000224  0.947431  0.0
H  H5  1  0.44994681  0.98995988  0.09281452  1  0.115183  0.07976  0.000263  1.038225  0.0
H  H6  1  0.55099691  0.00716324  0.91015317  1  0.11912  0.084644  0.000263  1.039335  0.0
H  H7  1  0.73114207  0.11571033  0.32097033  1  0.111788  0.119579  0.000155  1.034604  0.0
H  H8  1  0.27275981  0.88553859  0.68225561  1  0.112194  0.119592  0.000163  1.036876  0.0
H  H9  1  0.28781743  0.31860817  0.58658133  1  0.111391  0.118556  -3.7e-05  1.034371  0.0
H  H10  1  0.71695927  0.68597812  0.41672145  1  0.112002  0.120229  -2e-05  1.031983  0.0
H  H11  1  0.03247870  0.18958434  0.35296257  1  0.121562  0.092939  0.00022  1.025979  0.0
H  H12  1  0.97096267  0.81384105  0.64924831  1  0.123905  0.096732  0.000232  1.027516  0.0
C  C13  1  0.79304104  0.37587047  0.11129310  1  0.313841  0.428109  0.001982  4.19418  0.001
C  C14  1  0.20152837  0.62065704  0.88385158  1  0.315392  0.428353  0.001915  4.190976  0.001
C  C15  1  0.78517882  0.68899628  0.10826899  1  0.30819  0.427013  0.015224  4.182031  0.012
C  C16  1  0.20824546  0.30730307  0.88606071  1  0.306738  0.427214  0.015365  4.180976  0.012
C  C17  1  0.42238218  0.06536076  0.20467266  1  0.047174  0.080586  0.000898  3.958706  0.0
C  C18  1  0.57988787  0.93397359  0.79850856  1  0.044517  0.075932  0.000409  3.928222  -0.001
C  C19  1  0.57771668  0.13468699  0.33133858  1  -0.079802  -0.145274  0.001395  3.955887  0.001
C  C20  1  0.42592384  0.86620894  0.67140297  1  -0.079572  -0.143635  0.002798  3.964267  0.001
C  C21  1  0.53602865  0.23146734  0.47320921  1  0.001775  0.00349  0.001261  3.950277  0.001
C  C22  1  0.46712549  0.77033722  0.52915467  1  -0.000249  0.001339  0.003135  3.951387  0.002
C  C23  1  0.33575174  0.24818106  0.48125740  1  -0.07463  -0.134322  0.00122  3.901656  0.001
C  C24  1  0.66788468  0.75465012  0.52189607  1  -0.074927  -0.134476  0.002755  3.907603  0.001
C  C25  1  0.18823951  0.17443689  0.34856084  1  0.059169  0.10488  0.000917  3.900827  0.0
C  C26  1  0.81530491  0.82761569  0.65428958  1  0.057731  0.10095  0.000143  3.871028  -0.001
C  C27  1  0.71178240  0.31544907  0.60509544  1  0.236518  0.537317  0.000692  4.154334  0.0
C  C28  1  0.29137850  0.68715799  0.39747016  1  0.235118  0.535243  0.001909  4.159341  0.001
N  N29  1  0.71262985  0.54155594  0.14780993  1  -0.30637  -0.398004  -0.019228  3.53141  -0.021
N  N30  1  0.28792223  0.45806357  0.85374516  1  -0.307319  -0.398854  -0.019482  3.52743  -0.022
N  N31  1  0.85948902  0.22225074  0.07787438  1  -0.398136  -0.482891  -0.000774  3.456147  0.004
N  N32  1  0.12946070  0.77153391  0.91141767  1  -0.400261  -0.483998  -0.000698  3.451978  0.004
N  N33  1  0.84413834  0.82216080  0.07046523  1  -0.392529  -0.478903  -0.002599  3.430804  -0.004
N  N34  1  0.14252584  0.17086857  0.91709870  1  -0.391962  -0.477509  -0.002749  3.432457  -0.004
N  N35  1  0.23053880  0.08715307  0.21214824  1  -0.283849  -0.180704  0.011053  3.466706  0.012
N  N36  1  0.77356186  0.91281892  0.79234870  1  -0.315191  -0.165765  0.015915  3.556734  0.019
N  N37  1  0.67112682  0.41107262  0.74148456  1  -0.571093  -0.629374  0.000448  3.369597  0.0
N  N38  1  0.33134952  0.59072962  0.26087509  1  -0.57124  -0.631807  0.000995  3.366572  0.001
O  O39  1  0.88523593  0.29928473  0.58565051  1  -0.303488  -0.502479  0.000401  2.087008  0.0
O  O40  1  0.11796098  0.70442269  0.41689510  1  -0.306429  -0.504318  0.001086  2.083999  0.001
