# generated using pymatgen
data_CuH26C28(NO)6
_symmetry_space_group_name_H-M   'P 1'
_cell_length_a   7.77212442
_cell_length_b   9.52680454
_cell_length_c   10.19534120
_cell_angle_alpha   71.34351489
_cell_angle_beta   69.28525660
_cell_angle_gamma   72.85491667
_symmetry_Int_Tables_number   1
_chemical_formula_structural   CuH26C28(NO)6
_chemical_formula_sum   'Cu1 H26 C28 N6 O6'
_cell_volume   654.79076109
_cell_formula_units_Z   1
loop_
 _symmetry_equiv_pos_site_id
 _symmetry_equiv_pos_as_xyz
  1  'x, y, z'
loop_
 _atom_site_type_symbol
 _atom_site_label
 _atom_site_symmetry_multiplicity
 _atom_site_fract_x
 _atom_site_fract_y
 _atom_site_fract_z
 _atom_site_occupancy
 _atom_site_pbe_cm5_charge
 _atom_site_pbe_ddec_charge
 _atom_site_pbe_ddec_spin_density
 _atom_site_pbe_ddec_sum_bond_order
 _atom_site_pbe_magmom
Cu  Cu0  1  0.99999931  0.49999889  0.50000073  1  0.741529  0.735002  -0.716247  2.197951  -0.55
H  H1  1  0.45339736  0.27445765  0.26955067  1  0.307769  0.292197  -4.5e-05  0.997049  0.0
H  H2  1  0.54660430  0.72554161  0.73044682  1  0.30777  0.292192  -4.5e-05  0.99711  0.0
H  H3  1  0.71476382  0.24000546  0.80776875  1  0.111359  0.085801  -0.000198  1.034833  0.0
H  H4  1  0.28523565  0.75999149  0.19223392  1  0.111365  0.085816  -0.000198  1.034812  0.0
H  H5  1  0.25644062  0.24641870  0.20044489  1  0.108573  0.111053  1.9e-05  1.046205  0.0
H  H6  1  0.74355731  0.75359070  0.79955367  1  0.108566  0.111099  1.9e-05  1.046154  0.0
H  H7  1  0.85184943  0.47828614  0.06741511  1  0.109572  0.129932  -0.000435  1.054097  -0.001
H  H8  1  0.14815200  0.52171418  0.93258509  1  0.109573  0.129945  -0.000435  1.05409  -0.001
H  H9  1  0.00328273  0.55782834  0.20199988  1  0.120654  0.105763  -0.000758  1.033713  -0.001
H  H10  1  0.99671350  0.44217657  0.79800043  1  0.120687  0.105804  -0.000758  1.033723  -0.001
H  H11  1  0.67140702  0.35389651  0.59686671  1  0.118853  0.087548  -0.000867  1.036207  -0.002
H  H12  1  0.32859158  0.64609822  0.40313585  1  0.118856  0.087487  -0.000867  1.036323  -0.002
H  H13  1  0.50014172  0.27476068  0.47972669  1  0.11322  0.134021  -0.000494  1.017118  -0.001
H  H14  1  0.49985906  0.72523639  0.52026873  1  0.113255  0.134043  -0.000494  1.017078  -0.001
H  H15  1  0.70037620  0.02012129  0.47439360  1  0.095331  0.112398  -0.000937  0.995202  -0.001
H  H16  1  0.29963079  0.97987886  0.52561004  1  0.095302  0.112355  -0.000937  0.995281  -0.001
H  H17  1  0.83408116  0.00065217  0.29599767  1  0.094066  0.105773  0.000143  0.996807  0.0
H  H18  1  0.16592113  0.99935036  0.70400362  1  0.094089  0.105792  0.000143  0.996781  0.0
H  H19  1  0.13225040  0.96391842  0.35630664  1  0.090683  0.090913  -0.000128  0.993209  0.0
H  H20  1  0.86775814  0.03607502  0.64369456  1  0.090649  0.090883  -0.000128  0.993219  0.0
H  H21  1  0.98186470  0.14031881  0.37501676  1  0.086065  0.080439  -0.000103  1.019737  0.0
H  H22  1  0.01814530  0.85968021  0.62498442  1  0.086108  0.080473  -0.000103  1.01978  0.0
H  H23  1  0.22709559  0.11863263  0.84151642  1  0.10958  0.076927  -4e-05  0.998348  0.0
H  H24  1  0.77289484  0.88137351  0.15848413  1  0.109555  0.076925  -3.9e-05  0.998333  0.0
H  H25  1  0.07849682  0.16009730  0.08967769  1  0.106841  0.112302  2e-06  1.00538  0.0
H  H26  1  0.92150139  0.83991093  0.91032310  1  0.106843  0.112354  2e-06  1.005308  0.0
C  C27  1  0.57267307  0.22340208  0.87175293  1  0.04874  0.06941  7.2e-05  3.950431  0.0
C  C28  1  0.42731979  0.77659953  0.12824727  1  0.048672  0.069278  7.2e-05  3.950479  0.0
C  C29  1  0.50030250  0.25258739  0.00996707  1  -0.016831  -0.087316  -8e-05  3.979189  0.0
C  C30  1  0.49969535  0.74741642  0.99003115  1  -0.016793  -0.087266  -8e-05  3.979108  0.0
C  C31  1  0.32010876  0.22710802  0.09199760  1  -0.065039  -0.057348  8.9e-05  3.925625  0.0
C  C32  1  0.67988972  0.77289906  0.90800442  1  -0.065013  -0.057343  8.9e-05  3.92567  0.0
C  C33  1  0.62346589  0.31108772  0.05534305  1  0.243684  0.479228  0.000431  4.111242  0.0
C  C34  1  0.37651589  0.68890837  0.94466370  1  0.243581  0.479244  0.000431  4.111566  0.0
C  C35  1  0.66482534  0.36616487  0.26174323  1  0.121847  0.293198  0.00302  3.991254  0.002
C  C36  1  0.33517052  0.63383561  0.73825451  1  0.121849  0.293218  0.00302  3.991315  0.002
C  C37  1  0.80817924  0.44872726  0.18431040  1  -0.094203  -0.233751  -0.003638  3.936498  -0.004
C  C38  1  0.19182215  0.55127315  0.81568587  1  -0.094237  -0.233826  -0.003638  3.936607  -0.004
C  C39  1  0.89258237  0.49324437  0.25936805  1  0.043276  0.097726  0.001047  3.941444  0.0
C  C40  1  0.10741680  0.50675380  0.74063043  1  0.043314  0.097725  0.001048  3.94142  0.0
C  C41  1  0.70684540  0.38105551  0.47977278  1  0.042825  0.099604  0.000546  3.974895  0.0
C  C42  1  0.29315650  0.61893691  0.52022953  1  0.042788  0.099664  0.000546  3.975076  0.0
C  C43  1  0.61278278  0.33500726  0.41359843  1  -0.086982  -0.223233  -0.003717  3.92873  -0.004
C  C44  1  0.38722079  0.66498969  0.58640018  1  -0.087047  -0.223278  -0.003718  3.928566  -0.004
C  C45  1  0.85586164  0.79609750  0.46254245  1  0.203688  0.627261  0.002623  4.137944  0.004
C  C46  1  0.14414252  0.20390283  0.53745504  1  0.203751  0.627389  0.002623  4.137874  0.004
C  C47  1  0.83517822  0.96645966  0.40954175  1  -0.16703  -0.294121  -0.006904  3.920201  -0.007
C  C48  1  0.16482874  0.03354055  0.59045894  1  -0.167044  -0.294137  -0.006905  3.92014  -0.007
C  C49  1  0.99758200  0.01762966  0.42195736  1  -0.166042  -0.124795  0.000126  3.906265  0.0
C  C50  1  0.00242437  0.98236719  0.57804346  1  -0.166082  -0.124836  0.000125  3.906252  0.0
C  C51  1  0.30424549  0.15421187  0.89232446  1  0.046179  0.097184  8e-05  3.986697  0.0
C  C52  1  0.69574684  0.84578625  0.10768276  1  0.046248  0.097278  8e-05  3.98658  0.0
C  C53  1  0.22085539  0.17752204  0.03133781  1  -0.083988  -0.123794  -7e-05  3.971938  0.0
C  C54  1  0.77914381  0.82247605  0.96866461  1  -0.084027  -0.123942  -7e-05  3.971961  0.0
N  N55  1  0.57127415  0.31434884  0.19845033  1  -0.388508  -0.374132  0.000232  3.535331  0.0
N  N56  1  0.42872999  0.68565153  0.80154519  1  -0.388494  -0.374211  0.000232  3.535223  0.0
N  N57  1  0.84544495  0.45861372  0.40481063  1  -0.367283  -0.251348  -0.056055  3.656591  -0.072
N  N58  1  0.15455506  0.54138670  0.59518600  1  -0.367289  -0.251348  -0.056056  3.656726  -0.072
N  N59  1  0.47839662  0.17522388  0.81290634  1  -0.328093  -0.278438  -0.000162  3.327443  0.0
N  N60  1  0.52159625  0.82477770  0.18709582  1  -0.328094  -0.278424  -0.000162  3.327494  0.0
O  O61  1  0.76698808  0.35245024  0.96620602  1  -0.280285  -0.469533  -0.000202  2.171683  0.0
O  O62  1  0.23301992  0.64755124  0.03378617  1  -0.28016  -0.46942  -0.000201  2.172269  0.0
O  O63  1  0.75663630  0.73716555  0.58521242  1  -0.328259  -0.601928  -0.000186  2.242256  -0.003
O  O64  1  0.24336790  0.26283470  0.41478900  1  -0.328242  -0.601943  -0.000186  2.24237  -0.003
O  O65  1  0.98410560  0.71617392  0.37936389  1  -0.321022  -0.536434  -0.075287  2.276298  -0.105
O  O66  1  0.01589606  0.28382534  0.62063361  1  -0.32107  -0.536498  -0.075287  2.276218  -0.105
