# generated using pymatgen
data_DyH25C36(NO4)2
_symmetry_space_group_name_H-M   'P 1'
_cell_length_a   9.76894624
_cell_length_b   12.38902222
_cell_length_c   13.55900000
_cell_angle_alpha   73.78743004
_cell_angle_beta   84.27403115
_cell_angle_gamma   78.81354903
_symmetry_Int_Tables_number   1
_chemical_formula_structural   DyH25C36(NO4)2
_chemical_formula_sum   'Dy2 H50 C72 N4 O16'
_cell_volume   1544.00502407
_cell_formula_units_Z   2
loop_
 _symmetry_equiv_pos_site_id
 _symmetry_equiv_pos_as_xyz
  1  'x, y, z'
loop_
 _atom_site_type_symbol
 _atom_site_label
 _atom_site_symmetry_multiplicity
 _atom_site_fract_x
 _atom_site_fract_y
 _atom_site_fract_z
 _atom_site_occupancy
 _atom_site_hle17_bader_spin_density
 _atom_site_hle17_ddec_charge
 _atom_site_hle17_ddec_spin_density
 _atom_site_hle17_ddec_sum_bond_order
 _atom_site_hle17_magmom
 _atom_site_hse06_10hf_bader_spin_density
 _atom_site_hse06_10hf_ddec_charge
 _atom_site_hse06_10hf_ddec_spin_density
 _atom_site_hse06_10hf_ddec_sum_bond_order
 _atom_site_hse06_10hf_magmom
 _atom_site_hse06_bader_spin_density
 _atom_site_hse06_ddec_charge
 _atom_site_hse06_ddec_spin_density
 _atom_site_hse06_ddec_sum_bond_order
 _atom_site_hse06_magmom
 _atom_site_pbe_bader_charge
 _atom_site_pbe_bader_spin_density
 _atom_site_pbe_cm5_charge
 _atom_site_pbe_ddec_charge
 _atom_site_pbe_ddec_spin_density
 _atom_site_pbe_ddec_sum_bond_order
 _atom_site_pbe_magmom
Dy  Dy0  1  0.61424530  0.11967384  0.45660495  1  0  2.163391  0  1.713712  0  0  1.984686  0  2.216919  0  0  2.039516  0  2.172656  0  2.147555  0  1.522106  1.942582  0  2.252391  0
Dy  Dy1  1  0.38575304  0.88032688  0.54339484  1  0  2.16338  0  1.713696  0  0  1.984682  0  2.216904  0  0  2.039538  0  2.172597  0  2.147556  0  1.52209  1.942575  0  2.252377  0
H  H2  1  0.92354103  0.04001676  0.57799518  1  0  0.094662  0  0.943178  0  0  0.100558  0  1.009911  0  0  0.104179  0  1.005549  0  0.141593  0  0.125004  0.097632  0  1.013518  0
H  H3  1  0.07645665  0.95998226  0.42200583  1  0  0.094661  0  0.94317  0  0  0.100565  0  1.009894  0  0  0.104181  0  1.005537  0  0.141596  0  0.125002  0.097639  0  1.0135  0
H  H4  1  0.08683433  0.10894836  0.66488827  1  0  0.103879  0  0.98104  0  0  0.110833  0  1.047803  0  0  0.113552  0  1.04775  0  0.124588  0  0.105639  0.108778  0  1.04814  0
H  H5  1  0.91316335  0.89105066  0.33511347  1  0  0.103876  0  0.981058  0  0  0.110837  0  1.0478  0  0  0.113551  0  1.047762  0  0.124576  0  0.105644  0.108781  0  1.048138  0
H  H6  1  0.04717676  0.31864881  0.66079732  1  0  0.099127  0  0.935413  0  0  0.112093  0  0.991814  0  0  0.114904  0  0.990484  0  0.077336  0  0.109967  0.110164  0  0.992742  0
H  H7  1  0.95281953  0.68135191  0.33920335  1  0  0.09912  0  0.935388  0  0  0.112087  0  0.991786  0  0  0.1149  0  0.990454  0  0.077328  0  0.109967  0.110159  0  0.992713  0
H  H8  1  0.44682375  0.36285504  0.30145084  1  0  0.081202  0  0.968369  0  0  0.08744  0  1.035826  0  0  0.09081  0  1.031366  0  0.12459  0  0.120757  0.085061  0  1.039043  0
H  H9  1  0.55317563  0.63714568  0.69854813  1  0  0.081186  0  0.968319  0  0  0.087427  0  1.035778  0  0  0.090796  0  1.031316  0  0.124565  0  0.120737  0.085047  0  1.038997  0
H  H10  1  0.40598919  0.57692080  0.26138286  1  0  0.108447  0  0.931035  0  0  0.122686  0  0.980915  0  0  0.125911  0  0.980085  0  0.091315  0  0.112594  0.120605  0  0.981358  0
H  H11  1  0.59400915  0.42307992  0.73861766  1  0  0.108421  0  0.931033  0  0  0.122661  0  0.980918  0  0  0.125887  0  0.980089  0  0.091326  0  0.112592  0.120581  0  0.98136  0
H  H12  1  0.54370176  0.66892777  0.35174884  1  0  0.115639  0  0.973386  0  0  0.124295  0  1.035979  0  0  0.127837  0  1.033282  0  0.140205  0  0.108832  0.121734  0  1.038065  0
H  H13  1  0.45629883  0.33107210  0.64825101  1  0  0.115653  0  0.973333  0  0  0.124309  0  1.035932  0  0  0.127852  0  1.033233  0  0.140219  0  0.108831  0.121748  0  1.038018  0
H  H14  1  0.72802137  0.64346062  0.47760500  1  0  0.110019  0  0.936492  0  0  0.120889  0  0.994988  0  0  0.123485  0  0.994836  0  0.091937  0  0.110424  0.119083  0  0.995409  0
H  H15  1  0.27197716  0.35653925  0.52239499  1  0  0.110032  0  0.936489  0  0  0.120915  0  0.994968  0  0  0.123506  0  0.994819  0  0.091939  0  0.110438  0.119109  0  0.995388  0
H  H16  1  0.90877839  0.51565880  0.59210869  1  0  0.097558  0  0.96298  0  0  0.108165  0  1.024821  0  0  0.110222  0  1.025622  0  0.081711  0  0.102308  0.106149  0  1.026113  0
H  H17  1  0.09121808  0.48434107  0.40789366  1  0  0.09755  0  0.963011  0  0  0.108152  0  1.02486  0  0  0.110205  0  1.02566  0  0.081948  0  0.102301  0.106137  0  1.02615  0
H  H18  1  0.80553604  0.17915780  0.10201245  1  0  0.132278  0  0.970802  0  0  0.138734  0  1.033551  0  0  0.143958  0  1.030317  0  0.120968  0  0.104408  0.13505  0  1.035927  0
H  H19  1  0.19446491  0.82084036  0.89798780  1  0  0.132259  0  0.970836  0  0  0.138698  0  1.033598  0  0  0.143931  0  1.030355  0  0.120878  0  0.104399  0.135014  0  1.035974  0
H  H20  1  0.04723055  0.07149837  0.24942481  1  0  0.094352  0  0.952409  0  0  0.103752  0  1.01856  0  0  0.106465  0  1.016364  0  0.104493  0  0.106601  0.101719  0  1.020291  0
H  H21  1  0.95277125  0.92850064  0.75057517  1  0  0.094374  0  0.952417  0  0  0.103785  0  1.018561  0  0  0.106491  0  1.016372  0  0.104503  0  0.106602  0.101751  0  1.020293  0
H  H22  1  0.27878438  0.07992853  0.17310315  1  0  0.106426  0  0.932441  0  0  0.118803  0  0.986801  0  0  0.121705  0  0.985936  0  0.075344  0  0.108202  0.116735  0  0.987401  0
H  H23  1  0.72121602  0.92007220  0.82689575  1  0  0.106454  0  0.932431  0  0  0.118849  0  0.986767  0  0  0.121751  0  0.985902  0  0.075335  0  0.108217  0.11678  0  0.987368  0
H  H24  1  0.44544897  0.09642007  0.02178998  1  0  0.096673  0  0.947586  0  0  0.108077  0  1.007225  0  0  0.110553  0  1.007008  0  0.047097  0  0.103247  0.106046  0  1.007987  0
H  H25  1  0.55455161  0.90357979  0.97820913  1  0  0.096691  0  0.947571  0  0  0.108084  0  1.007219  0  0  0.110558  0  1.007004  0  0.047104  0  0.103241  0.106052  0  1.007982  0
H  H26  1  0.10375684  0.14688490  0.82578233  1  0  0.084629  0  0.975635  0  0  0.095753  0  1.039242  0  0  0.097926  0  1.039385  0  0.09067  0  0.098556  0.094234  0  1.039206  0
H  H27  1  0.89624393  0.85311412  0.17421698  1  0  0.084629  0  0.975628  0  0  0.095736  0  1.039251  0  0  0.09792  0  1.039383  0  0.090681  0  0.09855  0.094217  0  1.039213  0
H  H28  1  0.93778045  0.13468439  0.97511389  1  0  0.103051  0  0.937012  0  0  0.118208  0  0.987751  0  0  0.120841  0  0.986897  0  0.071102  0  0.10924  0.116263  0  0.988523  0
H  H29  1  0.06221995  0.86531633  0.02488501  1  0  0.103051  0  0.937025  0  0  0.118209  0  0.987764  0  0  0.120841  0  0.986911  0  0.071113  0  0.109242  0.116263  0  0.988536  0
H  H30  1  0.48007806  0.16043494  0.82323469  1  0  0.103236  0  0.919094  0  0  0.117253  0  0.97263  0  0  0.120198  0  0.970496  0  0.092208  0  0.112589  0.115348  0  0.973822  0
H  H31  1  0.51992234  0.83956578  0.17676495  1  0  0.10324  0  0.919098  0  0  0.117257  0  0.972631  0  0  0.120204  0  0.970496  0  0.092215  0  0.112593  0.115353  0  0.973823  0
H  H32  1  0.27177506  0.04899236  0.74592350  1  0  0.10764  0  0.987157  0  0  0.11738  0  1.051331  0  0  0.120547  0  1.050617  0  0.067605  0  0.104162  0.115113  0  1.051978  0
H  H33  1  0.72822552  0.95100751  0.25407782  1  0  0.107633  0  0.987161  0  0  0.117376  0  1.051322  0  0  0.12054  0  1.05062  0  0.067657  0  0.104157  0.11511  0  1.051969  0
H  H34  1  0.94299339  0.81264239  0.63318141  1  0  0.121044  0  0.960621  0  0  0.128802  0  1.025234  0  0  0.132772  0  1.023854  0  0.089108  0  0.104009  0.126065  0  1.026209  0
H  H35  1  0.05700786  0.18735918  0.36681500  1  0  0.121093  0  0.960592  0  0  0.128841  0  1.025225  0  0  0.13281  0  1.023846  0  0.089194  0  0.104024  0.126103  0  1.026201  0
H  H36  1  0.74379693  0.64090750  0.72410073  1  0  0.088991  0  0.964657  0  0  0.100582  0  1.027555  0  0  0.103366  0  1.024852  0  0.082919  0  0.103465  0.09847  0  1.029678  0
H  H37  1  0.25620432  0.35909408  0.27589863  1  0  0.089002  0  0.964697  0  0  0.1006  0  1.027573  0  0  0.103382  0  1.024871  0  0.082874  0  0.103477  0.098488  0  1.029696  0
H  H38  1  0.82886993  0.47314270  0.85620545  1  0  0.101509  0  0.939837  0  0  0.112539  0  0.998843  0  0  0.115924  0  0.996895  0  0.083309  0  0.103139  0.110328  0  1.00009  0
H  H39  1  0.17113011  0.52685973  0.14379452  1  0  0.101522  0  0.939813  0  0  0.112558  0  0.998808  0  0  0.115945  0  0.996857  0  0.083296  0  0.103161  0.110347  0  1.000056  0
H  H40  1  0.01520570  0.35449488  0.96954560  1  0  0.097922  0  0.951808  0  0  0.110366  0  1.008896  0  0  0.112469  0  1.009482  0  0.060683  0  0.102349  0.109114  0  1.008268  0
H  H41  1  0.98479385  0.64550499  0.03045506  1  0  0.097927  0  0.951807  0  0  0.110372  0  1.008894  0  0  0.112475  0  1.009479  0  0.060683  0  0.102342  0.109121  0  1.008265  0
H  H42  1  0.29694327  0.58504110  0.81756427  1  0  0.095241  0  0.965179  0  0  0.105407  0  1.02747  0  0  0.107819  0  1.026986  0  0.068819  0  0.101444  0.103579  0  1.027912  0
H  H43  1  0.70305937  0.41495877  0.18243616  1  0  0.095267  0  0.965183  0  0  0.105433  0  1.027461  0  0  0.107843  0  1.026983  0  0.068885  0  0.101465  0.103606  0  1.027901  0
H  H44  1  0.11492569  0.69970089  0.70184791  1  0  0.095966  0  0.973355  0  0  0.105244  0  1.037039  0  0  0.107653  0  1.0365  0  0.091066  0  0.103084  0.103616  0  1.037415  0
H  H45  1  0.88507835  0.30029727  0.29815138  1  0  0.095976  0  0.973354  0  0  0.105256  0  1.037029  0  0  0.107667  0  1.036487  0  0.09106  0  0.103077  0.103629  0  1.037404  0
H  H46  1  0.24196915  0.33185912  0.04062546  1  0  0.094676  0  0.948678  0  0  0.105215  0  1.012644  0  0  0.10709  0  1.012204  0  0.090668  0  0.104664  0.103725  0  1.013411  0
H  H47  1  0.75803041  0.66814075  0.95937520  1  0  0.094679  0  0.948684  0  0  0.105215  0  1.012654  0  0  0.10709  0  1.012213  0  0.09067  0  0.104654  0.103726  0  1.013419  0
H  H48  1  0.45665778  0.45143736  0.88788020  1  0  0.106236  0  0.97948  0  0  0.114833  0  1.043008  0  0  0.118265  0  1.042741  0  0.063779  0  0.099698  0.112355  0  1.043453  0
H  H49  1  0.54334214  0.54856080  0.11211939  1  0  0.106228  0  0.979539  0  0  0.114826  0  1.04305  0  0  0.118261  0  1.042781  0  0.063781  0  0.099704  0.112349  0  1.043493  0
H  H50  1  0.55110017  0.23848384  0.17168324  1  0  0.411207  0  0.8777  0  0  0.380264  0  0.955791  0  0  0.393258  0  0.938173  0  0.647106  0  0.302271  0.371075  0  0.965979  0
H  H51  1  0.44890078  0.76151432  0.82831701  1  0  0.411258  0  0.877573  0  0  0.380324  0  0.955653  0  0  0.393319  0  0.938071  0  0.647127  0  0.3023  0.371135  0  0.96584  0
C  C52  1  0.91010275  0.13023372  0.57514127  1  0  0.172588  0  3.662242  0  0  0.141375  0  3.921125  0  0  0.149989  0  3.934593  0  0.542918  0  0.069048  0.135477  0  3.912332  0
C  C53  1  0.08989493  0.86976529  0.42486121  1  0  0.172595  0  3.662228  0  0  0.141381  0  3.921107  0  0  0.15  0  3.934576  0  0.542248  0  0.069049  0.135482  0  3.912317  0
C  C54  1  0.00111500  0.17024707  0.62531030  1  0  -0.113384  0  3.723568  0  0  -0.126654  0  3.975705  0  0  -0.133735  0  3.997556  0  -0.074007  0  -0.082278  -0.122083  0  3.961297  0
C  C55  1  0.99888147  0.82975280  0.37469132  1  0  -0.11342  0  3.723542  0  0  -0.126695  0  3.97568  0  0  -0.133777  0  3.997524  0  -0.07334  0  -0.082297  -0.122125  0  3.961273  0
C  C56  1  0.97980497  0.28471651  0.62171349  1  0  -0.054792  0  3.702832  0  0  -0.076569  0  3.94414  0  0  -0.074905  0  3.963213  0  -0.019516  0  -0.063974  -0.077616  0  3.93088  0
C  C57  1  0.02019253  0.71528336  0.37828805  1  0  -0.054798  0  3.702836  0  0  -0.076538  0  3.944158  0  0  -0.074874  0  3.96323  0  -0.019527  0  -0.063963  -0.077586  0  3.9309  0
C  C58  1  0.87055212  0.36006291  0.56370610  1  0  0.023974  0  3.79169  0  0  0.042116  0  4.017012  0  0  0.039585  0  4.041929  0  -0.006864  0  -0.001599  0.045002  0  3.99991  0
C  C59  1  0.12944435  0.63993696  0.43629551  1  0  0.024083  0  3.791675  0  0  0.042119  0  4.017102  0  0  0.039587  0  4.04202  0  -0.006913  0  -0.001575  0.044996  0  3.999995  0
C  C60  1  0.78567413  0.31202402  0.51412318  1  0  0.142083  0  3.74544  0  0  0.139445  0  3.979592  0  0  0.143468  0  4.000363  0  0.495347  0  0.124552  0.136258  0  3.964707  0
C  C61  1  0.21432440  0.68797585  0.48587682  1  0  0.141995  0  3.745434  0  0  0.139423  0  3.979579  0  0  0.143443  0  4.000355  0  0.495342  0  0.124531  0.136264  0  3.964657  0
C  C62  1  0.67892609  0.38633245  0.44889985  1  0  0.141336  0  3.763486  0  0  0.13655  0  4.003091  0  0  0.141116  0  4.024128  0  0.520686  0  0.123885  0.135349  0  3.987184  0
C  C63  1  0.32107347  0.61366742  0.55110007  1  0  0.14134  0  3.76342  0  0  0.136526  0  4.00306  0  0  0.141092  0  4.0241  0  0.520706  0  0.123857  0.135318  0  3.987149  0
C  C64  1  0.50656143  0.40618035  0.33708788  1  0  0.153099  0  3.713441  0  0  0.120121  0  3.979823  0  0  0.129356  0  3.993517  0  0.522993  0  0.060358  0.114968  0  3.970775  0
C  C65  1  0.49343794  0.59382037  0.66291110  1  0  0.153132  0  3.713383  0  0  0.12016  0  3.979751  0  0  0.1294  0  3.993444  0  0.523046  0  0.060399  0.115007  0  3.970703  0
C  C66  1  0.48484142  0.52586017  0.31501491  1  0  -0.121803  0  3.738161  0  0  -0.134755  0  3.994557  0  0  -0.142456  0  4.016018  0  -0.039198  0  -0.080614  -0.129862  0  3.980635  0
C  C67  1  0.51515796  0.47414056  0.68498481  1  0  -0.121772  0  3.738146  0  0  -0.134721  0  3.994536  0  0  -0.142425  0  4.016  0  -0.039195  0  -0.080614  -0.129827  0  3.980612  0
C  C68  1  0.56188136  0.57644535  0.36367828  1  0  -0.037596  0  3.653598  0  0  -0.062864  0  3.900583  0  0  -0.059849  0  3.917951  0  -0.02895  0  -0.061289  -0.065497  0  3.889642  0
C  C69  1  0.43811784  0.42355623  0.63632123  1  0  -0.037628  0  3.65359  0  0  -0.062892  0  3.90059  0  0  -0.059877  0  3.917959  0  -0.028948  0  -0.061283  -0.065524  0  3.889647  0
C  C70  1  0.66292206  0.50646638  0.43254250  1  0  0.022812  0  3.783322  0  0  0.03905  0  4.013871  0  0  0.035947  0  4.038752  0  -0.049712  0  -0.002278  0.040998  0  3.997447  0
C  C71  1  0.33707852  0.49353349  0.56745734  1  0  0.022872  0  3.7833  0  0  0.039089  0  4.013903  0  0  0.035986  0  4.038784  0  -0.049728  0  -0.002254  0.041037  0  3.997481  0
C  C72  1  0.74639376  0.55153218  0.48701404  1  0  -0.095191  0  3.73459  0  0  -0.11717  0  3.989356  0  0  -0.119922  0  4.012111  0  -0.135041  0  -0.081094  -0.116191  0  3.976656  0
C  C73  1  0.25360561  0.44846854  0.51298494  1  0  -0.095281  0  3.734627  0  0  -0.117268  0  3.989417  0  0  -0.120014  0  4.012167  0  -0.135011  0  -0.081127  -0.116289  0  3.976718  0
C  C74  1  0.84555425  0.48084558  0.55085432  1  0  -0.107611  0  3.758967  0  0  -0.130007  0  4.013358  0  0  -0.133608  0  4.037227  0  -0.000323  0  -0.087271  -0.129143  0  4.001607  0
C  C75  1  0.15444307  0.51915514  0.44914628  1  0  -0.107565  0  3.758949  0  0  -0.129918  0  4.013334  0  0  -0.133514  0  4.037197  0  -0.000568  0  -0.087238  -0.129054  0  4.001584  0
C  C76  1  0.77580963  0.13596992  0.26902635  1  0  0.661879  0  3.955546  0  0  0.619496  0  4.245152  0  0  0.654855  0  4.235683  0  1.478486  0  0.184971  0.595529  0  4.250555  0
C  C77  1  0.22419217  0.86402910  0.73097362  1  0  0.661836  0  3.955623  0  0  0.619491  0  4.245175  0  0  0.65485  0  4.23571  0  1.478499  0  0.184949  0.595525  0  4.250576  0
C  C78  1  0.86076081  0.13956016  0.17289265  1  0  -0.247304  0  3.669288  0  0  -0.26134  0  3.926767  0  0  -0.274604  0  3.943316  0  0.002115  0  -0.101626  -0.252721  0  3.915716  0
C  C79  1  0.13924098  0.86043886  0.82710806  1  0  -0.247259  0  3.669308  0  0  -0.261266  0  3.926751  0  0  -0.274537  0  3.943292  0  0.002176  0  -0.101611  -0.252648  0  3.915701  0
C  C80  1  0.00041363  0.10302523  0.17453343  1  0  -0.024849  0  3.713144  0  0  -0.049992  0  3.963086  0  0  -0.044773  0  3.981231  0  -0.111853  0  -0.066373  -0.053247  0  3.950785  0
C  C81  1  0.99958798  0.89697464  0.82546634  1  0  -0.024886  0  3.713139  0  0  -0.050055  0  3.963089  0  0  -0.044832  0  3.981244  0  -0.111996  0  -0.066376  -0.05331  0  3.950789  0
C  C82  1  0.09633233  0.10615794  0.08529279  1  0  0.073232  0  3.817684  0  0  0.092201  0  4.051407  0  0  0.090547  0  4.075649  0  0.001123  0  -0.00945  0.093245  0  4.035017  0
C  C83  1  0.90366928  0.89384193  0.91470698  1  0  0.07322  0  3.817676  0  0  0.092191  0  4.051409  0  0  0.090537  0  4.075649  0  0.001288  0  -0.009472  0.093235  0  4.035018  0
C  C84  1  0.24083635  0.09370648  0.09673822  1  0  -0.100051  0  3.716645  0  0  -0.120172  0  3.965731  0  0  -0.122151  0  3.986382  0  -0.085058  0  -0.08012  -0.118805  0  3.951347  0
C  C85  1  0.75916441  0.90629254  0.90326110  1  0  -0.100049  0  3.716614  0  0  -0.120181  0  3.965689  0  0  -0.12216  0  3.98634  0  -0.085024  0  -0.08011  -0.118814  0  3.951307  0
C  C86  1  0.33445588  0.10315156  0.01170115  1  0  -0.106954  0  3.74161  0  0  -0.130858  0  3.995905  0  0  -0.134062  0  4.018281  0  -0.023439  0  -0.085223  -0.12851  0  3.980771  0
C  C87  1  0.66554368  0.89684831  0.98829877  1  0  -0.107019  0  3.741609  0  0  -0.130907  0  3.995917  0  0  -0.134111  0  4.018294  0  -0.023457  0  -0.085243  -0.128559  0  3.980784  0
C  C88  1  0.28727376  0.12050525  0.91285162  1  0  0.078623  0  3.809183  0  0  0.099789  0  4.039244  0  0  0.098566  0  4.064464  0  0.02786  0  -0.007599  0.101138  0  4.021806  0
C  C89  1  0.71272700  0.87949377  0.08714769  1  0  0.078645  0  3.809125  0  0  0.099783  0  4.039222  0  0  0.098559  0  4.064443  0  0.027897  0  -0.007603  0.101132  0  4.021783  0
C  C90  1  0.14274202  0.13084405  0.90197075  1  0  -0.105469  0  3.742484  0  0  -0.124495  0  3.986684  0  0  -0.127744  0  4.009462  0  -0.072808  0  -0.084318  -0.122471  0  3.971233  0
C  C91  1  0.85725875  0.86915497  0.09802856  1  0  -0.105405  0  3.742395  0  0  -0.124403  0  3.986602  0  0  -0.12766  0  4.009373  0  -0.07281  0  -0.084279  -0.122381  0  3.971151  0
C  C92  1  0.04903895  0.12468703  0.98594932  1  0  -0.094834  0  3.732538  0  0  -0.113911  0  3.9773  0  0  -0.115475  0  3.997744  0  -0.025771  0  -0.078642  -0.112447  0  3.963621  0
C  C93  1  0.95096182  0.87531198  0.01405072  1  0  -0.094882  0  3.732548  0  0  -0.113967  0  3.977311  0  0  -0.11553  0  3.997755  0  -0.025796  0  -0.078665  -0.1125  0  3.963631  0
C  C94  1  0.38408845  0.12736051  0.82294281  1  0  -0.028207  0  3.702107  0  0  -0.05184  0  3.950003  0  0  -0.046768  0  3.96639  0  -0.089746  0  -0.063016  -0.055432  0  3.938778  0
C  C95  1  0.61591232  0.87263851  0.17705724  1  0  -0.028217  0  3.702053  0  0  -0.051842  0  3.949957  0  0  -0.046769  0  3.966342  0  -0.089762  0  -0.063011  -0.055434  0  3.938733  0
C  C96  1  0.36087909  0.09119775  0.74202235  1  0  -0.22793  0  3.659788  0  0  -0.2438  0  3.911615  0  0  -0.254774  0  3.926824  0  -0.002689  0  -0.09505  -0.236289  0  3.901164  0
C  C97  1  0.63912047  0.90880212  0.25797831  1  0  -0.227886  0  3.659739  0  0  -0.243752  0  3.911566  0  0  -0.254726  0  3.926772  0  -0.002718  0  -0.09502  -0.236241  0  3.901115  0
C  C98  1  0.45125256  0.09712003  0.64805020  1  0  0.722937  0  3.891923  0  0  0.683286  0  4.170999  0  0  0.720001  0  4.158645  0  1.517666  0  0.205555  0.658459  0  4.178172  0
C  C99  1  0.54874700  0.90287984  0.35195045  1  0  0.722908  0  3.89193  0  0  0.683254  0  4.171011  0  0  0.719969  0  4.158658  0  1.517667  0  0.205539  0.658428  0  4.178184  0
C  C100  1  0.72341570  0.85152642  0.59755718  1  0  0.749996  0  3.853014  0  0  0.710677  0  4.134943  0  0  0.747728  0  4.122425  0  1.536039  0  0.22224  0.685497  0  4.142308  0
C  C101  1  0.27658470  0.14847430  0.40244245  1  0  0.750041  0  3.85296  0  0  0.710699  0  4.134917  0  0  0.747754  0  4.122394  0  1.536048  0  0.222243  0.685519  0  4.142281  0
C  C102  1  0.84816248  0.77525472  0.64696950  1  0  -0.245739  0  3.647405  0  0  -0.262786  0  3.905288  0  0  -0.275026  0  3.92204  0  -0.038118  0  -0.102882  -0.254402  0  3.893416  0
C  C103  1  0.15183876  0.22474686  0.35302839  1  0  -0.245832  0  3.647345  0  0  -0.262869  0  3.905231  0  0  -0.275111  0  3.921984  0  -0.037945  0  -0.102901  -0.254485  0  3.893359  0
C  C104  1  0.84382650  0.67063240  0.71109506  1  0  -0.034647  0  3.742151  0  0  -0.059724  0  3.993968  0  0  -0.054848  0  4.011274  0  -0.085622  0  -0.073826  -0.062717  0  3.98159  0
C  C105  1  0.15617699  0.32936832  0.28890361  1  0  -0.034652  0  3.742153  0  0  -0.059738  0  3.993971  0  0  -0.054861  0  4.011278  0  -0.085851  0  -0.073831  -0.062731  0  3.981595  0
C  C106  1  0.95786670  0.59575292  0.77041958  1  0  0.070041  0  3.829558  0  0  0.089486  0  4.062175  0  0  0.088416  0  4.08656  0  -0.016453  0  -0.01391  0.090965  0  4.044812  0
C  C107  1  0.04213558  0.40424866  0.22957897  1  0  0.070101  0  3.829534  0  0  0.089557  0  4.062134  0  0  0.088488  0  4.086519  0  -0.016384  0  -0.013956  0.091035  0  4.044772  0
C  C108  1  0.93284128  0.49611221  0.84561259  1  0  -0.113223  0  3.729527  0  0  -0.131497  0  3.975775  0  0  -0.134495  0  3.996778  0  -0.078793  0  -0.086769  -0.129281  0  3.961434  0
C  C109  1  0.06715894  0.50388936  0.15438758  1  0  -0.11326  0  3.729656  0  0  -0.131543  0  3.975899  0  0  -0.134542  0  3.996902  0  -0.078959  0  -0.086771  -0.129326  0  3.961557  0
C  C110  1  0.03742896  0.42954423  0.90994544  1  0  -0.097444  0  3.731125  0  0  -0.116584  0  3.975584  0  0  -0.118726  0  3.997937  0  -0.039941  0  -0.082874  -0.115639  0  3.960858  0
C  C111  1  0.96257144  0.57045649  0.09005419  1  0  -0.097386  0  3.731195  0  0  -0.116542  0  3.975634  0  0  -0.118686  0  3.997989  0  -0.039807  0  -0.082813  -0.115596  0  3.960907  0
C  C112  1  0.17102979  0.45921622  0.90088274  1  0  0.074939  0  3.806268  0  0  0.096488  0  4.036491  0  0  0.094683  0  4.060684  0  0.01431  0  -0.009447  0.097753  0  4.020257  0
C  C113  1  0.82897201  0.54078280  0.09911797  1  0  0.074953  0  3.80639  0  0  0.096535  0  4.036551  0  0  0.094734  0  4.060745  0  0.014305  0  -0.009433  0.0978  0  4.020321  0
C  C114  1  0.19637950  0.55766188  0.82403383  1  0  -0.090891  0  3.718597  0  0  -0.110339  0  3.962462  0  0  -0.112575  0  3.984758  0  -0.023374  0  -0.084234  -0.107969  0  3.946973  0
C  C115  1  0.80362126  0.44233713  0.17596622  1  0  -0.090904  0  3.718539  0  0  -0.110354  0  3.962392  0  0  -0.112593  0  3.984687  0  -0.023385  0  -0.084257  -0.107984  0  3.946905  0
C  C116  1  0.09293697  0.62353503  0.75976309  1  0  -0.104821  0  3.732929  0  0  -0.123982  0  3.979515  0  0  -0.126998  0  4.002566  0  -0.072254  0  -0.089791  -0.12228  0  3.963599  0
C  C117  1  0.90706604  0.37646313  0.24023701  1  0  -0.104877  0  3.732784  0  0  -0.12405  0  3.979379  0  0  -0.127064  0  4.002425  0  -0.072285  0  -0.089788  -0.122347  0  3.963463  0
C  C118  1  0.27739887  0.39192353  0.97175852  1  0  -0.019735  0  3.718707  0  0  -0.048739  0  3.972217  0  0  -0.042981  0  3.991015  0  -0.021959  0  -0.068084  -0.052761  0  3.960006  0
C  C119  1  0.72260274  0.60807634  0.02824198  1  0  -0.019766  0  3.718696  0  0  -0.048778  0  3.972189  0  0  -0.04302  0  3.990983  0  -0.021864  0  -0.068083  -0.052803  0  3.959981  0
C  C120  1  0.41497754  0.39736523  0.95770920  1  0  -0.255099  0  3.700539  0  0  -0.268397  0  3.956198  0  0  -0.282639  0  3.975685  0  -0.037555  0  -0.105564  -0.259041  0  3.943902  0
C  C121  1  0.58502220  0.60263379  0.04229166  1  0  -0.25513  0  3.700649  0  0  -0.268387  0  3.956349  0  0  -0.282629  0  3.975834  0  -0.037309  0  -0.105572  -0.25903  0  3.944052  0
C  C122  1  0.52223635  0.32826547  0.02902481  1  0  0.669873  0  3.88418  0  0  0.628502  0  4.178751  0  0  0.661827  0  4.17049  0  1.500168  0  0.207891  0.605686  0  4.184592  0
C  C123  1  0.47777543  0.67173013  0.97097311  1  0  0.669776  0  3.883857  0  0  0.628294  0  4.178609  0  0  0.661619  0  4.170352  0  1.50009  0  0.207773  0.605477  0  4.184448  0
N  N124  1  0.80387560  0.19827587  0.52246884  1  0  -0.412116  0  3.234146  0  0  -0.362274  0  3.499885  0  0  -0.376626  0  3.51694  0  -1.226098  0  -0.363898  -0.352318  0  3.488237  0
N  N125  1  0.19612190  0.80172400  0.47753122  1  0  -0.412079  0  3.234149  0  0  -0.362252  0  3.499873  0  0  -0.376606  0  3.516929  0  -1.226093  0  -0.363876  -0.352304  0  3.488218  0
N  N126  1  0.59920298  0.33776347  0.40287613  1  0  -0.429272  0  3.232908  0  0  -0.381777  0  3.508256  0  0  -0.397241  0  3.525703  0  -1.259782  0  -0.372841  -0.371335  0  3.495677  0
N  N127  1  0.40079639  0.66223725  0.59712284  1  0  -0.42934  0  3.232907  0  0  -0.381837  0  3.508265  0  0  -0.397306  0  3.525712  0  -1.259796  0  -0.372882  -0.371397  0  3.495691  0
O  O128  1  0.82858088  0.08841502  0.35655643  1  0  -0.695621  0  1.990807  0  0  -0.650108  0  2.244884  0  0  -0.675025  0  2.236662  0  -1.183108  0  -0.379562  -0.632176  0  2.249959  0
O  O129  1  0.17141970  0.91158485  0.64344415  1  0  -0.695593  0  1.990809  0  0  -0.650108  0  2.244888  0  0  -0.67503  0  2.236665  0  -1.183092  0  -0.379555  -0.632175  0  2.249961  0
O  O130  1  0.64505526  0.18131655  0.26594461  1  0  -0.700164  0  2.049107  0  0  -0.639146  0  2.284598  0  0  -0.665743  0  2.275011  0  -1.194274  0  -0.358807  -0.620119  0  2.290015  0
O  O131  1  0.35494448  0.81868246  0.73405551  1  0  -0.700177  0  2.049165  0  0  -0.639173  0  2.284636  0  0  -0.665768  0  2.275046  0  -1.194308  0  -0.358794  -0.620145  0  2.29005  0
O  O132  1  0.73514991  0.95668907  0.56214098  1  0  -0.72836  0  2.032817  0  0  -0.673949  0  2.283377  0  0  -0.700676  0  2.272963  0  -1.185968  0  -0.401249  -0.654451  0  2.289655  0
O  O133  1  0.26484964  0.04331080  0.43785967  1  0  -0.728335  0  2.032765  0  0  -0.67392  0  2.283339  0  0  -0.700657  0  2.272929  0  -1.185975  0  -0.401238  -0.654423  0  2.289617  0
O  O134  1  0.61458187  0.80989039  0.59438409  1  0  -0.731844  0  2.034743  0  0  -0.678293  0  2.285617  0  0  -0.704994  0  2.276019  0  -1.190261  0  -0.396073  -0.659389  0  2.291654  0
O  O135  1  0.38541975  0.19010948  0.40561568  1  0  -0.731893  0  2.034756  0  0  -0.67832  0  2.285622  0  0  -0.705013  0  2.276011  0  -1.190255  0  -0.396086  -0.659417  0  2.291658  0
O  O136  1  0.64811053  0.31572011  0.00214236  1  0  -0.581886  0  1.858329  0  0  -0.541432  0  2.056436  0  0  -0.560842  0  2.047526  0  -1.157707  0  -0.317521  -0.528395  0  2.062442  0
O  O137  1  0.35188406  0.68427890  0.99785961  1  0  -0.58188  0  1.857749  0  0  -0.541371  0  2.055888  0  0  -0.560787  0  2.046989  0  -1.15749  0  -0.31749  -0.528331  0  2.061892  0
O  O138  1  0.47189898  0.28135674  0.12385337  1  0  -0.568464  0  2.053038  0  0  -0.516921  0  2.269296  0  0  -0.539098  0  2.251846  0  -1.175233  0  -0.344366  -0.501582  0  2.279344  0
O  O139  1  0.52810233  0.71863971  0.87614729  1  0  -0.568431  0  2.053053  0  0  -0.51687  0  2.269361  0  0  -0.539047  0  2.251939  0  -1.175761  0  -0.344343  -0.501531  0  2.279407  0
O  O140  1  0.53458011  0.16841524  0.61831730  1  0  -0.681965  0  1.963281  0  0  -0.635715  0  2.195162  0  0  -0.660346  0  2.186959  0  -1.168263  0  -0.362989  -0.617907  0  2.199933  0
O  O141  1  0.46541944  0.83158463  0.38168262  1  0  -0.681984  0  1.963298  0  0  -0.635733  0  2.195175  0  0  -0.660366  0  2.186975  0  -1.168275  0  -0.362994  -0.617921  0  2.199941  0
O  O142  1  0.44159921  0.02928189  0.59349111  1  0  -0.8151  0  2.213268  0  0  -0.74532  0  2.461288  0  0  -0.773574  0  2.452557  0  -1.20776  0  -0.440744  -0.724842  0  2.466421  0
O  O143  1  0.55840053  0.97071713  0.40650975  1  0  -0.81512  0  2.213296  0  0  -0.745341  0  2.461314  0  0  -0.773593  0  2.452585  0  -1.207784  0  -0.44076  -0.724863  0  2.466447  0
