# generated using pymatgen
data_ZnH28C30N(ClO2)2
_symmetry_space_group_name_H-M   'P 1'
_cell_length_a   16.58405586
_cell_length_b   17.77373269
_cell_length_c   17.58107027
_cell_angle_alpha   90.71448603
_cell_angle_beta   95.27036099
_cell_angle_gamma   91.97626429
_symmetry_Int_Tables_number   1
_chemical_formula_structural   ZnH28C30N(ClO2)2
_chemical_formula_sum   'Zn2 H56 C60 N2 Cl4 O8'
_cell_volume   5156.59176591
_cell_formula_units_Z   2
loop_
 _symmetry_equiv_pos_site_id
 _symmetry_equiv_pos_as_xyz
  1  'x, y, z'
loop_
 _atom_site_type_symbol
 _atom_site_label
 _atom_site_symmetry_multiplicity
 _atom_site_fract_x
 _atom_site_fract_y
 _atom_site_fract_z
 _atom_site_occupancy
 _atom_site_pbe_bader_charge
 _atom_site_pbe_bader_spin_density
 _atom_site_pbe_cm5_charge
 _atom_site_pbe_ddec_charge
 _atom_site_pbe_ddec_spin_density
 _atom_site_pbe_ddec_sum_bond_order
 _atom_site_pbe_magmom
Zn  Zn0  1  0.59237042  0.50113878  0.50378747  1  1.290453  0  0.678449  0.850031  0  2.241037  0
Zn  Zn1  1  0.41215307  0.49809137  0.49620498  1  1.295303  0  0.683245  0.858318  0  2.298855  0
H  H2  1  0.00298024  0.41720620  0.51777208  1  0.062284  0  0.109259  0.109329  0  0.983197  0
H  H3  1  0.00098358  0.58522800  0.48070713  1  0.076955  0  0.109481  0.11007  0  0.98085  0
H  H4  1  0.55780726  0.57228141  0.99390276  1  0.057591  0  0.101722  0.099902  0  0.993605  0
H  H5  1  0.45234200  0.42902156  0.00534808  1  0.075229  0  0.101045  0.098117  0  0.996221  0
H  H6  1  0.61286171  0.11318907  0.52300872  1  0.124309  0  0.107698  0.125523  0  0.994008  0
H  H7  1  0.35531469  0.12712651  0.53732327  1  0.063924  0  0.108327  0.127052  0  0.992604  0
H  H8  1  0.61505870  0.89472303  0.49168683  1  0.06986  0  0.10797  0.125733  0  0.993738  0
H  H9  1  0.35604888  0.85896003  0.44791424  1  0.115611  0  0.108485  0.127051  0  0.99148  0
H  H10  1  0.28669831  0.33747650  0.41949681  1  0.067651  0  0.09118  0.137356  0  1.018463  0
H  H11  1  0.34013447  0.41721827  0.38809863  1  0.105468  0  0.102673  0.161709  0  1.023698  0
H  H12  1  0.24311441  0.39072143  0.34265688  1  0.045133  0  0.092959  0.128915  0  1.007734  0
H  H13  1  0.10845695  0.38621556  0.34698593  1  0.043022  0  0.09765  0.131638  0  0.986709  0
H  H14  1  0.04679972  0.36546520  0.42133650  1  0.040104  0  0.090279  0.119647  0  1.041216  0
H  H15  1  0.13866688  0.31807803  0.41501228  1  0.049892  0  0.098002  0.135767  0  0.986883  0
H  H16  1  0.28665776  0.65556777  0.56584433  1  0.043045  0  0.091638  0.136459  0  1.003455  0
H  H17  1  0.36249066  0.59113037  0.59182795  1  0.098086  0  0.102845  0.166657  0  1.032739  0
H  H18  1  0.28102973  0.60206825  0.64929862  1  0.023318  0  0.09402  0.130861  0  1.015595  0
H  H19  1  0.16245576  0.58484072  0.66254710  1  0.032744  0  0.095668  0.129832  0  1.000844  0
H  H20  1  0.06503569  0.56826423  0.61376661  1  0.068597  0  0.088469  0.120179  0  1.043233  0
H  H21  1  0.12828095  0.64491644  0.58831693  1  0.039358  0  0.095628  0.13014  0  0.98484  0
H  H22  1  0.88410135  0.35686383  0.41704201  1  0.040102  0  0.09387  0.125182  0  0.990348  0
H  H23  1  0.93594791  0.43590535  0.38131748  1  0.011427  0  0.089414  0.121974  0  1.032039  0
H  H24  1  0.83673127  0.40847022  0.34156942  1  0.048523  0  0.096222  0.132777  0  0.995706  0
H  H25  1  0.70012575  0.40979793  0.35379038  1  0.040185  0  0.098586  0.14401  0  1.000272  0
H  H26  1  0.64800135  0.38915338  0.43466844  1  0.110952  0  0.097592  0.156002  0  1.040149  0
H  H27  1  0.73899836  0.34363752  0.42068522  1  0.049389  0  0.087902  0.128393  0  1.013212  0
H  H28  1  0.87038785  0.68700504  0.57443748  1  0.041496  0  0.096962  0.133213  0  0.98751  0
H  H29  1  0.95879373  0.63299502  0.58160648  1  0.021301  0  0.089665  0.118967  0  1.045593  0
H  H30  1  0.88736788  0.62357702  0.64998609  1  0.032511  0  0.098061  0.132695  0  0.987953  0
H  H31  1  0.75250407  0.60056719  0.65877860  1  0.037036  0  0.094865  0.132518  0  1.001543  0
H  H32  1  0.66011732  0.59779162  0.59984040  1  0.086584  0  0.102291  0.165542  0  1.038168  0
H  H33  1  0.73558228  0.66883739  0.58773448  1  0.064805  0  0.084391  0.126237  0  1.042837  0
H  H34  1  0.69938404  0.52428706  0.73521400  1  0.029542  0  0.08615  0.116907  0  1.023825  0
H  H35  1  0.65246986  0.44578848  0.68419427  1  0.065469  0  0.09289  0.14285  0  1.014766  0
H  H36  1  0.69927998  0.43513583  0.77859263  1  0.029439  0  0.085241  0.114008  0  1.012214  0
H  H37  1  0.69530786  0.44843835  0.90887619  1  0.027598  0  0.090906  0.122074  0  0.992584  0
H  H38  1  0.66593693  0.52903098  0.95736639  1  0.037185  0  0.087316  0.11723  0  1.046904  0
H  H39  1  0.71372566  0.53855158  0.87144653  1  0.044694  0  0.088575  0.120606  0  1.005251  0
H  H40  1  0.31731336  0.42688969  0.77066279  1  0.027889  0  0.0838  0.115025  0  1.020703  0
H  H41  1  0.36023224  0.41550023  0.68214507  1  0.096592  0  0.086966  0.135098  0  1.039703  0
H  H42  1  0.32028429  0.50202755  0.70576371  1  0.057058  0  0.085146  0.120308  0  1.031393  0
H  H43  1  0.31638390  0.52813617  0.84675788  1  0.001329  0  0.087378  0.120572  0  1.007134  0
H  H44  1  0.37184971  0.53484219  0.93814062  1  0.048149  0  0.087707  0.122745  0  1.034025  0
H  H45  1  0.33464488  0.44636965  0.90062318  1  0.022817  0  0.086866  0.114292  0  1.004393  0
H  H46  1  0.66583034  0.56900038  0.10804704  1  0.028257  0  0.087268  0.114842  0  1.000153  0
H  H47  1  0.63969097  0.47851415  0.06836756  1  0.043207  0  0.086586  0.119204  0  1.039419  0
H  H48  1  0.69066252  0.48836823  0.16158962  1  0.020491  0  0.087052  0.119541  0  1.010673  0
H  H49  1  0.68243704  0.50458627  0.28994707  1  -0.009541  0  0.084377  0.113524  0  1.031858  0
H  H50  1  0.62966686  0.57511244  0.33440624  1  0.082866  0  0.091683  0.141788  0  1.021509  0
H  H51  1  0.67066850  0.59267655  0.24594586  1  0.020245  0  0.086081  0.117943  0  1.00464  0
H  H52  1  0.29127386  0.45335853  0.12255742  1  0.029373  0  0.0883  0.12051  0  1.010092  0
H  H53  1  0.34367704  0.45608963  0.03914331  1  0.040226  0  0.087256  0.115988  0  1.048339  0
H  H54  1  0.30964767  0.53986739  0.07766557  1  0.026413  0  0.091281  0.122951  0  0.989352  0
H  H55  1  0.29394435  0.55158133  0.20807587  1  0.020603  0  0.086222  0.118265  0  1.013226  0
H  H56  1  0.33641522  0.54914998  0.30487196  1  0.081892  0  0.089638  0.142323  0  1.045071  0
H  H57  1  0.29904710  0.46534604  0.25667801  1  0.024396  0  0.085365  0.116372  0  1.020775  0
C  C58  1  0.50391910  0.49272384  0.64600016  1  1.540187  0  0.216561  0.603017  0  4.127889  0
C  C59  1  0.51178716  0.64499539  0.48372978  1  1.621993  0  0.208812  0.60296  0  4.186009  0
C  C60  1  0.49053119  0.50621653  0.35371008  1  1.549377  0  0.21726  0.603073  0  4.128809  0
C  C61  1  0.50443823  0.35417420  0.51665428  1  1.630696  0  0.208612  0.602174  0  4.182395  0
C  C62  1  0.24780813  0.54068685  0.54425885  1  0.471253  0  0.121674  0.262812  0  3.925837  0
C  C63  1  0.16367959  0.53526447  0.55018253  1  0.019829  0  -0.009632  0.015798  0  3.915698  0
C  C64  1  0.11668019  0.48097164  0.50488202  1  -0.033168  0  0.002348  0.033555  0  3.988975  0
C  C65  1  0.15567605  0.43281301  0.45687536  1  0.034332  0  -0.01138  0.014674  0  3.925347  0
C  C66  1  0.23951673  0.44284756  0.45255710  1  0.510877  0  0.119805  0.260543  0  3.931957  0
C  C67  1  0.02785622  0.47323674  0.50603461  1  -0.114423  0  -0.07905  -0.10994  0  3.972912  0
C  C68  1  0.97619686  0.52914813  0.49233863  1  -0.031319  0  -0.079672  -0.110799  0  3.975404  0
C  C69  1  0.84835755  0.57005247  0.54124150  1  -0.031682  0  -0.011505  0.014161  0  3.92356  0
C  C70  1  0.88749847  0.52107356  0.49422464  1  0.010679  0  0.002386  0.03187  0  3.99427  0
C  C71  1  0.84079850  0.46514078  0.45101655  1  0.028249  0  -0.011621  0.012917  0  3.918702  0
C  C72  1  0.75712414  0.45838623  0.45868806  1  0.49628  0  0.122486  0.264339  0  3.9208  0
C  C73  1  0.76455651  0.55991109  0.54602139  1  0.478159  0  0.122501  0.266299  0  3.922687  0
C  C74  1  0.50811352  0.48337032  0.73132976  1  -0.025214  0  -0.02267  -0.163592  0  3.899037  0
C  C75  1  0.43610769  0.47824731  0.76926572  1  0.018023  0  -0.004782  0.105775  0  3.905234  0
C  C76  1  0.44010673  0.49310344  0.84862652  1  0.00976  0  -0.019099  0.042894  0  3.92493  0
C  C77  1  0.51614216  0.50487484  0.89119100  1  -0.002506  0  -0.014813  -0.000405  0  3.995141  0
C  C78  1  0.58810836  0.49912671  0.85452670  1  0.002729  0  -0.020743  0.041338  0  3.938374  0
C  C79  1  0.58444200  0.48700290  0.77509599  1  -0.039757  0  -0.006507  0.102595  0  3.929373  0
C  C80  1  0.52225978  0.52154308  0.97415269  1  -0.145777  0  -0.088161  -0.114772  0  3.993423  0
C  C81  1  0.48768486  0.47950689  0.02622898  1  -0.01175  0  -0.088048  -0.1124  0  3.994431  0
C  C82  1  0.41547763  0.49639873  0.14222401  1  0.036877  0  -0.020389  0.040858  0  3.934617  0
C  C83  1  0.48987937  0.49559365  0.10898591  1  -0.046465  0  -0.015123  -0.000233  0  3.994363  0
C  C84  1  0.56316962  0.51165585  0.15491164  1  -0.035518  0  -0.018094  0.045797  0  3.927313  0
C  C85  1  0.56192129  0.52361083  0.23415286  1  -0.001035  0  -0.007217  0.100377  0  3.925976  0
C  C86  1  0.48802500  0.51568578  0.26836871  1  -0.016117  0  -0.02163  -0.159474  0  3.895968  0
C  C87  1  0.41377857  0.50945943  0.22120802  1  -0.041408  0  -0.007129  0.102643  0  3.915709  0
C  C88  1  0.49956004  0.27055327  0.53259704  1  0.04679  0  -0.016302  -0.141053  0  3.842108  0
C  C89  1  0.56730993  0.22414407  0.53244844  1  0.075311  0  0.024489  0.155662  0  4.015483  0
C  C90  1  0.55910811  0.14605251  0.52630673  1  -0.076887  0  -0.094139  -0.212135  0  3.942063  0
C  C91  1  0.48213322  0.10988871  0.52283279  1  0.120646  0  0.004127  0.179103  0  4.129793  0
C  C92  1  0.41496026  0.15367034  0.53382814  1  0.076242  0  -0.094317  -0.21668  0  3.941736  0
C  C93  1  0.42451431  0.23166003  0.53955302  1  0.073132  0  0.025566  0.156985  0  4.01593  0
C  C94  1  0.47533155  0.03138945  0.50814733  1  -0.550752  0  -0.039432  -0.095655  0  4.085846  0
C  C95  1  0.47597467  0.96449410  0.49163402  1  0.225426  0  -0.039885  -0.096291  0  4.086787  0
C  C96  1  0.48382991  0.88677678  0.47698943  1  0.119668  0  0.0038  0.176941  0  4.130581  0
C  C97  1  0.56167627  0.85734372  0.48178606  1  0.074675  0  -0.093748  -0.211439  0  3.941354  0
C  C98  1  0.57114777  0.78009931  0.47527200  1  -0.009857  0  0.023934  0.154925  0  4.021133  0
C  C99  1  0.50435302  0.72805791  0.46708233  1  0.028685  0  -0.016169  -0.140884  0  3.847417  0
C  C100  1  0.42757297  0.76038323  0.45224067  1  0.092304  0  0.0262  0.158854  0  4.016729  0
C  C101  1  0.41668035  0.83741343  0.45782669  1  0.022456  0  -0.094233  -0.215608  0  3.939782  0
C  C102  1  0.27994560  0.39491398  0.39783658  1  -0.112857  0  -0.243023  -0.449981  0  3.940452  0
C  C103  1  0.10974607  0.37258969  0.40802697  1  -0.06807  0  -0.235178  -0.392157  0  3.983297  0
C  C104  1  0.29770617  0.59975024  0.59039019  1  -0.029152  0  -0.244044  -0.456082  0  3.944221  0
C  C105  1  0.12761362  0.58577713  0.60634588  1  -0.080061  0  -0.238733  -0.396054  0  3.998936  0
C  C106  1  0.87651048  0.41419007  0.39492393  1  -0.038041  0  -0.238134  -0.394985  0  3.997795  0
C  C107  1  0.70805545  0.39716720  0.41502154  1  -0.074419  0  -0.244855  -0.455286  0  3.952951  0
C  C108  1  0.89396132  0.63132500  0.58883097  1  -0.028423  0  -0.234957  -0.389634  0  3.982183  0
C  C109  1  0.72512392  0.60914933  0.60021293  1  -0.062641  0  -0.245434  -0.454966  0  3.943709  0
C  C110  1  0.66266177  0.47225632  0.74080429  1  -0.052795  0  -0.244512  -0.398266  0  3.978152  0
C  C111  1  0.66963597  0.50446107  0.90042850  1  -0.080702  0  -0.240469  -0.393111  0  3.998  0
C  C112  1  0.35427276  0.45439556  0.72966843  1  -0.112375  0  -0.250381  -0.405767  0  3.980198  0
C  C113  1  0.36193163  0.50098571  0.88548241  1  -0.063121  0  -0.244552  -0.401498  0  4.011864  0
C  C114  1  0.64380219  0.51186762  0.12145805  1  -0.062144  0  -0.243181  -0.397388  0  4.008566  0
C  C115  1  0.63987521  0.55020316  0.27912433  1  -0.021242  0  -0.244945  -0.400863  0  3.978944  0
C  C116  1  0.33634516  0.48548011  0.09299047  1  -0.066217  0  -0.241322  -0.395023  0  3.998324  0
C  C117  1  0.33163324  0.51951470  0.24991101  1  -0.057282  0  -0.251215  -0.411296  0  3.978282  0
N  N118  1  0.28437739  0.49544923  0.49607664  1  -1.223734  0  -0.311558  -0.319852  0  3.40931  0
N  N119  1  0.72010839  0.50517368  0.50507977  1  -1.21572  0  -0.310063  -0.312812  0  3.398077  0
Cl  Cl120  1  0.66651383  0.25921494  0.53940147  1  -0.191398  0  -0.002048  -0.069442  0  1.543066  0
Cl  Cl121  1  0.33904990  0.27896113  0.55983090  1  -0.196945  0  0.005552  -0.064943  0  1.538729  0
Cl  Cl122  1  0.67067487  0.75293269  0.47808339  1  -0.197139  0  -0.000779  -0.071989  0  1.552032  0
Cl  Cl123  1  0.34159000  0.70580585  0.42239327  1  -0.192745  0  0.002596  -0.064245  0  1.526954  0
O  O124  1  0.56543708  0.52134250  0.61697843  1  -1.176675  0  -0.311189  -0.545757  0  2.367853  0
O  O125  1  0.43684511  0.47556584  0.60683106  1  -1.169109  0  -0.310793  -0.536741  0  2.4236  0
O  O126  1  0.45290094  0.61460616  0.51428513  1  -1.169255  0  -0.313353  -0.55657  0  2.377913  0
O  O127  1  0.57639030  0.61308492  0.46985941  1  -1.157977  0  -0.309144  -0.539286  0  2.354954  0
O  O128  1  0.42773315  0.52187231  0.38735678  1  -1.167328  0  -0.313003  -0.544763  0  2.424457  0
O  O129  1  0.55395091  0.47940130  0.38794649  1  -1.175631  0  -0.308951  -0.539064  0  2.347846  0
O  O130  1  0.57119816  0.38975618  0.53596530  1  -1.161136  0  -0.311849  -0.546251  0  2.382615  0
O  O131  1  0.44218594  0.38121406  0.48165153  1  -1.165106  0  -0.312112  -0.550271  0  2.351858  0
