# generated using pymatgen
data_ZnH6C4N8O
_symmetry_space_group_name_H-M   'P 1'
_cell_length_a   5.81483246
_cell_length_b   9.53110514
_cell_length_c   14.26222748
_cell_angle_alpha   90.00008337
_cell_angle_beta   90.00004905
_cell_angle_gamma   101.53130784
_symmetry_Int_Tables_number   1
_chemical_formula_structural   ZnH6C4N8O
_chemical_formula_sum   'Zn4 H24 C16 N32 O4'
_cell_volume   774.48352498
_cell_formula_units_Z   4
loop_
 _symmetry_equiv_pos_site_id
 _symmetry_equiv_pos_as_xyz
  1  'x, y, z'
loop_
 _atom_site_type_symbol
 _atom_site_label
 _atom_site_symmetry_multiplicity
 _atom_site_fract_x
 _atom_site_fract_y
 _atom_site_fract_z
 _atom_site_occupancy
 _atom_site_hle17_bader_spin_density
 _atom_site_hle17_ddec_charge
 _atom_site_hle17_ddec_spin_density
 _atom_site_hle17_ddec_sum_bond_order
 _atom_site_hle17_magmom
 _atom_site_hse06_10hf_bader_spin_density
 _atom_site_hse06_10hf_ddec_charge
 _atom_site_hse06_10hf_ddec_spin_density
 _atom_site_hse06_10hf_ddec_sum_bond_order
 _atom_site_hse06_10hf_magmom
 _atom_site_hse06_bader_spin_density
 _atom_site_hse06_ddec_charge
 _atom_site_hse06_ddec_spin_density
 _atom_site_hse06_ddec_sum_bond_order
 _atom_site_hse06_magmom
 _atom_site_pbe_bader_spin_density
 _atom_site_pbe_cm5_charge
 _atom_site_pbe_ddec_charge
 _atom_site_pbe_ddec_spin_density
 _atom_site_pbe_ddec_sum_bond_order
 _atom_site_pbe_magmom
Zn  Zn0  1  0.79681366  0.19284379  0.39831039  1  0  0.933108  0  1.902664  0  0  0.73074  0  2.370684  0  0  0.771837  0  2.325146  0  0  0.736621  0.700928  0  2.403071  0
Zn  Zn1  1  0.20318679  0.30715670  0.89831078  1  0  0.933137  0  1.902637  0  0  0.730768  0  2.370662  0  0  0.771849  0  2.325141  0  0  0.736634  0.700957  0  2.403048  0
Zn  Zn2  1  0.20318572  0.80715698  0.60168905  1  0  0.933112  0  1.902639  0  0  0.730756  0  2.370646  0  0  0.771858  0  2.325127  0  0  0.736628  0.700951  0  2.403038  0
Zn  Zn3  1  0.79681259  0.69284407  0.10169006  1  0  0.933079  0  1.902708  0  0  0.730707  0  2.37073  0  0  0.771802  0  2.325201  0  0  0.736608  0.700899  0  2.403119  0
H  H4  1  0.08534534  0.67481453  0.27208547  1  0  0.104016  0  0.94879  0  0  0.116684  0  1.010891  0  0  0.11829  0  1.011093  0  0  0.104646  0.115455  0  1.010799  0
H  H5  1  0.91465932  0.82518909  0.77208613  1  0  0.104012  0  0.948866  0  0  0.116689  0  1.010938  0  0  0.118313  0  1.011122  0  0  0.104659  0.115463  0  1.010838  0
H  H6  1  0.91465541  0.32518516  0.72791537  1  0  0.10401  0  0.948803  0  0  0.11668  0  1.010906  0  0  0.118285  0  1.011109  0  0  0.104645  0.115452  0  1.010812  0
H  H7  1  0.08534283  0.17481489  0.22791401  1  0  0.104025  0  0.948886  0  0  0.116678  0  1.010969  0  0  0.118278  0  1.01118  0  0  0.104664  0.115459  0  1.010868  0
H  H8  1  0.26888084  0.55719682  0.23948465  1  0  0.101704  0  0.939714  0  0  0.106499  0  1.018369  0  0  0.10802  0  1.018035  0  0  0.101224  0.105294  0  1.018881  0
H  H9  1  0.73112406  0.94280243  0.73948676  1  0  0.10172  0  0.939703  0  0  0.106516  0  1.018347  0  0  0.108035  0  1.018018  0  0  0.101241  0.105304  0  1.018868  0
H  H10  1  0.73111957  0.44280180  0.76051619  1  0  0.101709  0  0.939726  0  0  0.106499  0  1.018384  0  0  0.108025  0  1.018045  0  0  0.101239  0.105286  0  1.018905  0
H  H11  1  0.26887877  0.05719833  0.26051408  1  0  0.101748  0  0.939678  0  0  0.106523  0  1.018322  0  0  0.108053  0  1.017978  0  0  0.101239  0.10531  0  1.018844  0
H  H12  1  0.28813771  0.63643190  0.40875909  1  0  0.112638  0  0.936528  0  0  0.125191  0  0.999432  0  0  0.126606  0  0.999056  0  0  0.109847  0.12483  0  0.998326  0
H  H13  1  0.71186560  0.86356671  0.90875971  1  0  0.112639  0  0.936517  0  0  0.125193  0  0.999419  0  0  0.126611  0  0.999043  0  0  0.109861  0.124833  0  0.998312  0
H  H14  1  0.71186305  0.36356779  0.59124175  1  0  0.112626  0  0.936529  0  0  0.125178  0  0.999427  0  0  0.126592  0  0.999054  0  0  0.109842  0.124819  0  0.998319  0
H  H15  1  0.28813687  0.13643298  0.09124042  1  0  0.112645  0  0.936487  0  0  0.125199  0  0.999394  0  0  0.126616  0  0.999018  0  0  0.109858  0.124839  0  0.998291  0
H  H16  1  0.99826030  0.53681312  0.42510795  1  0  0.099499  0  0.936716  0  0  0.112388  0  1.002502  0  0  0.113798  0  1.001805  0  0  0.102998  0.111256  0  1.00322  0
H  H17  1  0.00174203  0.96318768  0.92510911  1  0  0.099509  0  0.936707  0  0  0.112363  0  1.002539  0  0  0.113774  0  1.001842  0  0  0.102991  0.111237  0  1.003251  0
H  H18  1  0.00174045  0.46318657  0.57489289  1  0  0.099516  0  0.936672  0  0  0.112378  0  1.002491  0  0  0.113789  0  1.001793  0  0  0.102991  0.111246  0  1.003207  0
H  H19  1  0.99826114  0.03681416  0.07489102  1  0  0.099481  0  0.936715  0  0  0.11237  0  1.002511  0  0  0.113781  0  1.001815  0  0  0.102986  0.111244  0  1.003227  0
H  H20  1  0.63088179  0.11006294  0.57467688  1  0  0.371235  0  0.957864  0  0  0.327112  0  1.045976  0  0  0.337797  0  1.030653  0  0  0.279947  0.319944  0  1.056025  0
H  H21  1  0.36911980  0.38993779  0.07467723  1  0  0.371253  0  0.957808  0  0  0.327125  0  1.045958  0  0  0.33781  0  1.030636  0  0  0.279935  0.319958  0  1.056005  0
H  H22  1  0.36911896  0.88993675  0.42532256  1  0  0.371209  0  0.957877  0  0  0.327081  0  1.04602  0  0  0.337766  0  1.030698  0  0  0.279931  0.319913  0  1.056068  0
H  H23  1  0.63088131  0.61006297  0.92532361  1  0  0.371237  0  0.957841  0  0  0.327111  0  1.045978  0  0  0.337797  0  1.030655  0  0  0.279942  0.319943  0  1.056027  0
H  H24  1  0.76126900  0.99123477  0.53841301  1  0  0.382088  0  0.93547  0  0  0.340111  0  1.021667  0  0  0.350368  0  1.006916  0  0  0.284044  0.333604  0  1.031058  0
H  H25  1  0.23873015  0.50876397  0.03841364  1  0  0.382099  0  0.935444  0  0  0.340129  0  1.021642  0  0  0.350386  0  1.006889  0  0  0.284055  0.333623  0  1.031031  0
H  H26  1  0.23873105  0.00876278  0.46158643  1  0  0.382087  0  0.935425  0  0  0.340117  0  1.021649  0  0  0.350374  0  1.006897  0  0  0.284058  0.33361  0  1.03104  0
H  H27  1  0.76126888  0.49123572  0.96158649  1  0  0.382084  0  0.935476  0  0  0.340112  0  1.021669  0  0  0.350369  0  1.006916  0  0  0.284053  0.333605  0  1.031059  0
C  C28  1  0.90289968  0.46696315  0.24108194  1  0  0.363049  0  3.694388  0  0  0.334886  0  3.969155  0  0  0.348849  0  3.983727  0  0  0.22942  0.325465  0  3.959227  0
C  C29  1  0.09710067  0.03303801  0.74108203  1  0  0.363154  0  3.694263  0  0  0.334985  0  3.969031  0  0  0.348946  0  3.983606  0  0  0.229494  0.325563  0  3.959103  0
C  C30  1  0.09710108  0.53303654  0.75891960  1  0  0.363087  0  3.694358  0  0  0.334924  0  3.969115  0  0  0.348886  0  3.983687  0  0  0.22944  0.325505  0  3.959187  0
C  C31  1  0.90289906  0.96696383  0.25891741  1  0  0.363067  0  3.694448  0  0  0.334882  0  3.969187  0  0  0.348845  0  3.983759  0  0  0.229401  0.325462  0  3.959261  0
C  C32  1  0.11224741  0.56486142  0.28080145  1  0  -0.186387  0  3.685904  0  0  -0.226436  0  3.93683  0  0  -0.22909  0  3.946912  0  0  -0.149535  -0.224333  0  3.929784  0
C  C33  1  0.88775486  0.93514008  0.78080151  1  0  -0.186474  0  3.685917  0  0  -0.226523  0  3.936858  0  0  -0.229191  0  3.946933  0  0  -0.149583  -0.224414  0  3.929824  0
C  C34  1  0.88775300  0.43513721  0.71919939  1  0  -0.186385  0  3.685858  0  0  -0.226428  0  3.936768  0  0  -0.229085  0  3.946844  0  0  -0.149544  -0.224319  0  3.929732  0
C  C35  1  0.11224729  0.06486389  0.21919653  1  0  -0.186467  0  3.686032  0  0  -0.226442  0  3.936892  0  0  -0.2291  0  3.946968  0  0  -0.149541  -0.224346  0  3.92986  0
C  C36  1  0.16104205  0.54256837  0.38498153  1  0  -0.179957  0  3.672991  0  0  -0.220635  0  3.918788  0  0  -0.221774  0  3.928088  0  0  -0.148177  -0.219893  0  3.911397  0
C  C37  1  0.83895947  0.95743018  0.88498369  1  0  -0.179936  0  3.672889  0  0  -0.220582  0  3.918714  0  0  -0.221731  0  3.928027  0  0  -0.14819  -0.219844  0  3.911325  0
C  C38  1  0.83895870  0.45743132  0.61501791  1  0  -0.179936  0  3.672905  0  0  -0.220596  0  3.918702  0  0  -0.22174  0  3.928006  0  0  -0.148165  -0.219852  0  3.911311  0
C  C39  1  0.16104163  0.04257058  0.11501855  1  0  -0.179954  0  3.672924  0  0  -0.220668  0  3.918679  0  0  -0.221811  0  3.927982  0  0  -0.148192  -0.219926  0  3.911291  0
C  C40  1  0.26395520  0.41473552  0.40422813  1  0  0.335526  0  3.707861  0  0  0.31571  0  3.986938  0  0  0.325789  0  4.002742  0  0  0.228412  0.309133  0  3.976007  0
C  C41  1  0.73604836  0.08526391  0.90422919  1  0  0.335501  0  3.707759  0  0  0.315636  0  3.986905  0  0  0.325718  0  4.002707  0  0  0.228386  0.309058  0  3.975978  0
C  C42  1  0.73604555  0.58526418  0.59577271  1  0  0.335526  0  3.707962  0  0  0.315731  0  3.987  0  0  0.325813  0  4.0028  0  0  0.228427  0.309151  0  3.976071  0
C  C43  1  0.26395274  0.91473685  0.09577164  1  0  0.335514  0  3.707845  0  0  0.315753  0  3.986852  0  0  0.325833  0  4.002656  0  0  0.228412  0.309173  0  3.975923  0
N  N44  1  0.81699637  0.32978404  0.26454454  1  0  -0.364595  0  3.108758  0  0  -0.306413  0  3.398457  0  0  -0.323907  0  3.411794  0  0  -0.226967  -0.294543  0  3.389851  0
N  N45  1  0.18300440  0.17021825  0.76454478  1  0  -0.364667  0  3.10878  0  0  -0.306469  0  3.39848  0  0  -0.323961  0  3.411809  0  0  -0.227022  -0.294599  0  3.389874  0
N  N46  1  0.18300301  0.67021672  0.73545630  1  0  -0.364663  0  3.108792  0  0  -0.30649  0  3.398511  0  0  -0.323987  0  3.411851  0  0  -0.226985  -0.294621  0  3.389907  0
N  N47  1  0.81699741  0.82978466  0.23545535  1  0  -0.364607  0  3.108847  0  0  -0.306421  0  3.398555  0  0  -0.323918  0  3.411894  0  0  -0.226979  -0.294553  0  3.389949  0
N  N48  1  0.62821568  0.28429130  0.20900337  1  0  -0.054536  0  2.951678  0  0  -0.057031  0  3.248172  0  0  -0.054457  0  3.260165  0  0  -0.090099  -0.058542  0  3.240438  0
N  N49  1  0.37178216  0.21570763  0.70900303  1  0  -0.054492  0  2.951747  0  0  -0.056995  0  3.248247  0  0  -0.05442  0  3.260236  0  0  -0.09007  -0.058508  0  3.240512  0
N  N50  1  0.37178336  0.71570839  0.79099677  1  0  -0.054512  0  2.951725  0  0  -0.057009  0  3.248229  0  0  -0.054432  0  3.260221  0  0  -0.090087  -0.058522  0  3.240495  0
N  N51  1  0.62821859  0.78429207  0.29099641  1  0  -0.054503  0  2.951752  0  0  -0.057002  0  3.248254  0  0  -0.054428  0  3.260245  0  0  -0.090048  -0.058516  0  3.24052  0
N  N52  1  0.60047967  0.38863589  0.15387317  1  0  -0.092672  0  3.078199  0  0  -0.060305  0  3.359021  0  0  -0.062889  0  3.371698  0  0  -0.086056  -0.058462  0  3.35039  0
N  N53  1  0.39952008  0.11136397  0.65387274  1  0  -0.092698  0  3.078232  0  0  -0.060334  0  3.359054  0  0  -0.062918  0  3.37173  0  0  -0.086061  -0.058487  0  3.350419  0
N  N54  1  0.39952316  0.61136487  0.84612696  1  0  -0.092586  0  3.078161  0  0  -0.060221  0  3.358964  0  0  -0.062806  0  3.371639  0  0  -0.086024  -0.058376  0  3.350331  0
N  N55  1  0.60047860  0.88863465  0.34612669  1  0  -0.092679  0  3.07827  0  0  -0.060323  0  3.359089  0  0  -0.062908  0  3.371766  0  0  -0.086088  -0.058479  0  3.350454  0
N  N56  1  0.76954951  0.50531641  0.17217265  1  0  -0.342  0  3.188918  0  0  -0.275032  0  3.489889  0  0  -0.293477  0  3.501167  0  0  -0.245854  -0.262151  0  3.482391  0
N  N57  1  0.23044831  0.99468267  0.67217252  1  0  -0.342027  0  3.1889  0  0  -0.275075  0  3.489907  0  0  -0.293523  0  3.501189  0  0  -0.245883  -0.262195  0  3.48241  0
N  N58  1  0.23045159  0.49468435  0.82782819  1  0  -0.342118  0  3.188984  0  0  -0.275142  0  3.489964  0  0  -0.293582  0  3.501234  0  0  -0.24592  -0.26226  0  3.482465  0
N  N59  1  0.76955038  0.00531595  0.32782691  1  0  -0.342035  0  3.188977  0  0  -0.275044  0  3.489934  0  0  -0.293488  0  3.50121  0  0  -0.245857  -0.262162  0  3.482432  0
N  N60  1  0.29350144  0.19672763  0.43349064  1  0  -0.068629  0  3.036979  0  0  -0.045287  0  3.301227  0  0  -0.045207  0  3.314791  0  0  -0.079536  -0.045829  0  3.292257  0
N  N61  1  0.70649876  0.30327187  0.93349050  1  0  -0.068571  0  3.036913  0  0  -0.045228  0  3.301151  0  0  -0.045148  0  3.314713  0  0  -0.079512  -0.04577  0  3.29218  0
N  N62  1  0.70649724  0.80327099  0.56650880  1  0  -0.068603  0  3.036992  0  0  -0.04524  0  3.301213  0  0  -0.04516  0  3.31478  0  0  -0.079512  -0.045784  0  3.292244  0
N  N63  1  0.29350062  0.69672889  0.06650893  1  0  -0.068616  0  3.036951  0  0  -0.045277  0  3.301195  0  0  -0.045197  0  3.314758  0  0  -0.07954  -0.045821  0  3.292226  0
N  N64  1  0.13910345  0.28157566  0.42153249  1  0  -0.314687  0  3.209634  0  0  -0.246776  0  3.501139  0  0  -0.26334  0  3.512847  0  0  -0.232359  -0.235229  0  3.493102  0
N  N65  1  0.86089535  0.21842488  0.92153373  1  0  -0.314737  0  3.209614  0  0  -0.246805  0  3.501142  0  0  -0.263366  0  3.512843  0  0  -0.232354  -0.235256  0  3.493102  0
N  N66  1  0.86089559  0.71842403  0.57846835  1  0  -0.314678  0  3.209687  0  0  -0.246777  0  3.501177  0  0  -0.263343  0  3.512887  0  0  -0.232357  -0.235229  0  3.493141  0
N  N67  1  0.13910266  0.78157695  0.07846711  1  0  -0.314685  0  3.209607  0  0  -0.246778  0  3.501075  0  0  -0.263342  0  3.512781  0  0  -0.232363  -0.235228  0  3.493035  0
N  N68  1  0.50458133  0.27702104  0.42319008  1  0  -0.118642  0  3.281264  0  0  -0.057061  0  3.589414  0  0  -0.065518  0  3.601674  0  0  -0.114617  -0.051234  0  3.581742  0
N  N69  1  0.49541713  0.22297843  0.92318909  1  0  -0.118645  0  3.28124  0  0  -0.057061  0  3.589392  0  0  -0.065517  0  3.601649  0  0  -0.114622  -0.051234  0  3.58172  0
N  N70  1  0.49541908  0.72297758  0.57681006  1  0  -0.118617  0  3.281258  0  0  -0.057046  0  3.589409  0  0  -0.065508  0  3.601674  0  0  -0.114602  -0.051223  0  3.581743  0
N  N71  1  0.50458054  0.77702233  0.07680964  1  0  -0.118638  0  3.281254  0  0  -0.057061  0  3.589409  0  0  -0.065519  0  3.60167  0  0  -0.11459  -0.051235  0  3.581741  0
N  N72  1  0.49370911  0.41355059  0.40524414  1  0  -0.26756  0  2.890238  0  0  -0.263009  0  3.173144  0  0  -0.27108  0  3.187663  0  0  -0.211085  -0.257943  0  3.163775  0
N  N73  1  0.50629101  0.08644884  0.90524512  1  0  -0.26755  0  2.890218  0  0  -0.262983  0  3.173145  0  0  -0.271054  0  3.187663  0  0  -0.211075  -0.257916  0  3.163775  0
N  N74  1  0.50629164  0.58644911  0.59475600  1  0  -0.267632  0  2.890365  0  0  -0.26309  0  3.17327  0  0  -0.271162  0  3.187788  0  0  -0.21113  -0.258022  0  3.163902  0
N  N75  1  0.49370630  0.91355085  0.09475501  1  0  -0.267554  0  2.890278  0  0  -0.263023  0  3.173172  0  0  -0.271094  0  3.187689  0  0  -0.211091  -0.257955  0  3.163803  0
O  O76  1  0.76495298  0.09591204  0.53379969  1  0  -0.813177  0  1.996903  0  0  -0.751311  0  2.23116  0  0  -0.770586  0  2.197277  0  0  -0.592875  -0.73773  0  2.252475  0
O  O77  1  0.23504814  0.40408752  0.03380071  1  0  -0.813202  0  1.996862  0  0  -0.751349  0  2.231135  0  0  -0.770619  0  2.197252  0  0  -0.592876  -0.737766  0  2.25245  0
O  O78  1  0.23504742  0.90408658  0.46619904  1  0  -0.813154  0  1.996879  0  0  -0.751306  0  2.231186  0  0  -0.770579  0  2.19731  0  0  -0.592885  -0.737726  0  2.252504  0
O  O79  1  0.76495261  0.59591217  0.96620013  1  0  -0.813183  0  1.996924  0  0  -0.751321  0  2.231181  0  0  -0.770595  0  2.197299  0  0  -0.592875  -0.73774  0  2.252498  0
