# generated using pymatgen
data_MnH14C14S2N2O5
_symmetry_space_group_name_H-M   'P 1'
_cell_length_a   5.71997342
_cell_length_b   8.81505132
_cell_length_c   17.55703759
_cell_angle_alpha   101.14272701
_cell_angle_beta   90.01166585
_cell_angle_gamma   109.25451943
_symmetry_Int_Tables_number   1
_chemical_formula_structural   MnH14C14S2N2O5
_chemical_formula_sum   'Mn2 H28 C28 S4 N4 O10'
_cell_volume   818.02960510
_cell_formula_units_Z   2
loop_
 _symmetry_equiv_pos_site_id
 _symmetry_equiv_pos_as_xyz
  1  'x, y, z'
loop_
 _atom_site_type_symbol
 _atom_site_label
 _atom_site_symmetry_multiplicity
 _atom_site_fract_x
 _atom_site_fract_y
 _atom_site_fract_z
 _atom_site_occupancy
 _atom_site_hle17_ddec_charge
 _atom_site_hle17_ddec_spin_density
 _atom_site_hle17_ddec_sum_bond_order
 _atom_site_hle17_magmom
 _atom_site_hse06_10hf_ddec_charge
 _atom_site_hse06_10hf_ddec_spin_density
 _atom_site_hse06_10hf_ddec_sum_bond_order
 _atom_site_hse06_10hf_magmom
 _atom_site_hse06_ddec_charge
 _atom_site_hse06_ddec_spin_density
 _atom_site_hse06_ddec_sum_bond_order
 _atom_site_hse06_magmom
 _atom_site_pbe_cm5_charge
 _atom_site_pbe_ddec_charge
 _atom_site_pbe_ddec_spin_density
 _atom_site_pbe_ddec_sum_bond_order
 _atom_site_pbe_magmom
Mn  Mn0  1  0.48124149  0.99804080  0.74979323  1  1.155686  4.800628  1.748585  4.649  0.982425  4.730458  2.258663  4.493  1.047104  4.776102  2.180804  4.564  0.6226  0.932159  4.682176  2.316284  4.421
Mn  Mn1  1  0.51873982  0.00195965  0.25021057  1  1.155675  4.800667  1.748538  4.649  0.982464  4.730497  2.258525  4.493  1.047082  4.776139  2.180774  4.564  0.622594  0.932195  4.682212  2.316158  4.421
H  H2  1  0.02376184  0.98721723  0.79791096  1  0.429812  0.001514  0.883378  0.002  0.395567  0.00343  0.953288  0.003  0.407588  0.002692  0.9357  0.003  0.290484  0.387082  0.004079  0.965634  0.004
H  H3  1  0.96719560  0.99085453  0.29587318  1  0.42975  0.001601  0.883816  0.002  0.395368  0.003591  0.954051  0.003  0.407493  0.002833  0.936248  0.003  0.290093  0.386802  0.004256  0.966563  0.004
H  H4  1  0.97622240  0.01278209  0.20208478  1  0.429756  0.001512  0.883435  0.002  0.395501  0.00343  0.953368  0.003  0.407523  0.002692  0.935776  0.003  0.290472  0.387018  0.004079  0.965709  0.004
H  H5  1  0.03280725  0.00914702  0.70412099  1  0.429681  0.001602  0.883897  0.002  0.39529  0.003591  0.954136  0.003  0.407411  0.002833  0.93634  0.003  0.290056  0.386725  0.004255  0.966644  0.004
H  H6  1  0.44316986  0.76444148  0.96196833  1  0.119127  -0.000137  0.94109  0.0  0.129237  -2.1e-05  1.006688  0.0  0.131537  -7.3e-05  1.005622  0.0  0.099741  0.127699  4.7e-05  1.007513  0.0
H  H7  1  0.32367974  0.76771147  0.46275945  1  0.119414  -0.000129  0.93952  0.0  0.130075  -1.2e-05  1.004414  0.0  0.132334  -6.6e-05  1.003358  0.0  0.100384  0.128562  5.8e-05  1.005195  0.0
H  H8  1  0.55682849  0.23555811  0.03803770  1  0.119146  -0.000127  0.941101  0.0  0.129243  -2.1e-05  1.006702  0.0  0.131548  -7.2e-05  1.00564  0.0  0.099752  0.127709  4.7e-05  1.007528  0.0
H  H9  1  0.67632819  0.23228283  0.53724338  1  0.119546  -0.000122  0.939433  0.0  0.130196  -1.2e-05  1.00434  0.0  0.132453  -6.6e-05  1.003283  0.0  0.100434  0.128689  5.8e-05  1.00512  0.0
H  H10  1  0.67088365  0.94004204  0.01862262  1  0.154448  -0.000304  0.923855  0.0  0.164964  -0.000209  0.98683  0.0  0.168478  -0.000271  0.984765  0.0  0.115215  0.162409  -0.000133  0.988515  0.0
H  H11  1  0.27376724  0.94407472  0.51791428  1  0.152485  -0.000308  0.927058  0.0  0.163238  -0.000209  0.990517  0.0  0.166724  -0.000277  0.988449  0.0  0.11436  0.160659  -0.000124  0.992248  0.0
H  H12  1  0.32911612  0.05995690  0.98137880  1  0.154452  -0.000291  0.923879  0.0  0.164986  -0.00021  0.986814  0.0  0.168505  -0.000271  0.984754  0.0  0.115233  0.16243  -0.000133  0.988503  0.0
H  H13  1  0.72624836  0.05592441  0.48208830  1  0.152511  -0.000309  0.927155  0.0  0.163292  -0.000209  0.990566  0.0  0.166754  -0.000278  0.988525  0.0  0.114383  0.160718  -0.000124  0.992295  0.0
H  H14  1  0.96292858  0.23802368  0.85107551  1  0.076244  0.00058  0.976161  0.0  0.079734  0.001542  1.050815  0.001  0.082983  0.001189  1.047101  0.001  0.113776  0.077237  0.001884  1.053723  0.001
H  H15  1  0.27056257  0.23941251  0.35067786  1  0.074919  0.000505  0.974221  0.0  0.078488  0.001425  1.049301  0.001  0.081692  0.001078  1.045581  0.0  0.112899  0.076046  0.001767  1.052148  0.001
H  H16  1  0.03705894  0.76196830  0.14892831  1  0.076152  0.000571  0.976352  0.0  0.079746  0.001542  1.050891  0.001  0.082998  0.001189  1.047168  0.001  0.113764  0.077237  0.001884  1.053805  0.001
H  H17  1  0.72942597  0.76060574  0.64931456  1  0.074917  0.000499  0.974132  0.0  0.078452  0.001425  1.049213  0.001  0.081656  0.001078  1.045489  0.0  0.112887  0.076011  0.001767  1.052055  0.001
H  H18  1  0.08997732  0.50640059  0.94122292  1  0.097222  0.000231  0.98625  0.0  0.104664  0.000256  1.055592  0.0  0.10785  0.000169  1.054763  0.0  0.096962  0.102325  0.000358  1.056458  0.0
H  H19  1  0.41386394  0.50707807  0.44160139  1  0.097156  0.000238  0.98747  0.0  0.1047  0.000268  1.056241  0.0  0.107966  0.000178  1.055292  0.0  0.096837  0.102352  0.000372  1.057129  0.0
H  H20  1  0.91002377  0.49360097  0.05877982  1  0.097237  0.000232  0.986263  0.0  0.104664  0.000256  1.055616  0.0  0.107853  0.000169  1.054791  0.0  0.096965  0.102304  0.000358  1.056504  0.0
H  H21  1  0.58613794  0.49293890  0.55839037  1  0.097174  0.000238  0.987359  0.0  0.104666  0.000268  1.05617  0.0  0.107932  0.000178  1.055225  0.0  0.09682  0.102318  0.000372  1.057058  0.0
H  H22  1  0.45460635  0.59003794  0.84507096  1  0.114981  2e-05  0.960455  0.0  0.124721  -1.3e-05  1.021608  0.0  0.127499  -7.9e-05  1.022044  0.0  0.107474  0.122729  6.5e-05  1.02144  0.0
H  H23  1  0.13569444  0.59422264  0.34620081  1  0.113004  1.7e-05  0.962088  0.0  0.12381  -1.6e-05  1.022072  0.0  0.126504  -8.1e-05  1.022622  0.0  0.106845  0.121807  6.1e-05  1.02196  0.0
H  H24  1  0.54540269  0.40996550  0.15492790  1  0.115031  1.6e-05  0.960313  0.0  0.124775  -1.3e-05  1.021451  0.0  0.127559  -7.9e-05  1.021881  0.0  0.107481  0.122773  6.5e-05  1.021317  0.0
H  H25  1  0.86430725  0.40576970  0.65379675  1  0.112985  2e-05  0.962168  0.0  0.123774  -1.6e-05  1.022172  0.0  0.126476  -8.1e-05  1.022699  0.0  0.106822  0.121773  6.1e-05  1.02206  0.0
H  H26  1  0.36354475  0.32086631  0.75562692  1  0.08143  -0.000119  0.932794  0.0  0.090733  0.000256  0.99452  0.0  0.093065  0.000105  0.992663  0.0  0.119523  0.088971  0.000423  0.995977  0.001
H  H27  1  0.95600807  0.32538031  0.25651125  1  0.083114  -0.000162  0.932827  0.0  0.092688  0.000205  0.993954  0.0  0.094978  5.3e-05  0.992125  0.0  0.119178  0.090875  0.000374  0.995477  0.001
H  H28  1  0.63645865  0.67913982  0.24437383  1  0.081455  -0.000114  0.932801  0.0  0.090782  0.000256  0.9945  0.0  0.093109  0.000105  0.992654  0.0  0.119523  0.089017  0.000422  0.995958  0.001
H  H29  1  0.04398730  0.67460989  0.74348845  1  0.083157  -0.000164  0.932808  0.0  0.092708  0.000205  0.993951  0.0  0.094997  5.4e-05  0.992126  0.0  0.119186  0.090895  0.000374  0.995475  0.001
C  C30  1  0.69432934  0.92482071  0.89466184  1  0.707118  0.004799  3.884992  0.004  0.656709  0.008662  4.189571  0.007  0.690527  0.006724  4.183856  0.006  0.213675  0.633648  0.010573  4.192039  0.008
C  C31  1  0.23143069  0.92319658  0.39340785  1  0.704114  0.004731  3.892047  0.004  0.653172  0.008608  4.19889  0.007  0.686863  0.00669  4.193334  0.006  0.211539  0.630179  0.010493  4.201186  0.008
C  C32  1  0.30566246  0.07517976  0.10534196  1  0.706796  0.004809  3.8855  0.004  0.656447  0.00866  4.18997  0.007  0.690271  0.006726  4.184251  0.006  0.213419  0.633379  0.010572  4.192437  0.008
C  C33  1  0.76858434  0.07678755  0.60659145  1  0.704262  0.004734  3.891833  0.004  0.653306  0.008606  4.198679  0.007  0.68699  0.006686  4.193133  0.006  0.211651  0.630314  0.010491  4.200981  0.008
C  C34  1  0.63791627  0.84379377  0.96537430  1  -0.31877  0.000842  3.623204  0.001  -0.349387  0.000985  3.875603  0.001  -0.354143  0.000525  3.88045  0.001  -0.151303  -0.346522  0.001551  3.872712  0.001
C  C35  1  0.20815089  0.84601945  0.46534603  1  -0.317596  0.000815  3.626583  0.001  -0.348782  0.000978  3.879469  0.001  -0.353352  0.000509  3.884069  0.001  -0.150943  -0.345913  0.001548  3.876579  0.001
C  C36  1  0.36207701  0.15620271  0.03462696  1  -0.318786  0.000805  3.623371  0.001  -0.349393  0.000985  3.875675  0.001  -0.354183  0.000524  3.880571  0.001  -0.151307  -0.346528  0.001551  3.872797  0.001
C  C37  1  0.79186546  0.15397422  0.53465219  1  -0.317901  0.000809  3.626734  0.001  -0.349136  0.000978  3.879655  0.001  -0.353686  0.000515  3.884266  0.001  -0.151073  -0.346271  0.001549  3.876759  0.001
C  C38  1  0.85593526  0.31997155  0.85075199  1  0.126866  0.005139  3.744657  0.005  0.097586  0.007498  3.99791  0.006  0.106495  0.006521  4.014802  0.005  0.03871  0.09148  0.00881  3.986682  0.007
C  C39  1  0.46081826  0.32182558  0.35092500  1  0.130188  0.005176  3.742989  0.005  0.100745  0.00757  3.996135  0.006  0.109726  0.006555  4.013063  0.005  0.040629  0.094571  0.008952  3.984936  0.007
C  C40  1  0.14405411  0.68002411  0.14925207  1  0.126958  0.005123  3.744864  0.005  0.097588  0.007495  3.998103  0.006  0.106499  0.006519  4.014993  0.005  0.03869  0.091499  0.008807  3.986859  0.007
C  C41  1  0.53917421  0.67819006  0.64907467  1  0.130183  0.005187  3.742911  0.005  0.100777  0.007569  3.996084  0.006  0.109763  0.006557  4.013012  0.005  0.040657  0.094604  0.008952  3.984879  0.007
C  C42  1  0.92401024  0.46969044  0.90223603  1  -0.191762  -0.002973  3.764062  -0.002  -0.207739  -0.001765  4.013261  -0.001  -0.216722  -0.002575  4.033019  -0.001  -0.100793  -0.201997  -0.001241  4.000522  0.0
C  C43  1  0.54342922  0.47124858  0.40272475  1  -0.195286  -0.002943  3.767424  -0.002  -0.211087  -0.00175  4.016667  -0.001  -0.220197  -0.002559  4.036457  -0.001  -0.101909  -0.205313  -0.001237  4.003932  0.0
C  C44  1  0.07598582  0.53031502  0.09776867  1  -0.191718  -0.002934  3.763918  -0.002  -0.207682  -0.001764  4.013147  -0.001  -0.216674  -0.002575  4.032882  -0.001  -0.100771  -0.201925  -0.001242  4.000413  0.0
C  C45  1  0.45656202  0.52875768  0.59726859  1  -0.195305  -0.002939  3.767107  -0.002  -0.211052  -0.001748  4.016376  -0.001  -0.220167  -0.002562  4.036171  -0.001  -0.10188  -0.205277  -0.001237  4.003639  0.0
C  C46  1  0.77335769  0.56907043  0.90577202  1  0.079957  0.003623  3.802432  0.003  0.094043  0.004916  4.058985  0.004  0.103119  0.00423  4.078064  0.004  0.005582  0.087673  0.006334  4.046234  0.005
C  C47  1  0.79464793  0.57141380  0.40661905  1  0.084461  0.003673  3.800898  0.003  0.097786  0.005002  4.058215  0.004  0.106911  0.004281  4.077219  0.004  0.006557  0.091409  0.006492  4.04545  0.005
C  C48  1  0.22664214  0.43092517  0.09423146  1  0.079865  0.003597  3.802438  0.003  0.093965  0.004916  4.05897  0.004  0.103063  0.004229  4.078018  0.004  0.005598  0.087599  0.006334  4.046205  0.005
C  C49  1  0.20535392  0.42858579  0.59337842  1  0.084427  0.003668  3.801055  0.003  0.097753  0.004999  4.058356  0.004  0.106878  0.004282  4.077361  0.004  0.006495  0.091376  0.00649  4.045595  0.005
C  C50  1  0.57315121  0.51700955  0.84923206  1  -0.181985  -0.002969  3.719013  -0.002  -0.199936  -0.00175  3.968502  -0.001  -0.209509  -0.002612  3.989931  -0.001  -0.0976  -0.193823  -0.001179  3.954592  -0.001
C  C51  1  0.94309578  0.52062360  0.35011876  1  -0.181536  -0.003068  3.722141  -0.002  -0.199979  -0.001872  3.971605  -0.001  -0.209579  -0.002725  3.993111  -0.001  -0.097209  -0.193826  -0.001307  3.957604  -0.001
C  C52  1  0.42685161  0.48299544  0.15076919  1  -0.182055  -0.002919  3.719022  -0.002  -0.200002  -0.00175  3.968523  -0.001  -0.209585  -0.002611  3.989946  -0.001  -0.097623  -0.193886  -0.001178  3.954599  -0.001
C  C53  1  0.05690309  0.47937354  0.64987855  1  -0.181521  -0.003074  3.722111  -0.002  -0.199945  -0.001868  3.97156  -0.001  -0.209541  -0.002728  3.993078  -0.001  -0.097181  -0.193796  -0.001307  3.957567  -0.001
C  C54  1  0.52150251  0.36586643  0.79864780  1  0.141842  0.00454  3.711192  0.005  0.113969  0.006382  3.962167  0.006  0.123253  0.005447  3.97904  0.005  0.049394  0.107643  0.007786  3.950792  0.007
C  C55  1  0.84270544  0.36981989  0.29927966  1  0.137946  0.004552  3.713905  0.005  0.109753  0.006383  3.964626  0.006  0.119031  0.005447  3.981549  0.005  0.046953  0.103465  0.007802  3.953246  0.007
C  C56  1  0.47849985  0.63413766  0.20135567  1  0.141897  0.004504  3.7113  0.004  0.114017  0.006382  3.962271  0.006  0.123304  0.005446  3.979133  0.005  0.049467  0.107692  0.007786  3.950887  0.007
C  C57  1  0.15729013  0.63017765  0.70072053  1  0.137963  0.004563  3.713811  0.005  0.109778  0.00638  3.964538  0.006  0.11905  0.005448  3.981471  0.005  0.047003  0.103487  0.0078  3.953166  0.007
S  S58  1  0.84689703  0.73781818  0.98243092  1  0.0896  0.002285  2.48929  0.002  0.087072  0.004008  2.831857  0.003  0.081634  0.002824  2.832655  0.002  0.050156  0.091004  0.005537  2.831469  0.004
S  S59  1  0.89292419  0.73984079  0.48344229  1  0.08689  0.002259  2.48394  0.002  0.085146  0.003957  2.825929  0.003  0.079618  0.002775  2.826594  0.002  0.04917  0.089082  0.005499  2.825617  0.004
S  S60  1  0.15310342  0.26217864  0.01757264  1  0.089692  0.002285  2.489456  0.002  0.087136  0.004009  2.83201  0.003  0.081701  0.002822  2.832813  0.002  0.05013  0.091069  0.005536  2.83163  0.004
S  S61  1  0.10708553  0.26016053  0.51655872  1  0.086937  0.002259  2.484133  0.002  0.08521  0.003956  2.826123  0.003  0.079678  0.002776  2.826785  0.002  0.049178  0.089155  0.005497  2.825811  0.004
N  N62  1  0.65340063  0.26444055  0.80032503  1  -0.366834  0.024207  3.240623  0.011  -0.296494  0.027656  3.518544  0.01  -0.317289  0.024098  3.531199  0.008  -0.336632  -0.281635  0.031149  3.509816  0.013
N  N63  1  0.60814728  0.26749512  0.30063381  1  -0.362427  0.024246  3.239478  0.011  -0.291977  0.027617  3.516479  0.011  -0.312771  0.024001  3.529212  0.008  -0.334497  -0.27714  0.031197  3.507744  0.014
N  N64  1  0.34659506  0.73555724  0.19967688  1  -0.366895  0.024231  3.240706  0.011  -0.296591  0.027657  3.51871  0.01  -0.31738  0.024101  3.531356  0.008  -0.336671  -0.281726  0.03115  3.509969  0.013
N  N65  1  0.39184535  0.73250699  0.69936439  1  -0.362424  0.024238  3.239825  0.011  -0.291942  0.027617  3.516796  0.011  -0.312742  0.024  3.529534  0.008  -0.334492  -0.277105  0.031196  3.508054  0.014
O  O66  1  0.50864645  0.93912830  0.86010405  1  -0.656442  0.031797  2.0143  0.02  -0.5898  0.037836  2.285492  0.022  -0.62259  0.03332  2.271633  0.018  -0.32012  -0.56486  0.042401  2.293511  0.026
O  O67  1  0.43620227  0.94388212  0.36091611  1  -0.655322  0.031905  2.014567  0.02  -0.58872  0.037822  2.285952  0.022  -0.621534  0.033329  2.272244  0.018  -0.319727  -0.56379  0.042357  2.293969  0.026
O  O68  1  0.49133835  0.06088603  0.13990352  1  -0.656305  0.031797  2.014427  0.02  -0.589673  0.037833  2.28553  0.022  -0.622448  0.033319  2.271665  0.018  -0.320052  -0.564765  0.042398  2.293633  0.026
O  O69  1  0.56383034  0.05611607  0.63908812  1  -0.655297  0.031899  2.014526  0.02  -0.588719  0.037828  2.285958  0.022  -0.621537  0.033331  2.272257  0.018  -0.31976  -0.563792  0.042361  2.293977  0.026
O  O70  1  0.91668533  0.97307749  0.87730810  1  -0.639619  0.002737  2.033591  0.003  -0.583053  0.005801  2.266754  0.006  -0.608689  0.004342  2.256804  0.004  -0.311774  -0.564879  0.007335  2.272819  0.007
O  O71  1  0.05126158  0.96172758  0.37299107  1  -0.638572  0.002869  2.028822  0.003  -0.582578  0.006172  2.262913  0.006  -0.608149  0.004664  2.252839  0.005  -0.311284  -0.564451  0.007749  2.269095  0.007
O  O72  1  0.08329680  0.02689686  0.12268256  1  -0.639466  0.002729  2.033882  0.003  -0.582903  0.005799  2.266992  0.006  -0.608545  0.00434  2.257046  0.004  -0.311588  -0.564715  0.007333  2.27305  0.007
O  O73  1  0.94875216  0.03825050  0.62699984  1  -0.63862  0.002868  2.028823  0.003  -0.582596  0.006169  2.262866  0.006  -0.608167  0.004661  2.252802  0.005  -0.311342  -0.564467  0.007745  2.269047  0.007
O  O74  1  0.12098240  0.99056208  0.74968839  1  -0.881597  0.047559  1.903517  0.033  -0.806843  0.058318  2.140167  0.038  -0.836408  0.050621  2.099629  0.032  -0.584921  -0.783701  0.06573  2.167998  0.045
O  O75  1  0.87902377  0.00945996  0.25031342  1  -0.881588  0.047553  1.903515  0.033  -0.806895  0.058311  2.140192  0.038  -0.83644  0.050614  2.099629  0.032  -0.584947  -0.78375  0.065724  2.168024  0.045
