# generated using pymatgen
data_ZnH20C22(NO2)2
_symmetry_space_group_name_H-M   'P 1'
_cell_length_a   6.00500090
_cell_length_b   18.01662876
_cell_length_c   20.33812262
_cell_angle_alpha   90.00121175
_cell_angle_beta   96.92765022
_cell_angle_gamma   90.00049501
_symmetry_Int_Tables_number   1
_chemical_formula_structural   ZnH20C22(NO2)2
_chemical_formula_sum   'Zn4 H80 C88 N8 O16'
_cell_volume   2184.31446569
_cell_formula_units_Z   4
loop_
 _symmetry_equiv_pos_site_id
 _symmetry_equiv_pos_as_xyz
  1  'x, y, z'
loop_
 _atom_site_type_symbol
 _atom_site_label
 _atom_site_symmetry_multiplicity
 _atom_site_fract_x
 _atom_site_fract_y
 _atom_site_fract_z
 _atom_site_occupancy
 _atom_site_pbe_bader_charge
 _atom_site_pbe_bader_spin_density
 _atom_site_pbe_cm5_charge
 _atom_site_pbe_ddec_charge
 _atom_site_pbe_ddec_spin_density
 _atom_site_pbe_ddec_sum_bond_order
 _atom_site_pbe_magmom
Zn  Zn0  1  0.78639516  0.47801777  0.22679347  1  1.247192  0  0.699932  0.769094  0  2.389595  0
Zn  Zn1  1  0.71361436  0.97801565  0.27321073  1  1.247202  0  0.699941  0.768988  0  2.389713  0
Zn  Zn2  1  0.21359738  0.52197725  0.77320556  1  1.247046  0  0.699884  0.769059  0  2.389638  0
Zn  Zn3  1  0.28637965  0.02197271  0.72679672  1  1.247002  0  0.699892  0.769034  0  2.389694  0
H  H4  1  0.01795439  0.19261252  0.39338638  1  0.046064  0  0.094887  0.093517  0  1.034889  0
H  H5  1  0.48206426  0.69259662  0.10661268  1  0.041229  0  0.094928  0.093509  0  1.034796  0
H  H6  1  0.98210702  0.80739138  0.60661181  1  0.041196  0  0.094887  0.093546  0  1.03464  0
H  H7  1  0.51795513  0.30738231  0.89338737  1  0.046073  0  0.094913  0.093561  0  1.034855  0
H  H8  1  0.80029481  0.23095987  0.48442280  1  0.072569  0  0.099121  0.100014  0  1.001819  0
H  H9  1  0.69974747  0.73093061  0.01557851  1  0.072905  0  0.099148  0.099999  0  1.001834  0
H  H10  1  0.19983844  0.76904958  0.51558942  1  0.072854  0  0.09922  0.10009  0  1.001775  0
H  H11  1  0.30027524  0.26904221  0.98442265  1  0.072714  0  0.099162  0.100054  0  1.001792  0
H  H12  1  0.41846235  0.28693096  0.45638231  1  0.039075  0  0.098288  0.097084  0  1.004183  0
H  H13  1  0.08159026  0.78689894  0.04360942  1  0.038928  0  0.098324  0.097133  0  1.00424  0
H  H14  1  0.58165401  0.71307961  0.54363369  1  0.038595  0  0.098258  0.097096  0  1.003986  0
H  H15  1  0.91842764  0.21307388  0.95638320  1  0.038921  0  0.098269  0.097017  0  1.004126  0
H  H16  1  0.26672009  0.30577413  0.33873761  1  0.090089  0  0.09513  0.096483  0  1.031833  0
H  H17  1  0.23331141  0.80575983  0.16125406  1  0.090205  0  0.095089  0.096578  0  1.031841  0
H  H18  1  0.73330384  0.69422145  0.66128129  1  0.089456  0  0.095135  0.09649  0  1.032071  0
H  H19  1  0.76671998  0.19422077  0.83873661  1  0.089907  0  0.095143  0.096534  0  1.031995  0
H  H20  1  0.27804109  0.28543039  0.22566429  1  0.01941  0  0.101022  0.119325  0  0.998736  0
H  H21  1  0.22198440  0.78544501  0.27433479  1  0.019118  0  0.101006  0.119254  0  0.99882  0
H  H22  1  0.72197095  0.71456463  0.77435956  1  0.019488  0  0.101007  0.119296  0  0.998694  0
H  H23  1  0.77801829  0.21455890  0.72566118  1  0.019195  0  0.100967  0.119254  0  0.998637  0
H  H24  1  0.47898040  0.22538890  0.19601825  1  0.086978  0  0.10251  0.134381  0  0.985029  0
H  H25  1  0.02105807  0.72539800  0.30397621  1  0.086512  0  0.102571  0.13433  0  0.985111  0
H  H26  1  0.52098485  0.77459392  0.80399696  1  0.086906  0  0.102454  0.134314  0  0.985087  0
H  H27  1  0.97898159  0.27460035  0.69601919  1  0.086502  0  0.102552  0.134378  0  0.985036  0
H  H28  1  0.88400766  0.23817468  0.21841486  1  0.080524  0  0.09955  0.125141  0  1.005042  0
H  H29  1  0.61602149  0.73817855  0.28158536  1  0.080631  0  0.099546  0.125139  0  1.005001  0
H  H30  1  0.11600159  0.76181202  0.78158776  1  0.080419  0  0.09957  0.12516  0  1.00497  0
H  H31  1  0.38399792  0.26181647  0.71841370  1  0.080422  0  0.099578  0.125182  0  1.004964  0
H  H32  1  0.08115250  0.19908520  0.28180265  1  0.049302  0  0.099262  0.118915  0  1.008276  0
H  H33  1  0.41887478  0.69908197  0.21819665  1  0.049587  0  0.099252  0.118964  0  1.008202  0
H  H34  1  0.91888369  0.80090816  0.71819705  1  0.049312  0  0.099271  0.11889  0  1.008227  0
H  H35  1  0.58114130  0.30091083  0.78180130  1  0.049456  0  0.099251  0.118932  0  1.008189  0
H  H36  1  0.26050249  0.52387750  0.26564240  1  0.090794  0  0.11772  0.085662  0  1.009968  0
H  H37  1  0.23956030  0.02389615  0.23435218  1  0.09098  0  0.117765  0.085711  0  1.010122  0
H  H38  1  0.73955589  0.47611142  0.73434338  1  0.09062  0  0.117853  0.085918  0  1.010102  0
H  H39  1  0.76044375  0.97610886  0.76565662  1  0.090715  0  0.117835  0.085844  0  1.010154  0
H  H40  1  0.53424395  0.52483555  0.36606866  1  0.155463  0  0.108706  0.12803  0  1.031911  0
H  H41  1  0.96579559  0.02484796  0.13393328  1  0.155502  0  0.108631  0.127985  0  1.031725  0
H  H42  1  0.46578755  0.47515226  0.63391758  1  0.155548  0  0.108736  0.127969  0  1.031571  0
H  H43  1  0.03418630  0.97514429  0.86608796  1  0.155278  0  0.108733  0.128005  0  1.031616  0
H  H44  1  0.06238353  0.39365183  0.46255985  1  0.089008  0  0.109556  0.117194  0  0.99669  0
H  H45  1  0.43762087  0.89365030  0.03743849  1  0.088903  0  0.109563  0.117228  0  0.996678  0
H  H46  1  0.93766624  0.60635596  0.53743397  1  0.088396  0  0.109578  0.117288  0  0.99642  0
H  H47  1  0.56234963  0.10636193  0.96256855  1  0.089034  0  0.109605  0.117302  0  0.996379  0
H  H48  1  0.80310825  0.39910929  0.35622155  1  0.12409  0  0.117259  0.089128  0  1.017473  0
H  H49  1  0.69689173  0.89910604  0.14377693  1  0.12418  0  0.117273  0.089131  0  1.01753  0
H  H50  1  0.19693466  0.60090183  0.64377791  1  0.123927  0  0.117214  0.089096  0  1.017513  0
H  H51  1  0.30308735  0.10090952  0.85622307  1  0.123944  0  0.117229  0.089092  0  1.017617  0
H  H52  1  0.42204625  0.42401538  0.52378435  1  0.050365  0  0.102054  0.107287  0  0.976557  0
H  H53  1  0.07792905  0.92401176  0.97622045  1  0.050444  0  0.102087  0.107287  0  0.976578  0
H  H54  1  0.57799352  0.57599297  0.47620663  1  0.049901  0  0.101992  0.10721  0  0.976584  0
H  H55  1  0.92198907  0.07598548  0.02379936  1  0.050035  0  0.102008  0.107236  0  0.976478  0
H  H56  1  0.64539826  0.43817475  0.47562251  1  0.052693  0  0.098373  0.101109  0  0.986899  0
H  H57  1  0.85461130  0.93817007  0.02438712  1  0.052637  0  0.098369  0.101099  0  0.986823  0
H  H58  1  0.35465993  0.56182638  0.52437015  1  0.052774  0  0.098307  0.101098  0  0.986837  0
H  H59  1  0.14531174  0.06182384  0.97563731  1  0.052691  0  0.098252  0.100969  0  0.986925  0
H  H60  1  0.97077393  0.60100190  0.15390845  1  0.12336  0  0.115594  0.083363  0  1.035107  0
H  H61  1  0.52923204  0.10101366  0.34607401  1  0.123016  0  0.115625  0.083338  0  1.034949  0
H  H62  1  0.02921215  0.39898480  0.84608099  1  0.123279  0  0.11565  0.083353  0  1.035045  0
H  H63  1  0.47078482  0.89899136  0.65389398  1  0.123401  0  0.115644  0.083329  0  1.035247  0
H  H64  1  0.19281515  0.61695093  0.05895888  1  0.050951  0  0.109034  0.116584  0  1.006764  0
H  H65  1  0.30714947  0.11699018  0.44100668  1  0.050881  0  0.108942  0.116357  0  1.006868  0
H  H66  1  0.80715597  0.38303132  0.94102459  1  0.050931  0  0.10894  0.116408  0  1.006848  0
H  H67  1  0.69283588  0.88306368  0.55894635  1  0.051078  0  0.109055  0.116619  0  1.006809  0
H  H68  1  0.26607244  0.37867208  0.05480053  1  0.107561  0  0.111975  0.1225  0  0.997011  0
H  H69  1  0.23383227  0.87871436  0.44520013  1  0.104269  0  0.112097  0.122568  0  0.997143  0
H  H70  1  0.73383805  0.62130352  0.94518998  1  0.104036  0  0.112053  0.122555  0  0.997164  0
H  H71  1  0.76603213  0.12134450  0.55481912  1  0.107397  0  0.112103  0.122555  0  0.996974  0
H  H72  1  0.03047842  0.37205217  0.14757370  1  0.115701  0  0.120817  0.097385  0  0.998003  0
H  H73  1  0.46948928  0.87207429  0.35244860  1  0.116348  0  0.120935  0.097433  0  0.998075  0
H  H74  1  0.96943857  0.62793064  0.85242492  1  0.11621  0  0.120857  0.097406  0  0.997994  0
H  H75  1  0.53047517  0.12794238  0.64759755  1  0.116183  0  0.120819  0.097313  0  0.998013  0
H  H76  1  0.31861884  0.45989271  0.95385878  1  0.047876  0  0.097576  0.102589  0  0.998115  0
H  H77  1  0.18127420  0.95997529  0.54613260  1  0.049796  0  0.097552  0.102758  0  0.998268  0
H  H78  1  0.68129674  0.54008123  0.04612947  1  0.048856  0  0.09767  0.102761  0  0.998224  0
H  H79  1  0.81858415  0.04013740  0.45386135  1  0.047705  0  0.097583  0.102665  0  0.998229  0
H  H80  1  0.33957826  0.55742571  0.96362165  1  0.06022  0  0.099977  0.109813  0  0.985864  0
H  H81  1  0.16031855  0.05749758  0.53635254  1  0.060927  0  0.099891  0.109814  0  0.985923  0
H  H82  1  0.66034734  0.44254767  0.03636894  1  0.060344  0  0.099917  0.109736  0  0.985879  0
H  H83  1  0.83956734  0.94260901  0.46361541  1  0.060156  0  0.099723  0.109408  0  0.98594  0
C  C84  1  0.55227935  0.25876198  0.29926409  1  -0.091357  0  -0.011803  0.083117  0  3.931123  0
C  C85  1  0.94774722  0.75876432  0.20073576  1  -0.091986  0  -0.011918  0.082805  0  3.931465  0
C  C86  1  0.44774802  0.74122583  0.70075149  1  -0.092018  0  -0.01179  0.083205  0  3.931555  0
C  C87  1  0.05227222  0.24122848  0.79926232  1  -0.091585  0  -0.011833  0.082924  0  3.931313  0
C  C88  1  0.76730015  0.22707243  0.31509196  1  0.091855  0  -0.011774  0.081316  0  3.927953  0
C  C89  1  0.73273049  0.72706909  0.18489912  1  0.091649  0  -0.011753  0.081482  0  3.927829  0
C  C90  1  0.23273937  0.77291981  0.68490836  1  0.09108  0  -0.011906  0.081126  0  3.928438  0
C  C91  1  0.26729739  0.27291650  0.81509682  1  0.090938  0  -0.011758  0.08142  0  3.928084  0
C  C92  1  0.85214489  0.21741522  0.38184391  1  -0.118467  0  -0.09916  -0.144357  0  4.015084  0
C  C93  1  0.64788538  0.71740472  0.11814777  1  -0.113365  0  -0.099242  -0.144387  0  4.015422  0
C  C94  1  0.14790637  0.78258480  0.61815734  1  -0.11295  0  -0.099137  -0.144392  0  4.015184  0
C  C95  1  0.35213580  0.28258753  0.88184791  1  -0.117916  0  -0.099148  -0.144384  0  4.015193  0
C  C96  1  0.72948387  0.23855727  0.43286120  1  -0.095544  0  -0.104339  -0.106427  0  4.065681  0
C  C97  1  0.77056043  0.73853250  0.06713811  1  -0.096212  0  -0.104305  -0.106243  0  4.06607  0
C  C98  1  0.27060566  0.76144664  0.56715330  1  -0.095175  0  -0.104275  -0.106268  0  4.065999  0
C  C99  1  0.22947241  0.26144365  0.93286097  1  -0.095762  0  -0.104397  -0.106465  0  4.065764  0
C  C100  1  0.51688449  0.26998928  0.41722187  1  -0.061877  0  -0.104787  -0.103559  0  4.065887  0
C  C101  1  0.98318122  0.76995631  0.08277440  1  -0.06087  0  -0.104758  -0.103592  0  4.065909  0
C  C102  1  0.48321998  0.73002350  0.58279910  1  -0.064244  0  -0.104773  -0.103455  0  4.065492  0
C  C103  1  0.01686514  0.23001318  0.91722175  1  -0.061742  0  -0.104697  -0.103345  0  4.065651  0
C  C104  1  0.43100552  0.28004559  0.35091607  1  -0.048015  0  -0.09913  -0.146716  0  4.009081  0
C  C105  1  0.06903319  0.78002812  0.14908358  1  -0.048476  0  -0.099166  -0.146925  0  4.009388  0
C  C106  1  0.56905023  0.71995387  0.64910600  1  -0.044455  0  -0.099198  -0.147003  0  4.009516  0
C  C107  1  0.93099295  0.21995247  0.85091475  1  -0.047356  0  -0.099225  -0.146898  0  4.009524  0
C  C108  1  0.45831525  0.27316412  0.22814233  1  -0.040027  0  -0.164159  -0.3444  0  3.924382  0
C  C109  1  0.04171823  0.77317007  0.27185476  1  -0.038493  0  -0.164089  -0.344012  0  3.924338  0
C  C110  1  0.54169041  0.72682702  0.77186900  1  -0.039697  0  -0.164077  -0.344193  0  3.924234  0
C  C111  1  0.95830463  0.22682385  0.72814050  1  -0.039198  0  -0.164067  -0.344105  0  3.924095  0
C  C112  1  0.56980924  0.34103113  0.20017607  1  1.579154  0  0.198798  0.625935  0  4.187355  0
C  C113  1  0.93019698  0.84103927  0.29982144  1  1.57869  0  0.198731  0.625837  0  4.187293  0
C  C114  1  0.43020830  0.65894613  0.79983030  1  1.579646  0  0.198887  0.625923  0  4.186702  0
C  C115  1  0.06978563  0.15895575  0.70017230  1  1.579162  0  0.198672  0.625701  0  4.186966  0
C  C116  1  0.90310531  0.20131846  0.26156845  1  -0.053012  0  -0.166712  -0.345055  0  3.922765  0
C  C117  1  0.59693097  0.70131843  0.23842662  1  -0.053233  0  -0.166696  -0.345201  0  3.922689  0
C  C118  1  0.09693754  0.79867657  0.73843298  1  -0.052704  0  -0.166727  -0.345078  0  3.922945  0
C  C119  1  0.40308340  0.29867271  0.76157225  1  -0.052742  0  -0.166755  -0.345216  0  3.922639  0
C  C120  1  0.83454125  0.12261705  0.23829551  1  1.587609  0  0.199875  0.629332  0  4.166176  0
C  C121  1  0.66548353  0.62262635  0.26170508  1  1.587441  0  0.199882  0.629504  0  4.165934  0
C  C122  1  0.16547796  0.87736965  0.76171092  1  1.587025  0  0.199877  0.629515  0  4.165955  0
C  C123  1  0.33452406  0.37737367  0.73829648  1  1.58722  0  0.199943  0.629568  0  4.165791  0
C  C124  1  0.22104966  0.49644816  0.31056677  1  0.514533  0  0.054611  0.120737  0  3.927749  0
C  C125  1  0.27897877  0.99645181  0.18943112  1  0.514586  0  0.054508  0.120533  0  3.928205  0
C  C126  1  0.77897678  0.50355131  0.68942026  1  0.515119  0  0.054479  0.120407  0  3.928394  0
C  C127  1  0.72100162  0.00354321  0.81058318  1  0.515423  0  0.054505  0.120467  0  3.92827  0
C  C128  1  0.37452263  0.49609594  0.36721783  1  -0.045576  0  -0.079477  -0.173645  0  3.896197  0
C  C129  1  0.12552261  0.99610801  0.13277874  1  -0.045675  0  -0.079325  -0.173495  0  3.896313  0
C  C130  1  0.62553410  0.50389409  0.63276642  1  -0.044619  0  -0.079511  -0.173238  0  3.895841  0
C  C131  1  0.87445106  0.00388535  0.86723580  1  -0.044122  0  -0.079534  -0.173398  0  3.895844  0
C  C132  1  0.32043826  0.45950821  0.42388684  1  -0.028061  0  0.016929  0.171132  0  3.943375  0
C  C133  1  0.17958872  0.95951113  0.07611346  1  -0.028164  0  0.016871  0.170957  0  3.943681  0
C  C134  1  0.67961835  0.54048904  0.57610232  1  -0.029144  0  0.016905  0.170685  0  3.944124  0
C  C135  1  0.82037487  0.04048556  0.92390119  1  -0.029282  0  0.016863  0.170688  0  3.944027  0
C  C136  1  0.11160972  0.42398413  0.42017923  1  -0.013596  0  -0.084724  -0.194055  0  3.951399  0
C  C137  1  0.38840748  0.92397973  0.07982312  1  -0.014086  0  -0.084736  -0.194103  0  3.95162  0
C  C138  1  0.88843498  0.57602310  0.57981587  1  -0.0137  0  -0.084772  -0.194071  0  3.951779  0
C  C139  1  0.61156791  0.07601585  0.92019001  1  -0.014556  0  -0.084676  -0.193921  0  3.951514  0
C  C140  1  0.96636233  0.42658694  0.36157169  1  0.429475  0  0.049052  0.099675  0  3.947151  0
C  C141  1  0.53366220  0.92659706  0.13842686  1  0.430358  0  0.048996  0.099648  0  3.947301  0
C  C142  1  0.03368753  0.57340531  0.63841869  1  0.430442  0  0.049128  0.099792  0  3.947516  0
C  C143  1  0.46632335  0.07341240  0.86158272  1  0.430437  0  0.048972  0.099641  0  3.947512  0
C  C144  1  0.48226038  0.46022907  0.48617857  1  -0.038439  0  -0.15073  -0.197681  0  3.934296  0
C  C145  1  0.01773630  0.96022616  0.01382548  1  -0.01574  0  -0.150722  -0.197507  0  3.934352  0
C  C146  1  0.51778947  0.53978427  0.51381230  1  -0.015638  0  -0.150566  -0.197304  0  3.934338  0
C  C147  1  0.98219024  0.03977275  0.98619317  1  -0.038452  0  -0.150538  -0.197257  0  3.934383  0
C  C148  1  0.04186532  0.55332806  0.13083037  1  0.425367  0  0.048901  0.098145  0  3.947106  0
C  C149  1  0.45815346  0.05333619  0.36915577  1  0.425547  0  0.048615  0.097825  0  3.947114  0
C  C150  1  0.95810395  0.44665919  0.86915991  1  0.425357  0  0.048718  0.097981  0  3.947174  0
C  C151  1  0.54189660  0.94666994  0.63082675  1  0.425034  0  0.048797  0.098071  0  3.947528  0
C  C152  1  0.16566485  0.56153717  0.07790294  1  0.062435  0  -0.080018  -0.179941  0  3.938639  0
C  C153  1  0.33433424  0.06156856  0.42207743  1  0.074497  0  -0.079777  -0.179459  0  3.937736  0
C  C154  1  0.83432777  0.43844898  0.92209314  1  0.073551  0  -0.080042  -0.179787  0  3.938744  0
C  C155  1  0.66565746  0.93847586  0.57788961  1  0.06116  0  -0.080053  -0.18018  0  3.93889  0
C  C156  1  0.24527573  0.49866488  0.04790163  1  -0.045485  0  0.019916  0.176672  0  3.940136  0
C  C157  1  0.25466899  0.99871262  0.45209012  1  -0.058484  0  0.02007  0.177037  0  3.939865  0
C  C158  1  0.75467325  0.50130961  0.95209378  1  -0.057017  0  0.020178  0.177113  0  3.94028  0
C  C159  1  0.74527331  0.00135567  0.54790406  1  -0.043335  0  0.019946  0.177007  0  3.940094  0
C  C160  1  0.20304937  0.42941304  0.07503280  1  -0.015705  0  -0.076466  -0.167247  0  3.916879  0
C  C161  1  0.29687224  0.92945353  0.42497275  1  -0.011827  0  -0.07676  -0.167624  0  3.917477  0
C  C162  1  0.79687774  0.57056367  0.92496424  1  -0.012413  0  -0.076678  -0.167643  0  3.917191  0
C  C163  1  0.70302749  0.07059811  0.57504391  1  -0.015147  0  -0.076504  -0.167211  0  3.917183  0
C  C164  1  0.07685986  0.42514528  0.12759881  1  0.471675  0  0.053597  0.107295  0  3.938559  0
C  C165  1  0.42311172  0.92516475  0.37241557  1  0.47257  0  0.053583  0.107445  0  3.938537  0
C  C166  1  0.92308738  0.57483809  0.87239900  1  0.472252  0  0.05373  0.107571  0  3.938371  0
C  C167  1  0.57683143  0.07485414  0.62761010  1  0.470795  0  0.053485  0.107097  0  3.938652  0
C  C168  1  0.37308830  0.50418462  0.98932267  1  0.005809  0  -0.154877  -0.199308  0  3.924578  0
C  C169  1  0.12683324  0.00425481  0.51065660  1  -0.021753  0  -0.154927  -0.199891  0  3.925377  0
C  C170  1  0.62685244  0.49578764  0.01066653  1  -0.020111  0  -0.155094  -0.199799  0  3.925217  0
C  C171  1  0.87306587  0.99584678  0.48931971  1  0.005319  0  -0.154645  -0.199123  0  3.924426  0
N  N172  1  0.01962776  0.46290007  0.30769761  1  -1.258656  0  -0.33548  -0.248495  0  3.600933  0
N  N173  1  0.48039945  0.96291022  0.19229872  1  -1.259199  0  -0.335407  -0.248328  0  3.60097  0
N  N174  1  0.98039698  0.53709718  0.69229035  1  -1.258814  0  -0.335426  -0.248617  0  3.601421  0
N  N175  1  0.51959784  0.03709757  0.80771131  1  -1.259056  0  -0.335345  -0.248503  0  3.601182  0
N  N176  1  0.99412635  0.48604480  0.15457094  1  -1.262801  0  -0.335628  -0.251388  0  3.60639  0
N  N177  1  0.50588357  0.98604823  0.34542972  1  -1.26316  0  -0.335586  -0.251345  0  3.606632  0
N  N178  1  0.00584445  0.51394412  0.84542481  1  -1.262781  0  -0.335602  -0.251416  0  3.606442  0
N  N179  1  0.49412732  0.01394291  0.65457394  1  -1.262804  0  -0.335528  -0.251135  0  3.606341  0
O  O180  1  0.57757131  0.39856480  0.23914383  1  -1.174945  0  -0.346835  -0.575494  0  2.352438  0
O  O181  1  0.92243216  0.89856709  0.26084888  1  -1.175126  0  -0.346885  -0.575467  0  2.352193  0
O  O182  1  0.42244312  0.60142079  0.76085307  1  -1.175429  0  -0.347037  -0.575607  0  2.352392  0
O  O183  1  0.07756904  0.10142627  0.73914015  1  -1.175117  0  -0.34688  -0.575464  0  2.352332  0
O  O184  1  0.64399979  0.33858168  0.14565698  1  -1.19465  0  -0.341973  -0.582969  0  2.099522  0
O  O185  1  0.85599628  0.83858770  0.35433968  1  -1.194508  0  -0.341869  -0.58291  0  2.099618  0
O  O186  1  0.35603950  0.66139226  0.85435218  1  -1.19508  0  -0.341878  -0.58292  0  2.099315  0
O  O187  1  0.14392778  0.16140843  0.64564544  1  -1.194751  0  -0.341832  -0.582778  0  2.099217  0
O  O188  1  0.86666614  0.07347121  0.28566499  1  -1.193106  0  -0.35265  -0.581866  0  2.31545  0
O  O189  1  0.63333319  0.57347355  0.21433921  1  -1.192851  0  -0.352757  -0.582043  0  2.315251  0
O  O190  1  0.13334802  0.92651993  0.71434223  1  -1.192481  0  -0.352735  -0.582026  0  2.315442  0
O  O191  1  0.36663064  0.42652036  0.78566610  1  -1.192777  0  -0.352743  -0.582071  0  2.315477  0
O  O192  1  0.75598138  0.10990854  0.18002106  1  -1.186958  0  -0.33926  -0.565267  0  2.084568  0
O  O193  1  0.74406645  0.60992112  0.31997909  1  -1.1871  0  -0.339183  -0.565272  0  2.084303  0
O  O194  1  0.24402437  0.89007650  0.81998683  1  -1.187028  0  -0.339201  -0.565286  0  2.084374  0
O  O195  1  0.25599499  0.39008612  0.68001812  1  -1.186806  0  -0.339241  -0.565315  0  2.084375  0
