# generated using pymatgen
data_FeH2C7N3ClO2
_symmetry_space_group_name_H-M   'P 1'
_cell_length_a   7.94090207
_cell_length_b   22.18419047
_cell_length_c   22.18424308
_cell_angle_alpha   118.60237435
_cell_angle_beta   96.85305375
_cell_angle_gamma   96.85310815
_symmetry_Int_Tables_number   1
_chemical_formula_structural   FeH2C7N3ClO2
_chemical_formula_sum   'Fe6 H12 C42 N18 Cl6 O12'
_cell_volume   3336.07302324
_cell_formula_units_Z   6
loop_
 _symmetry_equiv_pos_site_id
 _symmetry_equiv_pos_as_xyz
  1  'x, y, z'
loop_
 _atom_site_type_symbol
 _atom_site_label
 _atom_site_symmetry_multiplicity
 _atom_site_fract_x
 _atom_site_fract_y
 _atom_site_fract_z
 _atom_site_occupancy
 _atom_site_hle17_bader_spin_density
 _atom_site_hle17_ddec_charge
 _atom_site_hle17_ddec_spin_density
 _atom_site_hle17_ddec_sum_bond_order
 _atom_site_hle17_magmom
 _atom_site_hse06_10hf_bader_spin_density
 _atom_site_hse06_10hf_ddec_charge
 _atom_site_hse06_10hf_ddec_spin_density
 _atom_site_hse06_10hf_ddec_sum_bond_order
 _atom_site_hse06_10hf_magmom
 _atom_site_hse06_bader_spin_density
 _atom_site_hse06_ddec_charge
 _atom_site_hse06_ddec_spin_density
 _atom_site_hse06_ddec_sum_bond_order
 _atom_site_hse06_magmom
 _atom_site_pbe_bader_spin_density
 _atom_site_pbe_cm5_charge
 _atom_site_pbe_ddec_charge
 _atom_site_pbe_ddec_spin_density
 _atom_site_pbe_ddec_sum_bond_order
 _atom_site_pbe_magmom
Fe  Fe0  1  0.19886730  0.39773466  0.69887089  1  0  0.224127  0  3.769214  0  0  0.243371  0  4.236259  0  0  0.273344  0  4.187867  0  0  0.624602  0.23164  0  4.261765  0
Fe  Fe1  1  0.80113326  0.30113012  0.60226672  1  0  0.224333  0  3.769047  0  0  0.243367  0  4.236136  0  0  0.273373  0  4.187733  0  0  0.624636  0.231674  0  4.261629  0
Fe  Fe2  1  0.50000078  0.30114609  0.69885424  1  0  0.225367  0  3.76899  0  0  0.244274  0  4.235703  0  0  0.274323  0  4.187031  0  0  0.624657  0.23254  0  4.261345  0
Fe  Fe3  1  0.80113360  0.60226633  0.30112986  1  0  0.22417  0  3.769008  0  0  0.243305  0  4.236061  0  0  0.273294  0  4.187661  0  0  0.624565  0.231558  0  4.261712  0
Fe  Fe4  1  0.19886712  0.69886983  0.39773305  1  0  0.224206  0  3.76914  0  0  0.243441  0  4.236173  0  0  0.273422  0  4.187781  0  0  0.624651  0.231716  0  4.261636  0
Fe  Fe5  1  0.49999960  0.69885386  0.30114643  1  0  0.225423  0  3.768873  0  0  0.244286  0  4.235606  0  0  0.274322  0  4.186946  0  0  0.624607  0.232537  0  4.261271  0
H  H6  1  0.24121155  0.48634043  0.60806914  1  0  0.143037  0  0.931967  0  0  0.154402  0  0.987368  0  0  0.157327  0  0.986065  0  0  0.116169  0.152158  0  0.988614  0
H  H7  1  0.75878672  0.39193041  0.51365925  1  0  0.143019  0  0.93196  0  0  0.154388  0  0.987359  0  0  0.157313  0  0.986056  0  0  0.116176  0.152142  0  0.988605  0
H  H8  1  0.63319963  0.39191619  0.87828776  1  0  0.143372  0  0.932179  0  0  0.154533  0  0.987636  0  0  0.157465  0  0.986337  0  0  0.116087  0.15226  0  0.988937  0
H  H9  1  0.75485387  0.12172675  0.51361680  1  0  0.143454  0  0.931874  0  0  0.15459  0  0.987449  0  0  0.157527  0  0.986166  0  0  0.11597  0.152348  0  0.988689  0
H  H10  1  0.24514419  0.48638392  0.87827410  1  0  0.143479  0  0.931846  0  0  0.154608  0  0.987425  0  0  0.157547  0  0.986141  0  0  0.115965  0.152367  0  0.988664  0
H  H11  1  0.36680064  0.12171200  0.60808327  1  0  0.143371  0  0.932177  0  0  0.154532  0  0.987637  0  0  0.157464  0  0.986338  0  0  0.116074  0.15226  0  0.988938  0
H  H12  1  0.75878576  0.51365847  0.39193136  1  0  0.142999  0  0.931978  0  0  0.154397  0  0.987337  0  0  0.157321  0  0.986034  0  0  0.116162  0.152151  0  0.988583  0
H  H13  1  0.24121059  0.60806849  0.48634080  1  0  0.143016  0  0.931983  0  0  0.154388  0  0.98738  0  0  0.157313  0  0.986077  0  0  0.116167  0.152143  0  0.988627  0
H  H14  1  0.36680048  0.60808324  0.12171221  1  0  0.14336  0  0.932194  0  0  0.15452  0  0.987653  0  0  0.157452  0  0.986354  0  0  0.116085  0.152247  0  0.988957  0
H  H15  1  0.24514677  0.87827372  0.48638324  1  0  0.143456  0  0.931888  0  0  0.154603  0  0.987448  0  0  0.157541  0  0.986165  0  0  0.115994  0.152362  0  0.988688  0
H  H16  1  0.75485418  0.51361708  0.12172564  1  0  0.143445  0  0.931878  0  0  0.154594  0  0.987433  0  0  0.157532  0  0.986149  0  0  0.115977  0.152355  0  0.988673  0
H  H17  1  0.63320227  0.87828795  0.39191617  1  0  0.143393  0  0.932199  0  0  0.154553  0  0.987657  0  0  0.157485  0  0.986359  0  0  0.116086  0.152285  0  0.98895  0
C  C18  1  0.42729994  0.42002368  0.60633235  1  0  0.141991  0  3.801754  0  0  0.131845  0  4.068557  0  0  0.134258  0  4.091232  0  0  0.099057  0.130458  0  4.05318  0
C  C19  1  0.57269859  0.39366761  0.57997629  1  0  0.141937  0  3.801757  0  0  0.131802  0  4.068584  0  0  0.134219  0  4.091256  0  0  0.099041  0.13041  0  4.053205  0
C  C20  1  0.82102140  0.39364607  0.81370484  1  0  0.14327  0  3.804565  0  0  0.130997  0  4.070529  0  0  0.133607  0  4.093186  0  0  0.098787  0.129672  0  4.055091  0
C  C21  1  0.00726516  0.18629027  0.57995004  1  0  0.136273  0  3.813812  0  0  0.132703  0  4.071248  0  0  0.134388  0  4.094785  0  0  0.099011  0.131365  0  4.055823  0
C  C22  1  0.99273438  0.42005006  0.81371053  1  0  0.136241  0  3.813792  0  0  0.132672  0  4.071255  0  0  0.134354  0  4.094788  0  0  0.098993  0.131333  0  4.055829  0
C  C23  1  0.17897919  0.18629584  0.60635357  1  0  0.143217  0  3.804644  0  0  0.130948  0  4.070601  0  0  0.133553  0  4.093276  0  0  0.098783  0.129617  0  4.055173  0
C  C24  1  0.57269890  0.57997574  0.39366801  1  0  0.141957  0  3.801795  0  0  0.131803  0  4.068621  0  0  0.134214  0  4.091291  0  0  0.099025  0.130414  0  4.053245  0
C  C25  1  0.42730051  0.60633235  0.42002433  1  0  0.141885  0  3.801679  0  0  0.131741  0  4.068534  0  0  0.134172  0  4.091185  0  0  0.098995  0.130343  0  4.053155  0
C  C26  1  0.17897898  0.60635388  0.18629538  1  0  0.143261  0  3.804578  0  0  0.130979  0  4.070533  0  0  0.133591  0  4.093188  0  0  0.098784  0.129653  0  4.055097  0
C  C27  1  0.99273548  0.81371021  0.42005000  1  0  0.136221  0  3.813818  0  0  0.132689  0  4.071251  0  0  0.134368  0  4.094783  0  0  0.099008  0.131349  0  4.055828  0
C  C28  1  0.00726499  0.57995042  0.18628946  1  0  0.136202  0  3.813913  0  0  0.132685  0  4.071313  0  0  0.134366  0  4.094847  0  0  0.099001  0.131347  0  4.055892  0
C  C29  1  0.82102272  0.81370463  0.39364607  1  0  0.143247  0  3.804644  0  0  0.130961  0  4.070612  0  0  0.13358  0  4.09326  0  0  0.098801  0.129635  0  4.055176  0
C  C30  1  0.35274086  0.46529184  0.58879541  1  0  -0.218631  0  3.718873  0  0  -0.25381  0  3.985812  0  0  -0.257397  0  4.003382  0  0  -0.097378  -0.25172  0  3.974499  0
C  C31  1  0.64725652  0.41120394  0.53470750  1  0  -0.218509  0  3.718802  0  0  -0.2537  0  3.985737  0  0  -0.257287  0  4.003306  0  0  -0.097344  -0.251612  0  3.974427  0
C  C32  1  0.76401445  0.41115903  0.87650624  1  0  -0.218601  0  3.718424  0  0  -0.25292  0  3.986229  0  0  -0.25654  0  4.003775  0  0  -0.096996  -0.250818  0  3.974909  0
C  C33  1  0.88741299  0.12348613  0.53465625  1  0  -0.21745  0  3.721014  0  0  -0.253843  0  3.98627  0  0  -0.257264  0  4.004073  0  0  -0.096721  -0.251755  0  3.974939  0
C  C34  1  0.11258702  0.46534367  0.87651460  1  0  -0.21755  0  3.720989  0  0  -0.253923  0  3.98625  0  0  -0.257345  0  4.004052  0  0  -0.096755  -0.251832  0  3.974918  0
C  C35  1  0.23598567  0.12349415  0.58884017  1  0  -0.218599  0  3.718456  0  0  -0.252931  0  3.986262  0  0  -0.256548  0  4.003808  0  0  -0.09695  -0.250829  0  3.974945  0
C  C36  1  0.64725646  0.53470706  0.41120464  1  0  -0.21859  0  3.718902  0  0  -0.253811  0  3.985811  0  0  -0.257397  0  4.00338  0  0  -0.097357  -0.251723  0  3.974505  0
C  C37  1  0.35274106  0.58879549  0.46529280  1  0  -0.2185  0  3.718703  0  0  -0.253705  0  3.985656  0  0  -0.257296  0  4.003219  0  0  -0.097296  -0.251613  0  3.974347  0
C  C38  1  0.23598593  0.58884092  0.12349354  1  0  -0.218575  0  3.718391  0  0  -0.252896  0  3.986203  0  0  -0.256516  0  4.003748  0  0  -0.096992  -0.250795  0  3.974884  0
C  C39  1  0.11258765  0.87651435  0.46534333  1  0  -0.217468  0  3.720981  0  0  -0.253869  0  3.986238  0  0  -0.257291  0  4.004042  0  0  -0.096757  -0.251779  0  3.974911  0
C  C40  1  0.88741262  0.53465732  0.12348564  1  0  -0.217453  0  3.721064  0  0  -0.253859  0  3.986313  0  0  -0.257278  0  4.004115  0  0  -0.096731  -0.251771  0  3.97499  0
C  C41  1  0.76401651  0.87650685  0.41115883  1  0  -0.218641  0  3.718508  0  0  -0.252967  0  3.98632  0  0  -0.25659  0  4.003861  0  0  -0.096993  -0.250871  0  3.974998  0
C  C42  1  0.42719362  0.48235009  0.54437427  1  0  0.17873  0  3.797798  0  0  0.161106  0  4.070666  0  0  0.16817  0  4.088445  0  0  0.080337  0.155991  0  4.058944  0
C  C43  1  0.57280428  0.45562543  0.51764993  1  0  0.178646  0  3.797839  0  0  0.161063  0  4.070705  0  0  0.168125  0  4.088484  0  0  0.080258  0.155946  0  4.058984  0
C  C44  1  0.88290874  0.45560386  0.93797793  1  0  0.179514  0  3.79525  0  0  0.160071  0  4.070862  0  0  0.1671  0  4.088633  0  0  0.079818  0.154998  0  4.059129  0
C  C45  1  0.94479828  0.06200666  0.51761786  1  0  0.180547  0  3.795238  0  0  0.161721  0  4.070724  0  0  0.168776  0  4.088449  0  0  0.079544  0.156634  0  4.059002  0
C  C46  1  0.05520229  0.48238158  0.93799371  1  0  0.180647  0  3.79522  0  0  0.161798  0  4.070734  0  0  0.16885  0  4.088462  0  0  0.07956  0.156703  0  4.059025  0
C  C47  1  0.11709078  0.06202215  0.54439552  1  0  0.179579  0  3.795167  0  0  0.160136  0  4.070755  0  0  0.167164  0  4.088526  0  0  0.079817  0.155061  0  4.059019  0
C  C48  1  0.57280496  0.51764881  0.45562583  1  0  0.178746  0  3.797829  0  0  0.161198  0  4.07063  0  0  0.168261  0  4.08841  0  0  0.080385  0.156081  0  4.058912  0
C  C49  1  0.42719356  0.54437452  0.48235109  1  0  0.178762  0  3.797726  0  0  0.161157  0  4.070566  0  0  0.168219  0  4.088345  0  0  0.080311  0.156037  0  4.058851  0
C  C50  1  0.11709011  0.54439557  0.06202198  1  0  0.179541  0  3.795173  0  0  0.160086  0  4.070787  0  0  0.167115  0  4.088557  0  0  0.079831  0.155012  0  4.059051  0
C  C51  1  0.05520236  0.93799381  0.48238217  1  0  0.180553  0  3.795258  0  0  0.161703  0  4.070795  0  0  0.168754  0  4.088522  0  0  0.079515  0.156608  0  4.059085  0
C  C52  1  0.94479835  0.51761890  0.06200678  1  0  0.180577  0  3.795229  0  0  0.161735  0  4.070767  0  0  0.168787  0  4.088495  0  0  0.079529  0.156643  0  4.059053  0
C  C53  1  0.88291113  0.93797832  0.45560412  1  0  0.179603  0  3.795142  0  0  0.160164  0  4.070737  0  0  0.167197  0  4.088503  0  0  0.079856  0.15509  0  4.059006  0
C  C54  1  0.24481818  0.48964916  0.74485365  1  0  0.229905  0  3.308841  0  0  0.160911  0  3.671129  0  0  0.21158  0  3.631029  0  0  0.031035  0.127032  0  3.694903  0
C  C55  1  0.75518169  0.25514340  0.51034968  1  0  0.229745  0  3.309053  0  0  0.160794  0  3.671321  0  0  0.211449  0  3.631221  0  0  0.031015  0.126904  0  3.695117  0
C  C56  1  0.49999986  0.25519997  0.74479907  1  0  0.228147  0  3.310732  0  0  0.159187  0  3.673034  0  0  0.209815  0  3.633004  0  0  0.030359  0.125302  0  3.696844  0
C  C57  1  0.75518038  0.51034712  0.25514159  1  0  0.2298  0  3.309142  0  0  0.160824  0  3.671418  0  0  0.211477  0  3.631316  0  0  0.031068  0.12692  0  3.695317  0
C  C58  1  0.24481586  0.74485341  0.48964667  1  0  0.229764  0  3.308852  0  0  0.160759  0  3.671162  0  0  0.211424  0  3.631066  0  0  0.030964  0.126887  0  3.694902  0
C  C59  1  0.49999979  0.74480103  0.25519938  1  0  0.228086  0  3.310841  0  0  0.159139  0  3.673115  0  0  0.209763  0  3.633081  0  0  0.0304  0.125257  0  3.696945  0
N  N60  1  0.38618374  0.39279351  0.64767643  1  0  -0.169784  0  3.275814  0  0  -0.147042  0  3.569443  0  0  -0.163555  0  3.586525  0  0  -0.244998  -0.137899  0  3.55848  0
N  N61  1  0.61381665  0.35232460  0.60720758  1  0  -0.169803  0  3.275826  0  0  -0.147105  0  3.569509  0  0  -0.163622  0  3.58659  0  0  -0.245006  -0.137945  0  3.558534  0
N  N62  1  0.73853773  0.35231820  0.74512132  1  0  -0.17006  0  3.274702  0  0  -0.146945  0  3.56823  0  0  -0.163255  0  3.585001  0  0  -0.244623  -0.137873  0  3.557419  0
N  N63  1  0.99338800  0.25487377  0.60718954  1  0  -0.170125  0  3.279148  0  0  -0.149634  0  3.571803  0  0  -0.165784  0  3.588833  0  0  -0.245808  -0.140549  0  3.560975  0
N  N64  1  0.00661234  0.39281198  0.74512734  1  0  -0.170064  0  3.279087  0  0  -0.149636  0  3.571818  0  0  -0.165772  0  3.588843  0  0  -0.245807  -0.140546  0  3.560981  0
N  N65  1  0.26146279  0.25487925  0.64768186  1  0  -0.169924  0  3.274676  0  0  -0.146825  0  3.568212  0  0  -0.163139  0  3.584985  0  0  -0.244594  -0.137746  0  3.5574  0
N  N66  1  0.61381537  0.60720644  0.35232419  1  0  -0.169774  0  3.275827  0  0  -0.147013  0  3.569437  0  0  -0.163527  0  3.586518  0  0  -0.244987  -0.137859  0  3.558484  0
N  N67  1  0.38618373  0.64767535  0.39279310  1  0  -0.169807  0  3.275833  0  0  -0.147119  0  3.569529  0  0  -0.163638  0  3.586606  0  0  -0.245033  -0.137942  0  3.558529  0
N  N68  1  0.26146265  0.64768175  0.25487891  1  0  -0.170059  0  3.274723  0  0  -0.146939  0  3.568263  0  0  -0.16325  0  3.585029  0  0  -0.244627  -0.13786  0  3.557458  0
N  N69  1  0.00661264  0.74512670  0.39281095  1  0  -0.170039  0  3.279064  0  0  -0.149622  0  3.57179  0  0  -0.16576  0  3.588816  0  0  -0.24582  -0.140529  0  3.56095  0
N  N70  1  0.99338729  0.60718902  0.25487291  1  0  -0.170038  0  3.27908  0  0  -0.149615  0  3.571804  0  0  -0.165753  0  3.588825  0  0  -0.245809  -0.140523  0  3.560997  0
N  N71  1  0.73853786  0.74512122  0.35231817  1  0  -0.170026  0  3.274719  0  0  -0.146912  0  3.568262  0  0  -0.163225  0  3.585029  0  0  -0.244626  -0.137832  0  3.55745  0
N  N72  1  0.50000055  0.35297570  0.64702522  1  0  0.042961  0  3.231594  0  0  0.064975  0  3.527591  0  0  0.067708  0  3.540274  0  0  -0.135605  0.061318  0  3.520363  0
N  N73  1  0.85298623  0.35298251  0.70595269  1  0  0.044848  0  3.229605  0  0  0.066809  0  3.525951  0  0  0.069434  0  3.538515  0  0  -0.13467  0.063094  0  3.518891  0
N  N74  1  0.14701371  0.29404847  0.64701956  1  0  0.044738  0  3.229707  0  0  0.066686  0  3.526067  0  0  0.069329  0  3.538614  0  0  -0.134717  0.062961  0  3.519013  0
N  N75  1  0.49999983  0.64702425  0.35297545  1  0  0.042979  0  3.231576  0  0  0.064995  0  3.527567  0  0  0.067728  0  3.54025  0  0  -0.135585  0.061334  0  3.520334  0
N  N76  1  0.14701467  0.64701849  0.29404761  1  0  0.044814  0  3.229604  0  0  0.066746  0  3.525989  0  0  0.069382  0  3.53854  0  0  -0.134689  0.063022  0  3.518942  0
N  N77  1  0.85298566  0.70595201  0.35298177  1  0  0.044826  0  3.229585  0  0  0.066781  0  3.52595  0  0  0.069412  0  3.538508  0  0  -0.13466  0.063061  0  3.518901  0
Cl  Cl78  1  0.38909792  0.38908981  0.77816006  1  0  -0.218433  0  1.466522  0  0  -0.252251  0  1.770137  0  0  -0.295288  0  1.757555  0  0  -0.130443  -0.225773  0  1.778152  0
Cl  Cl79  1  0.61090278  0.22184072  0.61091109  1  0  -0.218462  0  1.466579  0  0  -0.252256  0  1.770199  0  0  -0.295296  0  1.757616  0  0  -0.130455  -0.225781  0  1.778218  0
Cl  Cl80  1  0.00000042  0.38907244  0.61092913  1  0  -0.218045  0  1.46637  0  0  -0.251842  0  1.769955  0  0  -0.294867  0  1.757381  0  0  -0.130354  -0.225362  0  1.777958  0
Cl  Cl81  1  0.61090298  0.61091119  0.22184114  1  0  -0.218476  0  1.466586  0  0  -0.252283  0  1.770213  0  0  -0.29532  0  1.75763  0  0  -0.130461  -0.225794  0  1.778254  0
Cl  Cl82  1  0.38909759  0.77815923  0.38908959  1  0  -0.218462  0  1.466568  0  0  -0.252271  0  1.770185  0  0  -0.295305  0  1.757602  0  0  -0.130456  -0.225792  0  1.778202  0
Cl  Cl83  1  0.99999869  0.61092751  0.38907149  1  0  -0.218059  0  1.466359  0  0  -0.251863  0  1.769942  0  0  -0.294887  0  1.757367  0  0  -0.130367  -0.225377  0  1.777959  0
O  O84  1  0.35448272  0.52650574  0.52650630  1  0  -0.229468  0  2.345765  0  0  -0.163222  0  2.563261  0  0  -0.180011  0  2.565686  0  0  -0.138229  -0.151481  0  2.561533  0
O  O85  1  0.64551486  0.47349369  0.47349446  1  0  -0.229416  0  2.345834  0  0  -0.163229  0  2.563337  0  0  -0.180017  0  2.565764  0  0  -0.138202  -0.151486  0  2.561607  0
O  O86  1  0.82797085  0.47345650  0.99998295  1  0  -0.231152  0  2.347354  0  0  -0.163335  0  2.565342  0  0  -0.180072  0  2.567743  0  0  -0.13742  -0.151652  0  2.563654  0
O  O87  1  0.82797262  0.99998315  0.47345637  1  0  -0.23118  0  2.347271  0  0  -0.16335  0  2.565238  0  0  -0.180087  0  2.567633  0  0  -0.137464  -0.151673  0  2.56355  0
O  O88  1  0.17202826  0.52654345  0.00001677  1  0  -0.231177  0  2.347331  0  0  -0.163331  0  2.565304  0  0  -0.180066  0  2.567703  0  0  -0.137426  -0.151651  0  2.563617  0
O  O89  1  0.17202903  0.00001680  0.52654301  1  0  -0.23115  0  2.347376  0  0  -0.163318  0  2.56535  0  0  -0.180054  0  2.567751  0  0  -0.1374  -0.151635  0  2.563662  0
O  O90  1  0.27531237  0.55070285  0.77541940  1  0  -0.20003  0  2.121264  0  0  -0.147054  0  2.319336  0  0  -0.155291  0  2.301716  0  0  -0.158063  -0.14093  0  2.330547  0
O  O91  1  0.72469368  0.22457978  0.44930169  1  0  -0.19986  0  2.121589  0  0  -0.146874  0  2.319663  0  0  -0.15511  0  2.302043  0  0  -0.157982  -0.140751  0  2.330882  0
O  O92  1  0.50000030  0.22467530  0.77532363  1  0  -0.198897  0  2.121263  0  0  -0.145917  0  2.319274  0  0  -0.154154  0  2.301714  0  0  -0.157515  -0.139783  0  2.330481  0
O  O93  1  0.72469318  0.44930235  0.22457905  1  0  -0.199802  0  2.121789  0  0  -0.146815  0  2.319881  0  0  -0.155048  0  2.30226  0  0  -0.157933  -0.140669  0  2.33114  0
O  O94  1  0.27530670  0.77542017  0.55069989  1  0  -0.199902  0  2.121244  0  0  -0.146915  0  2.319328  0  0  -0.155151  0  2.301712  0  0  -0.157989  -0.140798  0  2.330523  0
O  O95  1  0.50000029  0.77532256  0.22467740  1  0  -0.198744  0  2.121536  0  0  -0.14576  0  2.319544  0  0  -0.153995  0  2.301982  0  0  -0.157424  -0.139625  0  2.330758  0
