# generated using pymatgen
data_Zn4H10C24S4N2O17
_symmetry_space_group_name_H-M   'P 1'
_cell_length_a   19.65928150
_cell_length_b   19.76472695
_cell_length_c   33.37117078
_cell_angle_alpha   78.80367575
_cell_angle_beta   79.11880296
_cell_angle_gamma   63.90434656
_symmetry_Int_Tables_number   1
_chemical_formula_structural   Zn4H10C24S4N2O17
_chemical_formula_sum   'Zn16 H40 C96 S16 N8 O68'
_cell_volume   11344.36971861
_cell_formula_units_Z   4
loop_
 _symmetry_equiv_pos_site_id
 _symmetry_equiv_pos_as_xyz
  1  'x, y, z'
loop_
 _atom_site_type_symbol
 _atom_site_label
 _atom_site_symmetry_multiplicity
 _atom_site_fract_x
 _atom_site_fract_y
 _atom_site_fract_z
 _atom_site_occupancy
 _atom_site_pbe_bader_charge
 _atom_site_pbe_bader_spin_density
 _atom_site_pbe_cm5_charge
 _atom_site_pbe_ddec_charge
 _atom_site_pbe_ddec_spin_density
 _atom_site_pbe_ddec_sum_bond_order
 _atom_site_pbe_magmom
Zn  Zn0  1  0.05484219  0.40097301  0.47767597  1  1.316701  0  0.669791  0.971896  0  2.351375  0
Zn  Zn1  1  0.98597951  0.48358524  0.56065944  1  1.308012  0  0.676121  0.962721  0  2.378739  0
Zn  Zn2  1  0.05878848  0.56055954  0.48266825  1  1.315895  0  0.668586  0.951075  0  2.391764  0
Zn  Zn3  1  0.90102567  0.55371059  0.47983807  1  1.314171  0  0.668255  0.950233  0  2.396095  0
Zn  Zn4  1  0.69473139  0.34891935  0.27235213  1  1.322929  0  0.669849  0.972064  0  2.350006  0
Zn  Zn5  1  0.69010737  0.18843861  0.26581491  1  1.313605  0  0.6731  0.967389  0  2.363729  0
Zn  Zn6  1  0.76767683  0.26659757  0.19025376  1  1.314986  0  0.668767  0.951254  0  2.389968  0
Zn  Zn7  1  0.84699041  0.19549827  0.27206138  1  1.312591  0  0.670713  0.944025  0  2.406772  0
Zn  Zn8  1  0.26494042  0.76538657  0.68940633  1  1.310403  0  0.676237  0.962633  0  2.378905  0
Zn  Zn9  1  0.34967045  0.69777245  0.77159656  1  1.322077  0  0.672985  0.966895  0  2.368998  0
Zn  Zn10  1  0.19363533  0.84842542  0.77095086  1  1.312363  0  0.665458  0.954892  0  2.382193  0
Zn  Zn11  1  0.19204098  0.68866142  0.76741220  1  1.315048  0  0.668036  0.950428  0  2.390456  0
Zn  Zn12  1  0.55908581  0.06208588  0.98417751  1  1.313927  0  0.672819  0.966484  0  2.365795  0
Zn  Zn13  1  0.40182706  0.05287945  0.97660023  1  1.320631  0  0.676315  0.963962  0  2.372193  0
Zn  Zn14  1  0.55683407  0.90187030  0.97885432  1  1.311143  0  0.665427  0.956026  0  2.378416  0
Zn  Zn15  1  0.48094458  0.98457705  0.05962959  1  1.31543  0  0.668555  0.951219  0  2.389141  0
H  H16  1  0.75046752  0.45024742  0.34774311  1  0.064523  0  0.103493  0.118879  0  1.005966  0
H  H17  1  0.00069944  0.30332289  0.40000681  1  0.060077  0  0.103548  0.118845  0  1.007148  0
H  H18  1  0.19867326  0.70218807  0.60205550  1  0.096309  0  0.105162  0.121992  0  1.00418  0
H  H19  1  0.04687443  0.55197670  0.64810746  1  0.087471  0  0.104885  0.121173  0  1.004745  0
H  H20  1  0.64977264  0.14673609  0.04933145  1  0.07547  0  0.104546  0.120668  0  1.005146  0
H  H21  1  0.60512585  0.09816494  0.20062478  1  0.075405  0  0.104285  0.120221  0  1.005895  0
H  H22  1  0.30280152  0.99704247  0.90230694  1  0.131744  0  0.105276  0.121873  0  1.004505  0
H  H23  1  0.44647642  0.74907441  0.84969850  1  0.083216  0  0.104443  0.121039  0  1.004911  0
H  H24  1  0.79214371  0.53989022  0.41887806  1  0.492739  0  0.295646  0.308481  0  0.993643  0
H  H25  1  0.72450092  0.54349773  0.39071818  1  0.431993  0  0.304563  0.296923  0  0.952092  0
H  H26  1  0.95424262  0.20849155  0.33392786  1  0.501288  0  0.296718  0.310572  0  0.989054  0
H  H27  1  0.01726087  0.20081519  0.36648702  1  0.440292  0  0.304578  0.298023  0  0.950832  0
H  H28  1  0.14790528  0.64312899  0.52025482  1  0.485977  0  0.29507  0.307917  0  0.992284  0
H  H29  1  0.20071160  0.68500052  0.53318158  1  0.441885  0  0.304474  0.297246  0  0.951548  0
H  H30  1  0.10706712  0.60168062  0.72996351  1  0.492062  0  0.29536  0.308151  0  0.99169  0
H  H31  1  0.06372223  0.55013727  0.71709826  1  0.437142  0  0.304767  0.297686  0  0.952454  0
H  H32  1  0.72652750  0.23238510  0.10479234  1  0.476956  0  0.294945  0.307267  0  0.993197  0
H  H33  1  0.70862624  0.22494127  0.05724199  1  0.423224  0  0.304541  0.296905  0  0.951021  0
H  H34  1  0.51731509  0.02339489  0.14516974  1  0.49576  0  0.295045  0.307668  0  0.993611  0
H  H35  1  0.52606623  0.03995739  0.19281057  1  0.433844  0  0.304931  0.298013  0  0.951019  0
H  H36  1  0.20944650  0.95887021  0.83140632  1  0.488413  0  0.294372  0.305795  0  0.996316  0
H  H37  1  0.20786627  0.02522405  0.85934117  1  0.435599  0  0.304674  0.297567  0  0.950852  0
H  H38  1  0.54455477  0.79256135  0.91568372  1  0.474735  0  0.294451  0.30604  0  0.99602  0
H  H39  1  0.55110545  0.73074981  0.88313591  1  0.415887  0  0.30406  0.296877  0  0.951427  0
H  H40  1  0.32744575  0.54009946  0.39676450  1  0.626746  0  0.341068  0.366601  0  0.867948  0
H  H41  1  0.42284080  0.20905282  0.35289216  1  0.625225  0  0.341746  0.366783  0  0.867506  0
H  H42  1  0.75455034  0.54083513  0.68526066  1  0.623385  0  0.34224  0.367392  0  0.86747  0
H  H43  1  0.49632894  0.70922648  0.56565491  1  0.601782  0  0.341396  0.366834  0  0.868925  0
H  H44  1  0.04081573  0.25336319  0.68344114  1  0.60296  0  0.341288  0.367154  0  0.867796  0
H  H45  1  0.20948624  0.99550363  0.56570340  1  0.619619  0  0.342128  0.367525  0  0.866492  0
H  H46  1  0.74282072  0.81657980  0.38718302  1  0.60357  0  0.341636  0.367253  0  0.867036  0
H  H47  1  0.00469169  0.93199064  0.36278184  1  0.592412  0  0.340889  0.366853  0  0.868853  0
H  H48  1  0.70903423  0.49712736  0.06621901  1  0.599687  0  0.340995  0.367253  0  0.867624  0
H  H49  1  0.54083466  0.75427126  0.18442223  1  0.619367  0  0.341894  0.368277  0  0.866639  0
H  H50  1  0.14952084  0.07636428  0.21917653  1  0.601098  0  0.341501  0.366889  0  0.867448  0
H  H51  1  0.09927358  0.17438011  0.03017248  1  0.58965  0  0.341895  0.367996  0  0.866809  0
H  H52  1  0.50863046  0.43149064  0.86295494  1  0.615243  0  0.341969  0.367012  0  0.868006  0
H  H53  1  0.24413614  0.31949783  0.88732148  1  0.602358  0  0.341451  0.366569  0  0.867832  0
H  H54  1  0.92151221  0.71024354  0.85302394  1  0.620305  0  0.341157  0.366706  0  0.867827  0
H  H55  1  0.82852990  0.04100857  0.89706981  1  0.61632  0  0.342242  0.367919  0  0.867522  0
C  C56  1  0.06234535  0.31644936  0.56140124  1  1.56368  0  0.213079  0.622409  0  4.222664  0
C  C57  1  0.07066854  0.57210367  0.56817605  1  1.51326  0  0.224032  0.612852  0  4.144289  0
C  C58  1  0.18357411  0.44017938  0.43845626  1  1.597528  0  0.212789  0.622976  0  4.222032  0
C  C59  1  0.93546833  0.68354441  0.43893305  1  1.560937  0  0.213318  0.622941  0  4.218785  0
C  C60  1  0.92855635  0.43216113  0.43026883  1  1.518599  0  0.223231  0.612302  0  4.142396  0
C  C61  1  0.81779938  0.55973840  0.56311550  1  1.56779  0  0.212247  0.621264  0  4.223005  0
C  C62  1  0.56628666  0.30937699  0.31105515  1  1.583603  0  0.212131  0.62093  0  4.22355  0
C  C63  1  0.68327296  0.17974381  0.17897591  1  1.523577  0  0.224143  0.613166  0  4.143045  0
C  C64  1  0.68909667  0.43332435  0.18830572  1  1.582918  0  0.212871  0.62335  0  4.219283  0
C  C65  1  0.93472792  0.18807334  0.18977100  1  1.570057  0  0.212236  0.620099  0  4.222298  0
C  C66  1  0.82082311  0.31936367  0.31943118  1  1.495  0  0.224094  0.613468  0  4.141236  0
C  C67  1  0.81157447  0.06618794  0.31175716  1  1.575578  0  0.213237  0.622681  0  4.221785  0
C  C68  1  0.43268377  0.69036541  0.68776023  1  1.607225  0  0.213457  0.623576  0  4.221474  0
C  C69  1  0.31658968  0.82295324  0.81956758  1  1.518446  0  0.223861  0.613368  0  4.144011  0
C  C70  1  0.18761345  0.93294096  0.68780123  1  1.568764  0  0.211883  0.62102  0  4.223256  0
C  C71  1  0.06617868  0.80922295  0.81127431  1  1.575807  0  0.212132  0.620532  0  4.221366  0
C  C72  1  0.17862802  0.67835803  0.68196676  1  1.5064  0  0.224342  0.613003  0  4.143512  0
C  C73  1  0.31579048  0.56656348  0.81134611  1  1.574956  0  0.212652  0.622049  0  4.221787  0
C  C74  1  0.43717605  0.18362416  0.93834772  1  1.592035  0  0.213207  0.621757  0  4.222924  0
C  C75  1  0.43468996  0.92549427  0.93029213  1  1.496823  0  0.224888  0.613391  0  4.141122  0
C  C76  1  0.68415460  0.94162639  0.93920397  1  1.582629  0  0.212891  0.623286  0  4.21696  0
C  C77  1  0.56035841  0.81743749  0.06228455  1  1.577701  0  0.212782  0.622129  0  4.217966  0
C  C78  1  0.56780936  0.06894571  0.07098725  1  1.526211  0  0.224326  0.613225  0  4.143222  0
C  C79  1  0.31424818  0.06192745  0.05949392  1  1.571234  0  0.212297  0.620154  0  4.222422  0
C  C80  1  0.89939997  0.40641377  0.40105786  1  0.042666  0  -0.028297  -0.134242  0  3.958401  0
C  C81  1  0.85148387  0.34689188  0.34697950  1  0.027373  0  -0.028883  -0.135527  0  3.958684  0
C  C82  1  0.82702888  0.45083339  0.38605063  1  0.427971  0  0.091437  0.275211  0  4.098963  0
C  C83  1  0.92472470  0.30328761  0.36113776  1  0.455414  0  0.092906  0.277086  0  4.095476  0
C  C84  1  0.80555173  0.41855889  0.35957338  1  -0.032818  0  -0.102572  -0.208892  0  3.968224  0
C  C85  1  0.94561536  0.33503557  0.38818103  1  -0.008945  0  -0.102949  -0.209471  0  3.966632  0
C  C86  1  0.09786188  0.60223369  0.59614822  1  -0.007553  0  -0.028684  -0.13553  0  3.960508  0
C  C87  1  0.14820210  0.65142307  0.65402169  1  -0.006788  0  -0.028147  -0.134998  0  3.959996  0
C  C88  1  0.14076604  0.64653801  0.58175106  1  0.407383  0  0.091867  0.276409  0  4.098334  0
C  C89  1  0.10346374  0.60893660  0.66842169  1  0.408896  0  0.092102  0.275928  0  4.100166  0
C  C90  1  0.16508113  0.66898787  0.61165681  1  0.024604  0  -0.102941  -0.209849  0  3.966018  0
C  C91  1  0.08043176  0.58520689  0.63850392  1  0.023776  0  -0.102248  -0.208007  0  3.965557  0
C  C92  1  0.30501475  0.45416463  0.40062981  1  0.55815  0  0.085242  0.278896  0  4.086016  0
C  C93  1  0.44515664  0.29503387  0.34924282  1  0.528951  0  0.08596  0.279782  0  4.085257  0
C  C94  1  0.25830996  0.41566631  0.41390032  1  -0.09727  0  -0.038287  -0.230834  0  3.915557  0
C  C95  1  0.49179940  0.33357635  0.33591393  1  -0.075565  0  -0.038405  -0.230241  0  3.913984  0
C  C96  1  0.37703402  0.33920094  0.37288265  1  -0.12567  0  -0.039793  -0.138071  0  4.150067  0
C  C97  1  0.37317717  0.40994934  0.37704402  1  -0.114172  0  -0.040438  -0.13726  0  4.150881  0
C  C98  1  0.72613957  0.57568589  0.63078306  1  0.585815  0  0.086907  0.281789  0  4.085767  0
C  C99  1  0.52445447  0.67379074  0.62016971  1  0.66411  0  0.085874  0.280604  0  4.086444  0
C  C100  1  0.74357771  0.58426841  0.58812224  1  -0.127554  0  -0.038604  -0.229804  0  3.915317  0
C  C101  1  0.50703223  0.66526069  0.66284009  1  -0.169063  0  -0.038266  -0.230636  0  3.914486  0
C  C102  1  0.60451562  0.64097244  0.60857767  1  -0.19312  0  -0.039868  -0.13832  0  4.153231  0
C  C103  1  0.64606419  0.60842961  0.64238819  1  -0.129136  0  -0.040773  -0.139916  0  4.153042  0
C  C104  1  0.07709380  0.22507048  0.62921584  1  0.645656  0  0.086225  0.280759  0  4.085163  0
C  C105  1  0.17384757  0.02403848  0.61989028  1  0.599781  0  0.086703  0.280925  0  4.085699  0
C  C106  1  0.08661846  0.24225700  0.58651198  1  -0.090259  0  -0.039008  -0.232077  0  3.915756  0
C  C107  1  0.16413817  0.00694469  0.66257938  1  -0.116726  0  -0.038707  -0.230379  0  3.918039  0
C  C108  1  0.14202576  0.10376151  0.60779588  1  -0.130664  0  -0.040194  -0.137933  0  4.151017  0
C  C109  1  0.10908618  0.14535418  0.64126159  1  -0.197816  0  -0.040039  -0.138044  0  4.15374  0
C  C110  1  0.84148266  0.80096002  0.39727161  1  0.563526  0  0.086288  0.281352  0  4.084885  0
C  C111  1  0.90534509  0.94858523  0.35335329  1  0.586113  0  0.085955  0.280651  0  4.083688  0
C  C112  1  0.91006458  0.75789091  0.41408064  1  -0.106892  0  -0.038118  -0.230492  0  3.915245  0
C  C113  1  0.83674887  0.99169987  0.33655127  1  -0.123156  0  -0.03845  -0.231096  0  3.916211  0
C  C114  1  0.90702244  0.87881344  0.37535241  1  -0.116223  0  -0.039515  -0.137816  0  4.151333  0
C  C115  1  0.84009882  0.87040237  0.37495757  1  -0.144076  0  -0.039766  -0.137926  0  4.149243  0
C  C116  1  0.65646394  0.15093356  0.15010738  1  -0.029405  0  -0.02815  -0.135134  0  3.960209  0
C  C117  1  0.59780701  0.09456351  0.09984934  1  -0.054329  0  -0.028723  -0.136644  0  3.960587  0
C  C118  1  0.67112912  0.16528119  0.10639287  1  0.382996  0  0.091892  0.276049  0  4.098617  0
C  C119  1  0.58459723  0.07875905  0.14355477  1  0.374813  0  0.092658  0.27785  0  4.097326  0
C  C120  1  0.64043246  0.13653950  0.08279467  1  0.07227  0  -0.102903  -0.209121  0  3.967213  0
C  C121  1  0.61442382  0.10838791  0.16716023  1  0.063594  0  -0.102868  -0.209242  0  3.96573  0
C  C122  1  0.67365748  0.52502262  0.12054524  1  0.572532  0  0.085368  0.279663  0  4.084893  0
C  C123  1  0.57526764  0.72591276  0.13013706  1  0.612869  0  0.086406  0.281682  0  4.083681  0
C  C124  1  0.66427330  0.50760161  0.16323069  1  -0.083299  0  -0.038541  -0.230932  0  3.914829  0
C  C125  1  0.58478011  0.74331063  0.08745132  1  -0.135235  0  -0.038029  -0.229352  0  3.912369  0
C  C126  1  0.60790266  0.64615985  0.14212393  1  -0.137213  0  -0.03978  -0.138017  0  4.148425  0
C  C127  1  0.64122990  0.60477825  0.10858469  1  -0.14297  0  -0.03914  -0.13699  0  4.149948  0
C  C128  1  0.08198196  0.12409900  0.17772240  1  0.556528  0  0.086822  0.282296  0  4.08312  0
C  C129  1  0.16691342  0.12672387  0.07158150  1  0.509359  0  0.086285  0.281077  0  4.086686  0
C  C130  1  0.00925905  0.16314729  0.16508399  1  -0.101342  0  -0.038001  -0.230531  0  3.913859  0
C  C131  1  0.23964504  0.08766502  0.08415960  1  -0.027377  0  -0.038078  -0.229528  0  3.914617  0
C  C132  1  0.10949728  0.14016114  0.10583147  1  -0.182859  0  -0.039977  -0.13768  0  4.148709  0
C  C133  1  0.13944271  0.11109951  0.14350281  1  -0.16579  0  -0.039992  -0.139381  0  4.15157  0
C  C134  1  0.34353179  0.85063260  0.84890745  1  -0.04423  0  -0.028815  -0.135478  0  3.958405  0
C  C135  1  0.40596318  0.89572492  0.90286082  1  0.016514  0  -0.027932  -0.133718  0  3.957562  0
C  C136  1  0.29998514  0.92231720  0.86404871  1  0.471207  0  0.092008  0.276361  0  4.096205  0
C  C137  1  0.44856583  0.82311141  0.88867247  1  0.46167  0  0.091857  0.275196  0  4.101008  0
C  C138  1  0.33370170  0.94243829  0.89043829  1  -0.115808  0  -0.102388  -0.208553  0  3.965289  0
C  C139  1  0.41549854  0.80359852  0.86166116  1  0.037043  0  -0.10263  -0.209175  0  3.967255  0
C  C140  1  0.40950389  0.44835180  0.85294323  1  0.532805  0  0.08658  0.281729  0  4.082317  0
C  C141  1  0.34387610  0.30184912  0.89668354  1  0.569222  0  0.086224  0.280337  0  4.084373  0
C  C142  1  0.34117962  0.49193082  0.83598391  1  -0.098645  0  -0.038799  -0.231662  0  3.915528  0
C  C143  1  0.41224213  0.25820216  0.91360657  1  -0.10341  0  -0.037867  -0.230093  0  3.913807  0
C  C144  1  0.34311096  0.37120967  0.87455016  1  -0.117699  0  -0.040313  -0.138032  0  4.150743  0
C  C145  1  0.41030774  0.37896750  0.87510589  1  -0.128608  0  -0.040191  -0.138678  0  4.148898  0
C  C146  1  0.94469866  0.79566196  0.84949983  1  0.556847  0  0.086262  0.279914  0  4.084829  0
C  C147  1  0.80521716  0.95569852  0.90050399  1  0.640833  0  0.086464  0.281088  0  4.083021  0
C  C148  1  0.99159646  0.83388557  0.83595823  1  -0.086808  0  -0.038344  -0.229614  0  3.914535  0
C  C149  1  0.75833123  0.91749321  0.91407764  1  -0.141061  0  -0.037828  -0.229372  0  3.911032  0
C  C150  1  0.87313778  0.91109934  0.87685175  1  -0.150324  0  -0.039434  -0.137758  0  4.147854  0
C  C151  1  0.87664155  0.84036036  0.87299231  1  -0.152606  0  -0.04004  -0.136763  0  4.147688  0
S  S152  1  0.29777056  0.32587221  0.39759788  1  0.230498  0  0.055662  0.106413  0  2.796926  0
S  S153  1  0.45242470  0.42331750  0.35230280  1  0.229712  0  0.053802  0.103201  0  2.799329  0
S  S154  1  0.66238967  0.63196240  0.56238200  1  0.233346  0  0.053345  0.102759  0  2.802624  0
S  S155  1  0.58817417  0.61746076  0.68858237  1  0.235062  0  0.055737  0.106438  0  2.798786  0
S  S156  1  0.13440850  0.16125428  0.56135086  1  0.224883  0  0.054666  0.104986  0  2.797688  0
S  S157  1  0.11658187  0.08797521  0.68772702  1  0.231837  0  0.052409  0.101347  0  2.802991  0
S  S158  1  0.97238780  0.80222120  0.40265383  1  0.236399  0  0.056607  0.107535  0  2.798388  0
S  S159  1  0.77476430  0.94702286  0.34762271  1  0.243145  0  0.056865  0.107868  0  2.794702  0
S  S160  1  0.61587484  0.58843693  0.18850549  1  0.232338  0  0.056045  0.106588  0  2.795098  0
S  S161  1  0.63340428  0.66244886  0.06219628  1  0.233285  0  0.055051  0.104921  0  2.79808  0
S  S162  1  0.01127776  0.18378211  0.11165568  1  0.286895  0  0.057046  0.107986  0  2.797673  0
S  S163  1  0.23768683  0.06756330  0.13762011  1  0.272141  0  0.053677  0.103736  0  2.800495  0
S  S164  1  0.27837398  0.44813996  0.84707478  1  0.239632  0  0.053144  0.103369  0  2.804783  0
S  S165  1  0.47504022  0.30199131  0.90257275  1  0.242816  0  0.055304  0.105801  0  2.799419  0
S  S166  1  0.95244850  0.92400747  0.85184106  1  0.230485  0  0.055861  0.106382  0  2.799019  0
S  S167  1  0.79725044  0.82753188  0.89798196  1  0.235925  0  0.052362  0.101198  0  2.80065  0
N  N168  1  0.77985977  0.52331034  0.39522970  1  -1.243621  0  -0.606484  -0.631641  0  3.343908  0
N  N169  1  0.97536901  0.23418132  0.34863770  1  -1.29224  0  -0.604914  -0.631739  0  3.340615  0
N  N170  1  0.15680861  0.66947109  0.54070177  1  -1.264213  0  -0.605999  -0.632778  0  3.33982  0
N  N171  1  0.08053507  0.59299694  0.70942992  1  -1.266494  0  -0.605776  -0.632197  0  3.343007  0
N  N172  1  0.71526816  0.20313590  0.08701349  1  -1.213548  0  -0.605674  -0.63078  0  3.339759  0
N  N173  1  0.54684453  0.03460025  0.16291136  1  -1.244062  0  -0.605287  -0.631677  0  3.343336  0
N  N174  1  0.22707051  0.97027531  0.85498328  1  -1.269213  0  -0.605781  -0.631505  0  3.343474  0
N  N175  1  0.51808632  0.77183996  0.90121666  1  -1.22719  0  -0.60683  -0.63249  0  3.342503  0
O  O176  1  0.00082250  0.49866191  0.50011873  1  -1.220559  0  -0.571106  -1.025157  0  2.537397  0
O  O177  1  0.07773607  0.31542118  0.52229336  1  -1.147969  0  -0.326065  -0.556374  0  2.323264  0
O  O178  1  0.03402340  0.53191265  0.58454491  1  -1.174623  0  -0.318491  -0.550652  0  2.357508  0
O  O179  1  0.15581808  0.50582261  0.45016348  1  -1.166507  0  -0.315037  -0.527153  0  2.332807  0
O  O180  1  0.02848983  0.37472891  0.58045798  1  -1.168872  0  -0.312255  -0.524038  0  2.332836  0
O  O181  1  0.15301048  0.39279066  0.44584287  1  -1.184014  0  -0.325743  -0.556201  0  2.323401  0
O  O182  1  0.08575405  0.58776240  0.52912529  1  -1.179931  0  -0.312871  -0.548802  0  2.365284  0
O  O183  1  0.00299243  0.65683659  0.44940218  1  -1.17348  0  -0.325444  -0.553213  0  2.33311  0
O  O184  1  0.88516913  0.49669441  0.44322461  1  -1.182408  0  -0.312991  -0.548853  0  2.372676  0
O  O185  1  0.88917287  0.65210023  0.44799671  1  -1.149754  0  -0.314712  -0.52704  0  2.325819  0
O  O186  1  0.99484622  0.38874637  0.44107474  1  -1.178214  0  -0.319942  -0.553428  0  2.341577  0
O  O187  1  0.87711964  0.52686920  0.58184167  1  -1.16145  0  -0.311504  -0.52436  0  2.325073  0
O  O188  1  0.81565522  0.57421071  0.52400426  1  -1.145768  0  -0.326508  -0.554643  0  2.336219  0
O  O189  1  0.74849268  0.25079345  0.25033276  1  -1.226853  0  -0.571059  -1.024819  0  2.5363  0
O  O190  1  0.59651794  0.35707989  0.30379279  1  -1.179524  0  -0.325171  -0.55475  0  2.327009  0
O  O191  1  0.66722548  0.16312098  0.21753292  1  -1.171882  0  -0.319024  -0.551889  0  2.347956  0
O  O192  1  0.72429472  0.37505341  0.16923762  1  -1.155732  0  -0.315319  -0.527796  0  2.330396  0
O  O193  1  0.59400965  0.24405118  0.29901347  1  -1.161235  0  -0.312937  -0.525722  0  2.326276  0
O  O194  1  0.67288933  0.43411636  0.22737919  1  -1.184205  0  -0.325178  -0.555789  0  2.323322  0
O  O195  1  0.72088521  0.22001790  0.16359138  1  -1.186901  0  -0.313116  -0.548719  0  2.367712  0
O  O196  1  0.87682670  0.22424501  0.16951993  1  -1.167749  0  -0.325415  -0.553353  0  2.332512  0
O  O197  1  0.86270509  0.25312802  0.30822776  1  -1.177782  0  -0.312124  -0.546855  0  2.377939  0
O  O198  1  0.93361189  0.17196348  0.22871831  1  -1.143633  0  -0.312572  -0.522565  0  2.330394  0
O  O199  1  0.75458098  0.36266651  0.30849461  1  -1.179185  0  -0.321071  -0.555299  0  2.337662  0
O  O200  1  0.74588019  0.09169162  0.29917141  1  -1.175032  0  -0.3243  -0.554154  0  2.325964  0
O  O201  1  0.85671000  0.09886145  0.30493895  1  -1.148545  0  -0.31428  -0.525466  0  2.333443  0
O  O202  1  0.25033504  0.75022508  0.74995040  1  -1.222622  0  -0.57128  -1.024654  0  2.537094  0
O  O203  1  0.37375661  0.72390056  0.66870018  1  -1.159544  0  -0.312463  -0.524681  0  2.327913  0
O  O204  1  0.36096906  0.75834030  0.80766145  1  -1.182715  0  -0.319669  -0.55275  0  2.353134  0
O  O205  1  0.17206899  0.93454187  0.72688768  1  -1.167603  0  -0.327857  -0.556861  0  2.330378  0
O  O206  1  0.43432172  0.67586475  0.72687595  1  -1.171443  0  -0.324899  -0.55522  0  2.332146  0
O  O207  1  0.22077295  0.87424898  0.66908235  1  -1.15586  0  -0.311171  -0.523418  0  2.32996  0
O  O208  1  0.25041728  0.86554041  0.80766299  1  -1.174636  0  -0.313789  -0.550156  0  2.362329  0
O  O209  1  0.09543613  0.85778320  0.80269215  1  -1.175738  0  -0.325658  -0.553775  0  2.331461  0
O  O210  1  0.16472629  0.66156168  0.72101765  1  -1.182342  0  -0.312841  -0.54908  0  2.363748  0
O  O211  1  0.09531002  0.74267792  0.80061713  1  -1.157805  0  -0.313524  -0.524934  0  2.326363  0
O  O212  1  0.21729904  0.71657198  0.66559033  1  -1.173265  0  -0.318986  -0.550692  0  2.356961  0
O  O213  1  0.36074388  0.59946437  0.80367150  1  -1.15996  0  -0.312579  -0.525639  0  2.320738  0
O  O214  1  0.24922326  0.59192158  0.79976821  1  -1.174607  0  -0.326426  -0.554622  0  2.339684  0
O  O215  1  0.50004071  0.00038321  0.99954748  1  -1.225558  0  -0.571318  -1.025591  0  2.535552  0
O  O216  1  0.50314812  0.15812018  0.95064261  1  -1.175399  0  -0.324995  -0.553977  0  2.330414  0
O  O217  1  0.39153270  0.99156015  0.94066725  1  -1.182524  0  -0.319087  -0.551663  0  2.356301  0
O  O218  1  0.65433910  0.89352041  0.94673392  1  -1.162875  0  -0.327901  -0.557881  0  2.33194  0
O  O219  1  0.39197328  0.15105513  0.94534478  1  -1.169226  0  -0.311985  -0.524309  0  2.327139  0
O  O220  1  0.65609396  0.00694201  0.95126545  1  -1.167661  0  -0.312519  -0.525721  0  2.322011  0
O  O221  1  0.50123090  0.88354330  0.94188857  1  -1.17249  0  -0.313403  -0.549783  0  2.357875  0
O  O222  1  0.57903991  0.81621496  0.02331470  1  -1.164153  0  -0.326351  -0.555127  0  2.327919  0
O  O223  1  0.52763498  0.03118831  0.08636388  1  -1.181592  0  -0.313214  -0.549259  0  2.366417  0
O  O224  1  0.52306223  0.87602500  0.08092440  1  -1.160035  0  -0.31398  -0.525899  0  2.326573  0
O  O225  1  0.58328456  0.08617183  0.03243622  1  -1.17448  0  -0.319423  -0.551789  0  2.349071  0
O  O226  1  0.31568589  0.07443854  0.02048122  1  -1.163532  0  -0.311136  -0.523618  0  2.324766  0
O  O227  1  0.37191896  0.02848390  0.08007050  1  -1.170143  0  -0.326959  -0.554988  0  2.335911  0
O  O228  1  0.28663629  0.52479848  0.40944234  1  -1.119597  0  -0.332891  -0.399076  0  2.269556  0
O  O229  1  0.46368562  0.22441676  0.34041268  1  -1.115576  0  -0.331726  -0.397116  0  2.269167  0
O  O230  1  0.77978278  0.54024263  0.65715278  1  -1.115257  0  -0.331428  -0.397085  0  2.267947  0
O  O231  1  0.47092723  0.70920221  0.59371359  1  -1.095346  0  -0.331645  -0.397615  0  2.270132  0
O  O232  1  0.04149293  0.27852800  0.65529125  1  -1.109271  0  -0.330954  -0.397069  0  2.269486  0
O  O233  1  0.20939483  0.97048364  0.59390190  1  -1.121259  0  -0.330476  -0.396086  0  2.268371  0
O  O234  1  0.78430863  0.77823839  0.40207507  1  -1.092496  0  -0.331593  -0.398639  0  2.269316  0
O  O235  1  0.96242082  0.97141149  0.34884112  1  -1.081308  0  -0.331949  -0.399237  0  2.270523  0
O  O236  1  0.70937880  0.47174249  0.09435264  1  -1.098366  0  -0.33251  -0.399803  0  2.26893  0
O  O237  1  0.53930084  0.77932737  0.15620212  1  -1.120837  0  -0.331305  -0.399251  0  2.270837  0
O  O238  1  0.09473029  0.10193823  0.21771568  1  -1.094851  0  -0.330814  -0.397143  0  2.269689  0
O  O239  1  0.15407462  0.14862609  0.03160055  1  -1.080375  0  -0.33023  -0.397067  0  2.268581  0
O  O240  1  0.46704087  0.47051194  0.84838295  1  -1.103674  0  -0.332201  -0.398153  0  2.266578  0
O  O241  1  0.28628038  0.27977710  0.90122337  1  -1.091116  0  -0.331734  -0.397275  0  2.268185  0
O  O242  1  0.96294945  0.72494587  0.84092512  1  -1.111923  0  -0.331142  -0.397619  0  2.2701  0
O  O243  1  0.78705225  0.02634419  0.90913107  1  -1.108146  0  -0.331633  -0.398103  0  2.268094  0
