# generated using pymatgen
data_CuH14C10IN4
_symmetry_space_group_name_H-M   'P 1'
_cell_length_a   6.82668642
_cell_length_b   11.23158336
_cell_length_c   11.23156213
_cell_angle_alpha   69.35095286
_cell_angle_beta   72.29368684
_cell_angle_gamma   72.29470151
_symmetry_Int_Tables_number   1
_chemical_formula_structural   CuH14C10IN4
_chemical_formula_sum   'Cu2 H28 C20 I2 N8'
_cell_volume   748.72101789
_cell_formula_units_Z   2
loop_
 _symmetry_equiv_pos_site_id
 _symmetry_equiv_pos_as_xyz
  1  'x, y, z'
loop_
 _atom_site_type_symbol
 _atom_site_label
 _atom_site_symmetry_multiplicity
 _atom_site_fract_x
 _atom_site_fract_y
 _atom_site_fract_z
 _atom_site_occupancy
 _atom_site_pbe_bader_charge
 _atom_site_pbe_bader_spin_density
 _atom_site_pbe_cm5_charge
 _atom_site_pbe_ddec_charge
 _atom_site_pbe_ddec_spin_density
 _atom_site_pbe_ddec_sum_bond_order
 _atom_site_pbe_magmom
Cu  Cu0  1  0.07856346  0.58747771  0.91254712  1  0.491552  0  0.351203  0.188327  0  2.645608  0
Cu  Cu1  1  0.57855368  0.41253989  0.08748982  1  0.491587  0  0.351206  0.188263  0  2.645685  0
H  H2  1  0.69612444  0.90853179  0.87117043  1  0.056512  0  0.086585  0.131186  0  1.0179  0
H  H3  1  0.92793209  0.87647727  0.75337715  1  0.045785  0  0.090421  0.133018  0  1.017015  0
H  H4  1  0.85273415  0.02781620  0.79174560  1  0.024586  0  0.088605  0.123991  0  1.028391  0
H  H5  1  0.28173908  0.75477380  0.26023413  1  0.045569  0  0.09383  0.131218  0  1.028335  0
H  H6  1  0.18485155  0.92766765  0.21378154  1  0.052824  0  0.10036  0.145047  0  0.977974  0
H  H7  1  0.43288174  0.85584718  0.12903600  1  0.05854  0  0.096648  0.140414  0  0.99047  0
H  H8  1  0.26939489  0.62983808  0.09564868  1  0.493917  0  0.299154  0.239781  0  1.008574  0
H  H9  1  0.47588961  0.09162201  0.12902836  1  0.067948  0  0.086666  0.13169  0  1.017246  0
H  H10  1  0.55867233  0.12325234  0.24672396  1  0.047908  0  0.090631  0.133523  0  1.015905  0
H  H11  1  0.67290495  0.97212705  0.20787365  1  0.045128  0  0.088803  0.124105  0  1.028342  0
H  H12  1  0.29741374  0.24548677  0.73969420  1  0.04599  0  0.094189  0.131967  0  1.028405  0
H  H13  1  0.32702307  0.07258692  0.78599719  1  0.049576  0  0.101018  0.145589  0  0.979328  0
H  H14  1  0.41797601  0.14428634  0.87103228  1  0.050737  0  0.096456  0.140565  0  0.990932  0
H  H15  1  0.99519257  0.37029707  0.90433574  1  0.492094  0  0.299153  0.239459  0  1.007888  0
H  H16  1  0.19612990  0.37115916  0.40852721  1  0.056731  0  0.0866  0.131228  0  1.017902  0
H  H17  1  0.42793796  0.25337132  0.37648369  1  0.045762  0  0.090419  0.133031  0  1.017013  0
H  H18  1  0.35271355  0.29174132  0.52782358  1  0.0244  0  0.088606  0.123975  0  1.028401  0
H  H19  1  0.78175170  0.76022987  0.25475888  1  0.045508  0  0.093893  0.131281  0  1.028292  0
H  H20  1  0.68485732  0.71378811  0.42765506  1  0.053039  0  0.100393  0.14509  0  0.978028  0
H  H21  1  0.93288955  0.62903818  0.35583745  1  0.058438  0  0.096667  0.140451  0  0.990438  0
H  H22  1  0.76938044  0.59565075  0.12983395  1  0.493833  0  0.299199  0.239785  0  1.008537  0
H  H23  1  0.97590262  0.62901702  0.59162393  1  0.067997  0  0.086645  0.131697  0  1.017173  0
H  H24  1  0.05867577  0.74671700  0.62325635  1  0.047947  0  0.090626  0.133544  0  1.015793  0
H  H25  1  0.17292568  0.70786569  0.47212971  1  0.044772  0  0.088801  0.124118  0  1.02841  0
H  H26  1  0.79742625  0.23970124  0.74547923  1  0.046012  0  0.094212  0.132019  0  1.028402  0
H  H27  1  0.82702645  0.28600776  0.57257904  1  0.049792  0  0.101014  0.145581  0  0.979387  0
H  H28  1  0.91798972  0.37103931  0.64427531  1  0.050899  0  0.096516  0.140687  0  0.990924  0
H  H29  1  0.49520363  0.40434160  0.87029553  1  0.492105  0  0.299139  0.239425  0  1.007943  0
C  C30  1  0.85842936  0.92288087  0.83240682  1  -0.029361  0  -0.240169  -0.416604  0  3.984556  0
C  C31  1  0.98534035  0.86530086  0.93419870  1  0.436984  0  0.090302  0.200363  0  3.998959  0
C  C32  1  0.03672533  0.93051613  0.00445815  1  0.036449  0  -0.040288  -0.146719  0  4.081082  0
C  C33  1  0.16375356  0.83360758  0.08482159  1  0.431409  0  0.096374  0.194246  0  3.99877  0
C  C34  1  0.27098196  0.84311168  0.17711390  1  -0.045417  0  -0.22943  -0.415665  0  3.954105  0
C  C35  1  0.61415428  0.07712355  0.16749583  1  -0.090829  0  -0.240253  -0.417169  0  3.982507  0
C  C36  1  0.78501325  0.13484507  0.06554762  1  0.45673  0  0.089905  0.199315  0  3.998669  0
C  C37  1  0.97182831  0.06967963  0.99514327  1  -0.010615  0  -0.040942  -0.146834  0  4.080053  0
C  C38  1  0.08240636  0.16657379  0.91491171  1  0.427907  0  0.096379  0.194618  0  3.997622  0
C  C39  1  0.29165144  0.15709688  0.82275809  1  -0.026992  0  -0.230463  -0.417865  0  3.957438  0
C  C40  1  0.35842134  0.33239815  0.42288478  1  -0.029084  0  -0.240195  -0.416634  0  3.984473  0
C  C41  1  0.48534226  0.43419806  0.36530316  1  0.436713  0  0.090241  0.200243  0  3.999097  0
C  C42  1  0.53673263  0.50445306  0.43051409  1  0.036362  0  -0.040316  -0.146733  0  4.081235  0
C  C43  1  0.66375032  0.58481587  0.33360619  1  0.431216  0  0.09632  0.194148  0  3.999005  0
C  C44  1  0.77098952  0.67711457  0.34310003  1  -0.045447  0  -0.229533  -0.415797  0  3.954046  0
C  C45  1  0.11416965  0.66748633  0.57712694  1  -0.09041  0  -0.240225  -0.417223  0  3.982436  0
C  C46  1  0.28502078  0.56554408  0.63485075  1  0.456826  0  0.089898  0.199349  0  3.998861  0
C  C47  1  0.47183864  0.49513801  0.56968976  1  -0.010689  0  -0.040889  -0.146856  0  4.080314  0
C  C48  1  0.58241121  0.41492257  0.66657062  1  0.428326  0  0.096393  0.194739  0  3.997991  0
C  C49  1  0.79166703  0.32276630  0.65708954  1  -0.027511  0  -0.230561  -0.418061  0  3.957428  0
I  I50  1  0.19379021  0.38586283  0.11418941  1  -0.515032  0  -0.237557  -0.4394  0  1.880234  0
I  I51  1  0.69379398  0.61418620  0.88586654  1  -0.514978  0  -0.237549  -0.439402  0  1.880134  0
N  N52  1  0.07416200  0.73690057  0.97024479  1  -0.737478  0  -0.292944  -0.197299  0  3.582224  0
N  N53  1  0.17867296  0.72045860  0.06196964  1  -0.841298  0  -0.295956  -0.137264  0  3.737049  0
N  N54  1  0.78149395  0.26320713  0.02966036  1  -0.718787  0  -0.293002  -0.197181  0  3.584714  0
N  N55  1  0.96136334  0.27968794  0.93794635  1  -0.842359  0  -0.295663  -0.13639  0  3.736129  0
N  N56  1  0.57415527  0.47024007  0.23690372  1  -0.737345  0  -0.292881  -0.197145  0  3.582238  0
N  N57  1  0.67867366  0.56196996  0.22045561  1  -0.841097  0  -0.295968  -0.137191  0  3.737025  0
N  N58  1  0.28150042  0.52966050  0.76320591  1  -0.718881  0  -0.293013  -0.197166  0  3.58469  0
N  N59  1  0.46138088  0.43794564  0.77968890  1  -0.8428  0  -0.295678  -0.136481  0  3.735942  0
