# generated using pymatgen
data_ZnH11C19SNO8
_symmetry_space_group_name_H-M   'P 1'
_cell_length_a   12.76371501
_cell_length_b   16.41197467
_cell_length_c   17.72135920
_cell_angle_alpha   95.01434579
_cell_angle_beta   90.08862734
_cell_angle_gamma   91.95236320
_symmetry_Int_Tables_number   1
_chemical_formula_structural   ZnH11C19SNO8
_chemical_formula_sum   'Zn2 H22 C38 S2 N2 O16'
_cell_volume   3695.83859921
_cell_formula_units_Z   2
loop_
 _symmetry_equiv_pos_site_id
 _symmetry_equiv_pos_as_xyz
  1  'x, y, z'
loop_
 _atom_site_type_symbol
 _atom_site_label
 _atom_site_symmetry_multiplicity
 _atom_site_fract_x
 _atom_site_fract_y
 _atom_site_fract_z
 _atom_site_occupancy
 _atom_site_pbe_bader_charge
 _atom_site_pbe_bader_spin_density
 _atom_site_pbe_cm5_charge
 _atom_site_pbe_ddec_charge
 _atom_site_pbe_ddec_spin_density
 _atom_site_pbe_ddec_sum_bond_order
 _atom_site_pbe_magmom
Zn  Zn0  1  0.49836951  0.41339260  0.49873876  1  1.295215  0  0.670858  0.821289  0  2.420396  0
Zn  Zn1  1  0.49986492  0.58647857  0.50403522  1  1.293119  0  0.671914  0.82152  0  2.42308  0
H  H2  1  0.39013703  0.71462206  0.42658068  1  0.122932  0  0.130172  0.104396  0  0.966243  0
H  H3  1  0.39625470  0.86530154  0.42726270  1  0.147962  0  0.114013  0.131844  0  1.031667  0
H  H4  1  0.64484610  0.86661465  0.59635451  1  0.028054  0  0.113108  0.101669  0  1.017617  0
H  H5  1  0.62861267  0.71865942  0.58516345  1  0.108253  0  0.130554  0.106651  0  0.96695  0
H  H6  1  0.35839418  0.13349176  0.40205359  1  0.048101  0  0.114942  0.105666  0  1.013532  0
H  H7  1  0.60428424  0.13425701  0.57324186  1  0.137768  0  0.112976  0.130748  0  1.034075  0
H  H8  1  0.60820780  0.28509141  0.57596605  1  0.110938  0  0.127999  0.101022  0  0.968892  0
H  H9  1  0.37285929  0.28115762  0.41451109  1  0.14187  0  0.131683  0.116362  0  0.981055  0
H  H10  1  0.50832705  0.61657909  0.26573438  1  0.103057  0  0.104932  0.108642  0  0.996281  0
H  H11  1  0.50678916  0.61034885  0.12655884  1  0.096954  0  0.102319  0.115079  0  1.047769  0
H  H12  1  0.49131687  0.34478968  0.12046294  1  0.008894  0  0.098233  0.07769  0  1.039846  0
H  H13  1  0.48918802  0.35477156  0.25686038  1  0.078484  0  0.104516  0.108684  0  0.997976  0
H  H14  1  0.50537147  0.65492187  0.88228214  1  0.011319  0  0.09743  0.077261  0  1.040036  0
H  H15  1  0.49750184  0.38947130  0.87696339  1  0.099221  0  0.102033  0.114812  0  1.049148  0
H  H16  1  0.49852857  0.38268748  0.73782950  1  0.090044  0  0.102461  0.105643  0  1.000076  0
H  H17  1  0.50336602  0.64444763  0.74580437  1  0.090345  0  0.10236  0.106455  0  1.000994  0
H  H18  1  0.64335862  0.96629294  0.58960176  1  0.597958  0  0.327263  0.354248  0  0.920773  0
H  H19  1  0.35955317  0.03360564  0.40888187  1  0.621381  0  0.328153  0.354616  0  0.920365  0
H  H20  1  0.49159743  0.35287419  0.03162874  1  0.5945  0  0.315288  0.342023  0  0.949131  0
H  H21  1  0.50831366  0.64724148  0.97157746  1  0.609862  0  0.315044  0.34133  0  0.948148  0
H  H22  1  0.04097905  0.33221150  0.56820014  1  0.595111  0  0.32971  0.365891  0  0.886528  0
H  H23  1  0.96947370  0.67468843  0.58233715  1  0.606704  0  0.322975  0.359069  0  0.903816  0
C  C24  1  0.49807809  0.49064510  0.35514309  1  1.562375  0  0.214266  0.591841  0  4.173185  0
C  C25  1  0.29417611  0.49567422  0.49695445  1  1.624645  0  0.206878  0.595281  0  4.231633  0
C  C26  1  0.50047265  0.50811921  0.64784271  1  1.548626  0  0.210428  0.589119  0  4.180628  0
C  C27  1  0.70373291  0.50523346  0.49991103  1  1.676244  0  0.207714  0.596915  0  4.228957  0
C  C28  1  0.44520982  0.75194273  0.46319416  1  0.486984  0  0.060615  0.103085  0  3.927652  0
C  C29  1  0.44889760  0.83655009  0.46399556  1  0.014284  0  -0.079948  -0.160546  0  3.912669  0
C  C30  1  0.52014932  0.88387937  0.51249984  1  0.036424  0  0.007328  0.073826  0  4.000479  0
C  C31  1  0.58550130  0.83872967  0.55678211  1  -0.098767  0  -0.084917  -0.189249  0  3.963886  0
C  C32  1  0.57764442  0.75403093  0.55211985  1  0.580165  0  0.063423  0.120723  0  3.922206  0
C  C33  1  0.52973102  0.97352724  0.51918975  1  0.522099  0  0.073554  0.135399  0  3.990115  0
C  C34  1  0.47223736  0.02624338  0.48004548  1  0.472274  0  0.075315  0.138271  0  3.991542  0
C  C35  1  0.41694197  0.16117819  0.44238610  1  -0.104433  0  -0.083786  -0.187529  0  3.957341  0
C  C36  1  0.48172745  0.11592956  0.48695510  1  0.038043  0  0.005384  0.069774  0  4.005579  0
C  C37  1  0.55198900  0.16312088  0.53636922  1  -0.001374  0  -0.082349  -0.162878  0  3.920911  0
C  C38  1  0.55461273  0.24777387  0.53817051  1  0.481206  0  0.05749  0.100207  0  3.937266  0
C  C39  1  0.42383933  0.24599387  0.44777099  1  0.569967  0  0.063002  0.119547  0  3.904784  0
C  C40  1  0.49815640  0.48625677  0.27070258  1  0.018017  0  -0.019793  -0.032613  0  3.972723  0
C  C41  1  0.50367926  0.55745447  0.23248252  1  0.007781  0  -0.083522  -0.08606  0  3.985614  0
C  C42  1  0.50324872  0.55381698  0.15388199  1  -0.042083  0  -0.093186  -0.120674  0  3.95044  0
C  C43  1  0.49867209  0.47785486  0.10902450  1  0.029264  0  -0.013876  0.037881  0  4.009178  0
C  C44  1  0.49417236  0.40669808  0.14916009  1  -0.035917  0  -0.101028  -0.155001  0  4.01783  0
C  C45  1  0.49320733  0.41055164  0.22771546  1  -0.103664  0  -0.085563  -0.080909  0  4.000681  0
C  C46  1  0.49868696  0.46914792  0.02579379  1  0.465402  0  0.062288  0.128241  0  4.0002  0
C  C47  1  0.50196325  0.53087142  0.97735927  1  0.456549  0  0.060758  0.124132  0  4.002079  0
C  C48  1  0.50373127  0.59296701  0.85374204  1  -0.130034  0  -0.102277  -0.155164  0  4.02155  0
C  C49  1  0.50177063  0.52198105  0.89415943  1  0.004278  0  -0.013759  0.039263  0  4.009875  0
C  C50  1  0.49964914  0.44589624  0.84946805  1  -0.045758  0  -0.095382  -0.122249  0  3.95267  0
C  C51  1  0.50012201  0.44197113  0.77087054  1  -0.007871  0  -0.086529  -0.090084  0  3.995889  0
C  C52  1  0.50145936  0.51297320  0.73232590  1  0.037744  0  -0.022858  -0.035166  0  3.979153  0
C  C53  1  0.50293197  0.58879127  0.77516044  1  -0.004211  0  -0.089137  -0.086236  0  4.010473  0
C  C54  1  0.10551618  0.42893428  0.48779847  1  -0.021167  0  -0.026181  -0.120117  0  4.021156  0
C  C55  1  0.89233535  0.57208623  0.49650099  1  0.008791  0  -0.024724  -0.113489  0  4.013486  0
C  C56  1  0.17791220  0.49421552  0.49148298  1  -0.106202  0  -0.006981  -0.093025  0  3.894754  0
C  C57  1  0.81992552  0.50674029  0.49384604  1  -0.179822  0  -0.006651  -0.093413  0  3.886823  0
C  C58  1  0.99651274  0.54330694  0.49471268  1  -0.11808  0  -0.031004  -0.060111  0  4.101141  0
C  C59  1  0.00126160  0.45756023  0.49021283  1  -0.169002  0  -0.029897  -0.05748  0  4.098102  0
C  C60  1  0.12912989  0.33999851  0.48030021  1  1.537859  0  0.23472  0.608537  0  4.098883  0
C  C61  1  0.86866165  0.66090296  0.49967987  1  1.541405  0  0.23027  0.597051  0  4.104166  0
S  S62  1  0.12056066  0.58878207  0.49528756  1  0.25672  0  0.08753  0.126283  0  2.81774  0
S  S63  1  0.87719518  0.41204082  0.48713164  1  0.27365  0  0.088494  0.129751  0  2.809632  0
N  N64  1  0.50775223  0.71084409  0.50662475  1  -1.266182  0  -0.320679  -0.195736  0  3.517806  0
N  N65  1  0.49222636  0.28901127  0.49473971  1  -1.257948  0  -0.323265  -0.200628  0  3.523036  0
O  O66  1  0.47843156  0.42429235  0.38577043  1  -1.16599  0  -0.318289  -0.549429  0  2.333233  0
O  O67  1  0.51786732  0.56051033  0.39056421  1  -1.164067  0  -0.317845  -0.5451  0  2.329635  0
O  O68  1  0.33903267  0.56466153  0.48735011  1  -1.158602  0  -0.319039  -0.547212  0  2.313283  0
O  O69  1  0.33685613  0.43046199  0.51185908  1  -1.150845  0  -0.307185  -0.522683  0  2.301477  0
O  O70  1  0.48210058  0.57364198  0.61705625  1  -1.168386  0  -0.321984  -0.553009  0  2.32827  0
O  O71  1  0.51784573  0.43869556  0.61268181  1  -1.170678  0  -0.320819  -0.552672  0  2.335697  0
O  O72  1  0.65918254  0.43500275  0.48440747  1  -1.161084  0  -0.318841  -0.544966  0  2.308354  0
O  O73  1  0.66054835  0.57170960  0.52066064  1  -1.162904  0  -0.306507  -0.527035  0  2.322648  0
O  O74  1  0.60270422  0.00893823  0.57004912  1  -1.111243  0  -0.345386  -0.422506  0  2.351645  0
O  O75  1  0.39910197  0.99088553  0.42937590  1  -1.137503  0  -0.343477  -0.419737  0  2.35208  0
O  O76  1  0.49492688  0.39014617  0.99189257  1  -1.121595  0  -0.356806  -0.432499  0  2.363464  0
O  O77  1  0.50542189  0.60991152  0.01125080  1  -1.136013  0  -0.356873  -0.431796  0  2.360912  0
O  O78  1  0.07784792  0.29530689  0.53175488  1  -1.083679  0  -0.344627  -0.48361  0  2.173241  0
O  O79  1  0.18322560  0.30585299  0.43191530  1  -1.112917  0  -0.271826  -0.445133  0  2.076174  0
O  O80  1  0.92680912  0.70916754  0.55303876  1  -1.103103  0  -0.3522  -0.491967  0  2.177725  0
O  O81  1  0.80834279  0.69217948  0.45901601  1  -1.087714  0  -0.271398  -0.430024  0  2.057141  0
