# generated using pymatgen
data_CoH4(C2O)4
_symmetry_space_group_name_H-M   'P 1'
_cell_length_a   4.61222277
_cell_length_b   5.81259672
_cell_length_c   13.69344789
_cell_angle_alpha   88.31310555
_cell_angle_beta   90.62246189
_cell_angle_gamma   109.04316728
_symmetry_Int_Tables_number   1
_chemical_formula_structural   CoH4(C2O)4
_chemical_formula_sum   'Co2 H8 C16 O8'
_cell_volume   346.86613725
_cell_formula_units_Z   2
loop_
 _symmetry_equiv_pos_site_id
 _symmetry_equiv_pos_as_xyz
  1  'x, y, z'
loop_
 _atom_site_type_symbol
 _atom_site_label
 _atom_site_symmetry_multiplicity
 _atom_site_fract_x
 _atom_site_fract_y
 _atom_site_fract_z
 _atom_site_occupancy
 _atom_site_hle17_ddec_charge
 _atom_site_hle17_ddec_spin_density
 _atom_site_hle17_ddec_sum_bond_order
 _atom_site_hle17_magmom
 _atom_site_hse06_10hf_ddec_charge
 _atom_site_hse06_10hf_ddec_spin_density
 _atom_site_hse06_10hf_ddec_sum_bond_order
 _atom_site_hse06_10hf_magmom
 _atom_site_hse06_ddec_charge
 _atom_site_hse06_ddec_spin_density
 _atom_site_hse06_ddec_sum_bond_order
 _atom_site_hse06_magmom
 _atom_site_pbe_cm5_charge
 _atom_site_pbe_ddec_charge
 _atom_site_pbe_ddec_spin_density
 _atom_site_pbe_ddec_sum_bond_order
 _atom_site_pbe_magmom
Co  Co0  1  0.77034133  0.74646137  0.44650709  1  1.186738  -2.831824  1.833757  -2.6  1.172044  -2.814766  2.229413  -2.658  1.245406  -2.868172  2.156294  -2.735  0.684647  1.111562  -2.759503  2.285617  -2.576
Co  Co1  1  0.22975728  0.25346929  0.55348977  1  1.186653  2.831801  1.833499  2.6  1.171906  2.814756  2.229155  2.658  1.245292  2.868171  2.156039  2.735  0.684572  1.111411  2.759485  2.285352  2.576
H  H2  1  0.00217467  0.56560609  0.18072574  1  0.101505  -9e-05  0.953708  0.0  0.111006  -5.3e-05  1.014185  0.0  0.114043  -2e-06  1.013355  0.0  0.105854  0.108903  -0.000112  1.014716  0.0
H  H3  1  0.50136148  0.92920928  0.18697574  1  0.102938  -0.000132  0.950028  0.0  0.112644  -6.7e-05  1.009765  0.0  0.115622  -4e-06  1.009098  0.0  0.106246  0.110538  -0.000145  1.010255  0.0
H  H4  1  0.99786427  0.43445906  0.81938557  1  0.101082  9.3e-05  0.95377  0.0  0.11063  5.3e-05  1.014297  0.0  0.113648  2e-06  1.013467  0.0  0.105733  0.108544  0.000112  1.014777  0.0
H  H5  1  0.49858168  0.07081643  0.81291288  1  0.102752  0.00013  0.950214  0.0  0.112503  6.6e-05  1.009924  0.0  0.115458  4e-06  1.009289  0.0  0.10616  0.110399  0.000144  1.010392  0.0
H  H6  1  0.13546034  0.41484528  0.02338415  1  0.08087  -3.9e-05  0.980213  0.0  0.09371  3e-06  1.03913  0.0  0.096014  1e-06  1.038488  0.0  0.097946  0.092056  1.1e-05  1.039766  0.0
H  H7  1  0.37652127  0.09285956  0.02657535  1  0.079611  -2.5e-05  0.975178  0.0  0.092879  -1.1e-05  1.033313  0.0  0.095369  -7e-06  1.032466  0.0  0.09781  0.091103  -1.4e-05  1.03403  0.0
H  H8  1  0.86424835  0.58530990  0.97666538  1  0.081098  3.7e-05  0.980124  0.0  0.093951  -3e-06  1.038989  0.0  0.096262  -1e-06  1.038336  0.0  0.097933  0.092303  -1.1e-05  1.039641  0.0
H  H9  1  0.62314036  0.90725943  0.97336477  1  0.079982  2.7e-05  0.975104  0.0  0.092995  1.1e-05  1.033459  0.0  0.095397  7e-06  1.032714  0.0  0.097787  0.091215  1.3e-05  1.034201  0.0
C  C10  1  0.10501269  0.45149949  0.35926885  1  0.693508  0.007598  3.777711  0.011  0.650826  0.002985  4.073709  0.004  0.691881  0.001847  4.061699  0.003  0.233289  0.619054  0.005465  4.082799  0.008
C  C11  1  0.38668406  0.02723389  0.36340211  1  0.698511  0.010276  3.776978  0.015  0.65562  0.002064  4.072862  0.003  0.698305  0.000608  4.058985  0.001  0.234188  0.621738  0.005472  4.084011  0.008
C  C12  1  0.89512387  0.54844770  0.64077471  1  0.692902  -0.007592  3.778537  -0.011  0.650081  -0.002983  4.074831  -0.004  0.691152  -0.001846  4.06282  -0.003  0.233042  0.618291  -0.005458  4.083908  -0.008
C  C13  1  0.61340745  0.97266545  0.63655329  1  0.698379  -0.010301  3.777037  -0.015  0.655804  -0.002076  4.072528  -0.003  0.69843  -0.000615  4.058716  -0.001  0.234134  0.621924  -0.005489  4.083656  -0.008
C  C14  1  0.17911895  0.33527352  0.27108098  1  -0.043339  -0.001209  3.660469  -0.003  -0.032869  -0.000794  3.890892  -0.002  -0.037209  -0.000598  3.908455  -0.001  -0.001325  -0.030783  -0.000542  3.881162  -0.002
C  C15  1  0.31980614  0.15243461  0.27296608  1  -0.043497  -0.003483  3.659127  -0.006  -0.033611  -0.00159  3.89061  -0.003  -0.03838  -0.001038  3.908154  -0.002  -0.00026  -0.030902  -0.00195  3.880905  -0.004
C  C16  1  0.82100227  0.66471064  0.72894772  1  -0.042996  0.001253  3.660389  0.003  -0.032423  0.000794  3.890753  0.002  -0.036762  0.000601  3.908308  0.001  -0.001189  -0.03034  0.000541  3.881001  0.002
C  C17  1  0.68027242  0.84755311  0.72701431  1  -0.043636  0.003435  3.659183  0.006  -0.033816  0.001589  3.890564  0.003  -0.038566  0.001037  3.908113  0.002  -0.000274  -0.031117  0.001948  3.880853  0.004
C  C18  1  0.11265656  0.42624306  0.18058297  1  -0.070723  -0.000411  3.73508  -0.001  -0.093472  -5e-05  3.984553  0.0  -0.094352  -4.5e-05  4.004642  0.0  -0.082508  -0.093029  5e-05  3.971671  0.0
C  C19  1  0.39123450  0.06887682  0.18420948  1  -0.071697  0.001077  3.730774  0.001  -0.09469  0.000214  3.981126  0.0  -0.09534  0.000139  4.00132  0.0  -0.082495  -0.094618  0.000598  3.968185  0.001
C  C20  1  0.88734515  0.57384928  0.81948137  1  -0.070183  0.000359  3.735806  0.001  -0.093036  5e-05  3.985427  0.0  -0.093894  4.3e-05  4.005516  0.0  -0.082435  -0.092584  -5.1e-05  3.972525  0.0
C  C21  1  0.60874144  0.93115781  0.81573538  1  -0.071497  -0.001022  3.731315  -0.001  -0.094527  -0.000214  3.98167  0.0  -0.095153  -0.000139  4.00181  0.0  -0.082408  -0.094452  -0.000598  3.968705  -0.001
C  C22  1  0.18515848  0.34129289  0.09322163  1  -0.077371  0.001922  3.794447  0.002  -0.091987  0.000682  4.045981  0.001  -0.094025  0.000367  4.067713  0.0  -0.094409  -0.090858  0.001531  4.031538  0.002
C  C23  1  0.32310579  0.16082513  0.09505723  1  -0.068664  0.000263  3.791084  0.0  -0.083257  0.000261  4.042484  0.0  -0.085565  0.000111  4.0642  0.0  -0.090701  -0.081685  0.000672  4.027952  0.001
C  C24  1  0.81471314  0.65880092  0.90680594  1  -0.078055  -0.001867  3.795326  -0.002  -0.092669  -0.000682  4.046895  -0.001  -0.094702  -0.000367  4.06859  0.0  -0.094649  -0.091566  -0.001532  4.032482  -0.002
C  C25  1  0.67670158  0.83927776  0.90492124  1  -0.068793  -0.000319  3.7915  0.0  -0.083205  -0.000262  4.04288  0.0  -0.085447  -0.000113  4.064617  0.0  -0.090565  -0.081654  -0.000675  4.028373  -0.001
O  O26  1  0.88487385  0.53614424  0.35027924  1  -0.59046  -0.035483  2.097654  -0.06  -0.556343  -0.026376  2.36407  -0.04  -0.593572  -0.021282  2.353246  -0.031  -0.282726  -0.526516  -0.031043  2.37145  -0.049
O  O27  1  0.60907989  0.94531657  0.35742297  1  -0.595189  -0.052104  2.138167  -0.088  -0.561304  -0.037454  2.41259  -0.058  -0.600628  -0.028777  2.401089  -0.043  -0.288511  -0.529255  -0.046991  2.419817  -0.075
O  O28  1  0.11519589  0.46368737  0.64979121  1  -0.590196  0.035497  2.097296  0.06  -0.556014  0.026376  2.363649  0.04  -0.59322  0.021277  2.352771  0.031  -0.282638  -0.526229  0.031048  2.371144  0.049
O  O29  1  0.39096670  0.05453259  0.64251074  1  -0.595173  0.05214  2.138333  0.088  -0.561368  0.03748  2.412646  0.058  -0.600747  0.028796  2.401303  0.043  -0.2885  -0.52931  0.047027  2.419873  0.075
O  O30  1  0.27134731  0.47648007  0.43721537  1  -0.691388  0.021264  2.229074  0.03  -0.672553  0.014177  2.543431  0.018  -0.711588  0.010168  2.525493  0.011  -0.3188  -0.639637  0.019277  2.553783  0.026
O  O31  1  0.21467780  0.99379738  0.43942835  1  -0.691441  -0.011443  2.239063  -0.019  -0.668657  -0.007209  2.544236  -0.01  -0.706006  -0.004882  2.526042  -0.005  -0.318156  -0.637642  -0.01092  2.555626  -0.017
O  O32  1  0.72891185  0.52350215  0.56281140  1  -0.691041  -0.021262  2.229262  -0.03  -0.672193  -0.014178  2.543588  -0.018  -0.711187  -0.010172  2.525598  -0.011  -0.318655  -0.63928  -0.01928  2.553942  -0.026
O  O33  1  0.78541448  0.00610359  0.56053215  1  -0.69119  0.011438  2.23931  0.019  -0.668607  0.007209  2.544445  0.01  -0.705935  0.004881  2.526263  0.005  -0.318138  -0.637583  0.010918  2.55581  0.017
