# generated using pymatgen
data_UH5C6N(O2F)2
_symmetry_space_group_name_H-M   'P 1'
_cell_length_a   7.35317507
_cell_length_b   8.71757972
_cell_length_c   13.04003354
_cell_angle_alpha   89.99971026
_cell_angle_beta   90.00004764
_cell_angle_gamma   89.99967300
_symmetry_Int_Tables_number   1
_chemical_formula_structural   UH5C6N(O2F)2
_chemical_formula_sum   'U4 H20 C24 N4 O16 F8'
_cell_volume   835.89079395
_cell_formula_units_Z   4
loop_
 _symmetry_equiv_pos_site_id
 _symmetry_equiv_pos_as_xyz
  1  'x, y, z'
loop_
 _atom_site_type_symbol
 _atom_site_label
 _atom_site_symmetry_multiplicity
 _atom_site_fract_x
 _atom_site_fract_y
 _atom_site_fract_z
 _atom_site_occupancy
 _atom_site_hle17_bader_spin_density
 _atom_site_hle17_ddec_charge
 _atom_site_hle17_ddec_spin_density
 _atom_site_hle17_ddec_sum_bond_order
 _atom_site_hle17_magmom
 _atom_site_hse06_10hf_bader_spin_density
 _atom_site_hse06_10hf_ddec_charge
 _atom_site_hse06_10hf_ddec_spin_density
 _atom_site_hse06_10hf_ddec_sum_bond_order
 _atom_site_hse06_10hf_magmom
 _atom_site_hse06_bader_spin_density
 _atom_site_hse06_ddec_charge
 _atom_site_hse06_ddec_spin_density
 _atom_site_hse06_ddec_sum_bond_order
 _atom_site_hse06_magmom
 _atom_site_pbe_bader_spin_density
 _atom_site_pbe_cm5_charge
 _atom_site_pbe_ddec_charge
 _atom_site_pbe_ddec_spin_density
 _atom_site_pbe_ddec_sum_bond_order
 _atom_site_pbe_magmom
U  U0  1  0.25000083  0.92814048  0.48883542  1  0  2.578243  0  4.118986  0  0  2.652889  0  4.762891  0  0  2.764151  0  4.714229  0  0  2.109003  2.572397  0  4.799048  0
U  U1  1  0.24999965  0.57186425  0.98884854  1  0  2.578085  0  4.118535  0  0  2.65273  0  4.762482  0  0  2.764173  0  4.713596  0  0  2.108867  2.572462  0  4.798272  0
U  U2  1  0.74999995  0.07186481  0.51115058  1  0  2.578058  0  4.118671  0  0  2.652869  0  4.762422  0  0  2.764169  0  4.713752  0  0  2.108892  2.572506  0  4.798362  0
U  U3  1  0.75000113  0.42814104  0.01116967  1  0  2.578184  0  4.11887  0  0  2.652811  0  4.762821  0  0  2.764153  0  4.714083  0  0  2.108933  2.572305  0  4.79902  0
H  H4  1  0.24999632  0.16370257  0.13485603  1  0  0.321625  0  0.896872  0  0  0.297831  0  0.961735  0  0  0.307819  0  0.953028  0  0  0.324216  0.290694  0  0.968011  0
H  H5  1  0.25000562  0.33629561  0.63485982  1  0  0.321573  0  0.89681  0  0  0.297797  0  0.961674  0  0  0.307785  0  0.952968  0  0  0.324191  0.290657  0  0.967954  0
H  H6  1  0.74999766  0.83630042  0.86514071  1  0  0.321597  0  0.896789  0  0  0.297808  0  0.961664  0  0  0.307797  0  0.952956  0  0  0.324208  0.290667  0  0.967944  0
H  H7  1  0.74999788  0.66370279  0.36514459  1  0  0.321647  0  0.89684  0  0  0.297864  0  0.961699  0  0  0.307851  0  0.952993  0  0  0.324229  0.290723  0  0.96798  0
H  H8  1  0.95486263  0.39994103  0.35964050  1  0  0.129879  0  0.967984  0  0  0.134805  0  1.031093  0  0  0.139182  0  1.029233  0  0  0.120068  0.131621  0  1.032654  0
H  H9  1  0.54514438  0.10005645  0.85964192  1  0  0.12982  0  0.967947  0  0  0.134762  0  1.031052  0  0  0.139152  0  1.029172  0  0  0.120016  0.131547  0  1.03264  0
H  H10  1  0.45485231  0.60006555  0.64035941  1  0  0.129801  0  0.967957  0  0  0.134756  0  1.031055  0  0  0.139132  0  1.029198  0  0  0.120027  0.131556  0  1.032623  0
H  H11  1  0.04513815  0.89993607  0.14036009  1  0  0.129818  0  0.967989  0  0  0.134802  0  1.031029  0  0  0.139178  0  1.029172  0  0  0.120082  0.131611  0  1.032596  0
H  H12  1  0.04512999  0.60005852  0.64035854  1  0  0.129893  0  0.967891  0  0  0.134806  0  1.03101  0  0  0.139184  0  1.029149  0  0  0.120066  0.131607  0  1.032581  0
H  H13  1  0.45486592  0.89993851  0.14035712  1  0  0.129894  0  0.967906  0  0  0.13483  0  1.031016  0  0  0.139208  0  1.029154  0  0  0.120079  0.131622  0  1.032602  0
H  H14  1  0.54513759  0.39993859  0.35963733  1  0  0.129909  0  0.967914  0  0  0.134838  0  1.031015  0  0  0.139215  0  1.029156  0  0  0.120078  0.131654  0  1.032571  0
H  H15  1  0.95486671  0.10006004  0.85964279  1  0  0.129882  0  0.967885  0  0  0.134801  0  1.031015  0  0  0.13918  0  1.029154  0  0  0.120055  0.131601  0  1.032583  0
H  H16  1  0.96745357  0.22949978  0.20488735  1  0  0.106018  0  0.938755  0  0  0.113395  0  1.00002  0  0  0.116736  0  0.996823  0  0  0.139742  0.110924  0  1.002321  0
H  H17  1  0.53255051  0.27049887  0.70488896  1  0  0.106026  0  0.938695  0  0  0.113419  0  0.999948  0  0  0.11676  0  0.996751  0  0  0.139756  0.110944  0  1.00225  0
H  H18  1  0.46745186  0.77051018  0.79511102  1  0  0.106113  0  0.938754  0  0  0.113499  0  0.999984  0  0  0.116842  0  0.996784  0  0  0.139792  0.111022  0  1.002284  0
H  H19  1  0.03254291  0.72949486  0.29511611  1  0  0.106069  0  0.938704  0  0  0.113456  0  0.999968  0  0  0.116801  0  0.996766  0  0  0.139773  0.110986  0  1.002268  0
H  H20  1  0.03253905  0.77050206  0.79511092  1  0  0.106073  0  0.938668  0  0  0.113431  0  0.99997  0  0  0.116773  0  0.99677  0  0  0.139772  0.110954  0  1.00227  0
H  H21  1  0.46745572  0.72949838  0.29511238  1  0  0.106038  0  0.938724  0  0  0.113433  0  0.999983  0  0  0.116774  0  0.996784  0  0  0.139774  0.110964  0  1.002282  0
H  H22  1  0.53254076  0.22949626  0.20488341  1  0  0.106036  0  0.938739  0  0  0.11345  0  0.999963  0  0  0.116798  0  0.996751  0  0  0.139748  0.110977  0  1.002264  0
H  H23  1  0.96746195  0.27050125  0.70488983  1  0  0.106063  0  0.93868  0  0  0.113435  0  0.999972  0  0  0.116777  0  0.996772  0  0  0.139789  0.11096  0  1.002275  0
C  C24  1  0.25000213  0.52985115  0.45721961  1  0  0.69674  0  3.843453  0  0  0.652736  0  4.148979  0  0  0.689248  0  4.135912  0  0  0.248664  0.627595  0  4.156884  0
C  C25  1  0.25000239  0.97014922  0.95722525  1  0  0.696672  0  3.843521  0  0  0.652691  0  4.149039  0  0  0.689209  0  4.135968  0  0  0.248604  0.627555  0  4.156946  0
C  C26  1  0.74999321  0.47014955  0.54277790  1  0  0.696606  0  3.843519  0  0  0.65267  0  4.148953  0  0  0.689183  0  4.135883  0  0  0.24862  0.627526  0  4.156874  0
C  C27  1  0.75000383  0.02985033  0.04277993  1  0  0.69672  0  3.843378  0  0  0.65278  0  4.14881  0  0  0.689299  0  4.135733  0  0  0.248699  0.627638  0  4.156712  0
C  C28  1  0.25000109  0.41689008  0.36965868  1  0  0.03911  0  3.654524  0  0  0.051088  0  3.890933  0  0  0.054802  0  3.905202  0  0  0.036314  0.048395  0  3.881758  0
C  C29  1  0.25000527  0.08310748  0.86966409  1  0  0.039047  0  3.654584  0  0  0.051019  0  3.891019  0  0  0.054726  0  3.905295  0  0  0.03629  0.048328  0  3.881825  0
C  C30  1  0.74999290  0.58311062  0.63033960  1  0  0.039067  0  3.654607  0  0  0.051073  0  3.890969  0  0  0.05478  0  3.905252  0  0  0.036264  0.048376  0  3.881794  0
C  C31  1  0.75000231  0.91688633  0.13033725  1  0  0.039043  0  3.654489  0  0  0.051012  0  3.890921  0  0  0.054722  0  3.905188  0  0  0.03626  0.048324  0  3.881737  0
C  C32  1  0.08552670  0.36637318  0.32744411  1  0  -0.1176  0  3.651469  0  0  -0.140319  0  3.90353  0  0  -0.148087  0  3.921558  0  0  -0.055318  -0.135443  0  3.89178  0
C  C33  1  0.41447960  0.13362470  0.82744943  1  0  -0.117474  0  3.651195  0  0  -0.140207  0  3.903264  0  0  -0.147978  0  3.921277  0  0  -0.05525  -0.135303  0  3.891512  0
C  C34  1  0.58552231  0.63363291  0.67255409  1  0  -0.117426  0  3.651242  0  0  -0.140213  0  3.903334  0  0  -0.147982  0  3.921366  0  0  -0.055263  -0.135325  0  3.891584  0
C  C35  1  0.91447567  0.86636602  0.17255429  1  0  -0.117423  0  3.651355  0  0  -0.140189  0  3.903433  0  0  -0.147953  0  3.921458  0  0  -0.055282  -0.135303  0  3.891685  0
C  C36  1  0.91446729  0.63362752  0.67255340  1  0  -0.117549  0  3.651415  0  0  -0.14027  0  3.903477  0  0  -0.148029  0  3.921488  0  0  -0.055286  -0.135374  0  3.891709  0
C  C37  1  0.58552798  0.86636797  0.17255191  1  0  -0.117554  0  3.651298  0  0  -0.140294  0  3.903402  0  0  -0.148056  0  3.921418  0  0  -0.055285  -0.135394  0  3.891666  0
C  C38  1  0.41447167  0.36637352  0.32744265  1  0  -0.11758  0  3.651331  0  0  -0.140309  0  3.9034  0  0  -0.14808  0  3.921431  0  0  -0.055323  -0.135431  0  3.891645  0
C  C39  1  0.08553191  0.13362780  0.82744935  1  0  -0.117474  0  3.651205  0  0  -0.140206  0  3.903318  0  0  -0.147968  0  3.921333  0  0  -0.055234  -0.135311  0  3.891557  0
C  C40  1  0.08955786  0.27211797  0.24225661  1  0  0.177156  0  3.583287  0  0  0.135856  0  3.837601  0  0  0.146057  0  3.849429  0  0  0.094275  0.129391  0  3.829601  0
C  C41  1  0.41044424  0.22788284  0.74226007  1  0  0.177132  0  3.583162  0  0  0.135825  0  3.837498  0  0  0.146026  0  3.849326  0  0  0.094255  0.129359  0  3.82949  0
C  C42  1  0.58955297  0.72789154  0.75774159  1  0  0.177077  0  3.583207  0  0  0.135792  0  3.837571  0  0  0.145993  0  3.849396  0  0  0.094228  0.12933  0  3.829559  0
C  C43  1  0.91043834  0.77211248  0.25774211  1  0  0.177058  0  3.583458  0  0  0.135744  0  3.837833  0  0  0.145942  0  3.849664  0  0  0.09418  0.129282  0  3.82983  0
C  C44  1  0.91043204  0.72788387  0.75773937  1  0  0.177118  0  3.583312  0  0  0.135824  0  3.837676  0  0  0.146026  0  3.849504  0  0  0.094259  0.129359  0  3.829667  0
C  C45  1  0.58956062  0.77211441  0.25774050  1  0  0.177166  0  3.583187  0  0  0.13584  0  3.837573  0  0  0.14604  0  3.849402  0  0  0.094239  0.129375  0  3.82957  0
C  C46  1  0.41043693  0.27211719  0.24225438  1  0  0.177057  0  3.583394  0  0  0.135743  0  3.837686  0  0  0.145943  0  3.849522  0  0  0.094225  0.129283  0  3.82968  0
C  C47  1  0.08956653  0.22788477  0.74226000  1  0  0.177173  0  3.583136  0  0  0.135858  0  3.837528  0  0  0.146059  0  3.849355  0  0  0.094261  0.129389  0  3.829526  0
N  N48  1  0.24999750  0.23071290  0.20103443  1  0  -0.211563  0  3.466758  0  0  -0.139224  0  3.687479  0  0  -0.153318  0  3.699289  0  0  -0.330561  -0.130108  0  3.679686  0
N  N49  1  0.25000589  0.26928479  0.70104075  1  0  -0.211568  0  3.46682  0  0  -0.139233  0  3.687515  0  0  -0.153329  0  3.699333  0  0  -0.330606  -0.130119  0  3.679726  0
N  N50  1  0.74999648  0.76929010  0.79896155  1  0  -0.2116  0  3.466741  0  0  -0.139263  0  3.687411  0  0  -0.153357  0  3.699222  0  0  -0.330611  -0.130153  0  3.679619  0
N  N51  1  0.74999897  0.73070902  0.29896443  1  0  -0.211681  0  3.466759  0  0  -0.139321  0  3.687473  0  0  -0.153414  0  3.699284  0  0  -0.330558  -0.130208  0  3.679692  0
O  O52  1  0.25000110  0.87712237  0.62324314  1  0  -0.711435  0  1.531386  0  0  -0.741073  0  1.825895  0  0  -0.764288  0  1.813306  0  0  -0.753381  -0.726585  0  1.835463  0
O  O53  1  0.25000022  0.62287823  0.12324255  1  0  -0.711337  0  1.531776  0  0  -0.741001  0  1.826379  0  0  -0.764251  0  1.813756  0  0  -0.753558  -0.726579  0  1.835908  0
O  O54  1  0.74999968  0.12288406  0.37675590  1  0  -0.711422  0  1.531826  0  0  -0.74112  0  1.826385  0  0  -0.764349  0  1.813801  0  0  -0.753622  -0.726651  0  1.83589  0
O  O55  1  0.75000192  0.37711559  0.87675265  1  0  -0.711414  0  1.531009  0  0  -0.741057  0  1.825488  0  0  -0.764296  0  1.812893  0  0  -0.75327  -0.726567  0  1.835055  0
O  O56  1  0.25000057  0.97890851  0.35448522  1  0  -0.707164  0  1.551581  0  0  -0.734193  0  1.841051  0  0  -0.758179  0  1.83016  0  0  -0.7561  -0.71928  0  1.849651  0
O  O57  1  0.24999973  0.52110525  0.85446784  1  0  -0.707144  0  1.550744  0  0  -0.734188  0  1.840149  0  0  -0.758225  0  1.829237  0  0  -0.755799  -0.719312  0  1.848677  0
O  O58  1  0.75000158  0.02109333  0.64552532  1  0  -0.707074  0  1.550813  0  0  -0.734167  0  1.840219  0  0  -0.758175  0  1.829334  0  0  -0.755773  -0.719268  0  1.848764  0
O  O59  1  0.75000105  0.47890692  0.14551433  1  0  -0.707129  0  1.551899  0  0  -0.734129  0  1.841368  0  0  -0.758132  0  1.83046  0  0  -0.756163  -0.71922  0  1.849967  0
O  O60  1  0.25000300  0.67078373  0.42768187  1  0  -0.681614  0  2.023784  0  0  -0.670317  0  2.296278  0  0  -0.705133  0  2.287434  0  0  -0.371676  -0.644203  0  2.30081  0
O  O61  1  0.25000011  0.82921343  0.92768108  1  0  -0.681561  0  2.023593  0  0  -0.670264  0  2.296063  0  0  -0.70511  0  2.287217  0  0  -0.371667  -0.644183  0  2.300584  0
O  O62  1  0.74999914  0.32921468  0.57232100  1  0  -0.681534  0  2.023585  0  0  -0.670267  0  2.29601  0  0  -0.705089  0  2.28717  0  0  -0.371656  -0.644178  0  2.300544  0
O  O63  1  0.75000067  0.17078268  0.07232102  1  0  -0.681648  0  2.023615  0  0  -0.670373  0  2.296077  0  0  -0.705198  0  2.287226  0  0  -0.371723  -0.644256  0  2.300613  0
O  O64  1  0.25000099  0.48505282  0.54812590  1  0  -0.572344  0  1.976858  0  0  -0.527138  0  2.191798  0  0  -0.552671  0  2.181876  0  0  -0.272487  -0.508665  0  2.198025  0
O  O65  1  0.25000083  0.01494487  0.04812644  1  0  -0.572373  0  1.977006  0  0  -0.527202  0  2.191968  0  0  -0.552728  0  2.182034  0  0  -0.272532  -0.50874  0  2.198208  0
O  O66  1  0.74999435  0.51494329  0.45187698  1  0  -0.572287  0  1.976957  0  0  -0.527152  0  2.191921  0  0  -0.552671  0  2.181978  0  0  -0.27249  -0.508669  0  2.198134  0
O  O67  1  0.75000539  0.98505927  0.95187336  1  0  -0.572317  0  1.976917  0  0  -0.527128  0  2.191824  0  0  -0.552678  0  2.181917  0  0  -0.272471  -0.508655  0  2.198051  0
F  F68  1  0.44354301  0.13576973  0.52109056  1  0  -0.67124  0  0.878209  0  0  -0.665027  0  1.087912  0  0  -0.695096  0  1.076443  0  0  -0.415716  -0.641612  0  1.095127  0
F  F69  1  0.05646285  0.36422817  0.02109060  1  0  -0.671267  0  0.878206  0  0  -0.665038  0  1.087924  0  0  -0.695136  0  1.07644  0  0  -0.415743  -0.641635  0  1.095133  0
F  F70  1  0.94354226  0.86422773  0.47891011  1  0  -0.671239  0  0.878191  0  0  -0.66503  0  1.087895  0  0  -0.6951  0  1.076426  0  0  -0.415719  -0.641617  0  1.095114  0
F  F71  1  0.55646025  0.63576889  0.97890911  1  0  -0.671249  0  0.878182  0  0  -0.665021  0  1.087923  0  0  -0.695118  0  1.076438  0  0  -0.415731  -0.641617  0  1.095133  0
F  F72  1  0.55646185  0.86423097  0.47890848  1  0  -0.671241  0  0.878175  0  0  -0.665044  0  1.087896  0  0  -0.695114  0  1.076426  0  0  -0.415743  -0.641631  0  1.095114  0
F  F73  1  0.94353929  0.63576909  0.97890921  1  0  -0.671253  0  0.878181  0  0  -0.665031  0  1.087933  0  0  -0.695128  0  1.076448  0  0  -0.415734  -0.641626  0  1.09514  0
F  F74  1  0.05645989  0.13576723  0.52109277  1  0  -0.671246  0  0.878207  0  0  -0.665039  0  1.087924  0  0  -0.695108  0  1.076455  0  0  -0.415733  -0.641625  0  1.095142  0
F  F75  1  0.44353917  0.36422722  0.02109069  1  0  -0.671263  0  0.878209  0  0  -0.665021  0  1.087914  0  0  -0.69512  0  1.076433  0  0  -0.41573  -0.641618  0  1.095126  0
