# generated using pymatgen
data_FeCuH16C24S4(NCl)2
_symmetry_space_group_name_H-M   'P 1'
_cell_length_a   9.13500696
_cell_length_b   13.05927098
_cell_length_c   13.47988815
_cell_angle_alpha   76.46472581
_cell_angle_beta   70.17517748
_cell_angle_gamma   69.48136398
_symmetry_Int_Tables_number   1
_chemical_formula_structural   FeCuH16C24S4(NCl)2
_chemical_formula_sum   'Fe2 Cu2 H32 C48 S8 N4 Cl4'
_cell_volume   1404.66639588
_cell_formula_units_Z   2
loop_
 _symmetry_equiv_pos_site_id
 _symmetry_equiv_pos_as_xyz
  1  'x, y, z'
loop_
 _atom_site_type_symbol
 _atom_site_label
 _atom_site_symmetry_multiplicity
 _atom_site_fract_x
 _atom_site_fract_y
 _atom_site_fract_z
 _atom_site_occupancy
 _atom_site_hle17_ddec_charge
 _atom_site_hle17_ddec_spin_density
 _atom_site_hle17_ddec_sum_bond_order
 _atom_site_hle17_magmom
 _atom_site_hse06_10hf_ddec_charge
 _atom_site_hse06_10hf_ddec_spin_density
 _atom_site_hse06_10hf_ddec_sum_bond_order
 _atom_site_hse06_10hf_magmom
 _atom_site_hse06_ddec_charge
 _atom_site_hse06_ddec_spin_density
 _atom_site_hse06_ddec_sum_bond_order
 _atom_site_hse06_magmom
 _atom_site_pbe_cm5_charge
 _atom_site_pbe_ddec_charge
 _atom_site_pbe_ddec_spin_density
 _atom_site_pbe_ddec_sum_bond_order
 _atom_site_pbe_magmom
Fe  Fe0  1  0.00000051  0.99999897  0.00000009  1  0.108596  -0.100946  3.589971  -0.063  0.202775  -0.002826  4.004039  -0.002  0.209216  -0.001397  3.9889  -0.001  0.527386  0.206415  -0.008981  4.006379  -0.006
Fe  Fe1  1  0.00000077  0.49999960  0.49999922  1  0.105342  0.07591  3.594092  0.047  0.200067  8.1e-05  4.008062  0.0  0.206632  -4.8e-05  3.992884  0.0  0.526671  0.20357  0.001645  4.010591  0.001
Cu  Cu2  1  0.50000067  0.99999952  0.49999974  1  0.742597  0.603321  1.924053  0.417  0.721077  0.723516  2.345307  0.532  0.801745  0.804106  2.272854  0.608  0.609099  0.675732  0.672629  2.39297  0.488
Cu  Cu3  1  0.99999892  0.50000060  0.99999981  1  0.740699  -0.592833  1.922095  -0.414  0.720416  -0.721674  2.342182  -0.531  0.801196  -0.803024  2.269867  -0.608  0.609448  0.67493  -0.668491  2.389731  -0.486
H  H4  1  0.03713548  0.82881915  0.89210059  1  0.128983  5.3e-05  0.950372  0.0  0.140173  3.1e-05  1.010756  0.0  0.142757  2.7e-05  1.010346  0.0  0.106057  0.138498  3.3e-05  1.010978  0.0
H  H5  1  0.75806026  0.67137520  0.60770290  1  0.128821  -6e-05  0.951237  0.0  0.140683  -3e-05  1.010777  0.0  0.143286  -2.7e-05  1.010357  0.0  0.106324  0.138937  -3.1e-05  1.011066  0.0
H  H6  1  0.96286495  0.17118010  0.10789964  1  0.129011  5.7e-05  0.950393  0.0  0.140204  3.1e-05  1.010768  0.0  0.142785  2.7e-05  1.010362  0.0  0.106067  0.138534  3.3e-05  1.010974  0.0
H  H7  1  0.24194040  0.32862489  0.39229547  1  0.128798  -6.4e-05  0.951225  0.0  0.140647  -3e-05  1.010775  0.0  0.14325  -2.6e-05  1.010355  0.0  0.106324  0.1389  -3.1e-05  1.011064  0.0
H  H8  1  0.74651952  0.90967923  0.02967829  1  0.124727  -0.00065  0.934615  0.0  0.140419  -0.000882  0.983592  0.0  0.143958  -0.000704  0.98168  0.0  0.108505  0.137973  -0.000996  0.985095  0.0
H  H9  1  0.68584907  0.59055333  0.47018825  1  0.124498  0.000694  0.93324  0.0  0.140641  0.000891  0.981728  0.0  0.144153  0.000704  0.979859  0.0  0.109214  0.138193  0.001021  0.983203  0.0
H  H10  1  0.25348071  0.09032086  0.97032285  1  0.124707  -0.00065  0.934647  0.0  0.140412  -0.000883  0.983602  0.0  0.143953  -0.000704  0.981691  0.0  0.108506  0.137966  -0.000996  0.985106  0.0
H  H11  1  0.31415175  0.40944675  0.52981114  1  0.12449  0.000696  0.933275  0.0  0.140626  0.00089  0.981769  0.0  0.14414  0.000704  0.979898  0.0  0.109222  0.138179  0.001021  0.983244  0.0
H  H12  1  0.67901818  0.13280869  0.00759989  1  0.114332  2.4e-05  0.959744  0.0  0.129624  -2.2e-05  1.012616  0.0  0.131986  -1.4e-05  1.012508  0.0  0.105005  0.128032  -2.6e-05  1.012759  0.0
H  H13  1  0.81928240  0.36738889  0.49258850  1  0.114535  -2e-05  0.960387  0.0  0.129974  2e-05  1.013077  0.0  0.132354  1.2e-05  1.012939  0.0  0.104932  0.128338  2.9e-05  1.013263  0.0
H  H14  1  0.32098405  0.86719057  0.99240088  1  0.114301  2.3e-05  0.959769  0.0  0.129617  -2.2e-05  1.01261  0.0  0.131979  -1.4e-05  1.012503  0.0  0.104989  0.128024  -2.6e-05  1.012754  0.0
H  H15  1  0.18071752  0.63261119  0.50741062  1  0.114537  -1.8e-05  0.960385  0.0  0.129979  2e-05  1.013069  0.0  0.132359  1.2e-05  1.012932  0.0  0.104937  0.128344  2.9e-05  1.013254  0.0
H  H16  1  0.93187594  0.18918637  0.85519554  1  0.121571  3e-05  0.955801  0.0  0.130126  2.5e-05  1.020979  0.0  0.133324  1.9e-05  1.019382  0.0  0.103292  0.127944  2.9e-05  1.022097  0.0
H  H17  1  0.97609405  0.31092245  0.64493629  1  0.121402  -2.8e-05  0.956033  0.0  0.130754  -2e-05  1.020176  0.0  0.133923  -1.7e-05  1.018633  0.0  0.103706  0.128522  -2.3e-05  1.021365  0.0
H  H18  1  0.06812555  0.81081288  0.14480597  1  0.121591  3e-05  0.955731  0.0  0.130144  2.4e-05  1.020908  0.0  0.133342  1.9e-05  1.01931  0.0  0.103298  0.127963  2.9e-05  1.022026  0.0
H  H19  1  0.02390624  0.68907681  0.35506293  1  0.12141  -2.8e-05  0.956044  0.0  0.130758  -2.1e-05  1.020183  0.0  0.133925  -1.7e-05  1.018643  0.0  0.103716  0.128526  -2.3e-05  1.021371  0.0
H  H20  1  0.38618712  0.08732421  0.31695473  1  0.094939  -0.000233  0.968359  0.0  0.099887  -0.0003  1.043464  0.0  0.10272  -0.000324  1.04108  0.0  0.097397  0.09746  -0.000261  1.045847  0.0
H  H21  1  0.79128403  0.41288185  0.18282049  1  0.096369  0.000246  0.966016  0.0  0.100754  0.000307  1.041765  0.0  0.103598  0.000331  1.039332  0.0  0.097718  0.098307  0.000268  1.044198  0.0
H  H22  1  0.61381134  0.91267752  0.68304492  1  0.09494  -0.000236  0.968346  0.0  0.099875  -0.000299  1.043463  0.0  0.102708  -0.000324  1.041079  0.0  0.097388  0.097448  -0.000261  1.045847  0.0
H  H23  1  0.20871589  0.58711823  0.81717863  1  0.096378  0.000246  0.965994  0.0  0.100755  0.000306  1.041764  0.0  0.103599  0.000331  1.039329  0.0  0.097719  0.098309  0.000268  1.044196  0.0
H  H24  1  0.20799061  0.18110696  0.19511508  1  0.099986  -0.00027  0.955279  0.0  0.114081  -0.000417  1.008447  0.0  0.117049  -0.000326  1.007163  0.0  0.095874  0.111999  -0.000478  1.009404  0.0
H  H25  1  0.58502412  0.31919018  0.30486559  1  0.099878  0.000289  0.953679  0.0  0.114226  0.000413  1.006677  0.0  0.117162  0.000322  1.005415  0.0  0.095896  0.112147  0.000479  1.007605  0.0
H  H26  1  0.79200675  0.81889560  0.80488521  1  0.100003  -0.000274  0.955283  0.0  0.114085  -0.000417  1.008467  0.0  0.117054  -0.000326  1.007182  0.0  0.095852  0.112003  -0.000478  1.009425  0.0
H  H27  1  0.41497870  0.68080908  0.69513343  1  0.099872  0.000287  0.95369  0.0  0.114224  0.000413  1.006674  0.0  0.117162  0.000322  1.005414  0.0  0.095897  0.112143  0.000479  1.007602  0.0
H  H28  1  0.90888809  0.23464296  0.26728116  1  0.086615  -4e-06  0.979466  0.0  0.098603  1e-06  1.042901  0.0  0.100461  -2e-06  1.043313  0.0  0.095565  0.097263  5e-06  1.042726  0.0
H  H29  1  0.41171826  0.26556858  0.23287475  1  0.085896  5e-06  0.978907  0.0  0.097702  -1e-06  1.042621  0.0  0.099616  2e-06  1.042929  0.0  0.095011  0.096328  -6e-06  1.042515  0.0
H  H30  1  0.09110961  0.76535712  0.73272018  1  0.086646  -6e-06  0.979457  0.0  0.098634  1e-06  1.042883  0.0  0.100492  -2e-06  1.043295  0.0  0.095574  0.097287  5e-06  1.042717  0.0
H  H31  1  0.58828218  0.73443068  0.76712548  1  0.085903  6e-06  0.978901  0.0  0.097728  -1e-06  1.042588  0.0  0.09964  2e-06  1.042899  0.0  0.09502  0.096355  -6e-06  1.042481  0.0
H  H32  1  0.77573511  0.19746994  0.46062737  1  0.110469  0.000483  0.976812  0.0  0.119985  0.000638  1.03979  0.0  0.124418  0.000468  1.035891  0.0  0.090314  0.116903  0.000771  1.042545  0.0
H  H33  1  0.43448405  0.30275387  0.03961051  1  0.110866  -0.000467  0.974702  0.0  0.120701  -0.000628  1.037218  0.0  0.125037  -0.000462  1.033402  0.0  0.090898  0.117668  -0.000755  1.039954  0.0
H  H34  1  0.22426530  0.80252767  0.53937381  1  0.110463  0.000484  0.976798  0.0  0.119972  0.000638  1.039792  0.0  0.124402  0.000468  1.035891  0.0  0.090305  0.11689  0.000771  1.042546  0.0
H  H35  1  0.56551513  0.69724621  0.96038935  1  0.110876  -0.000469  0.974675  0.0  0.120709  -0.000628  1.037193  0.0  0.125045  -0.000462  1.033377  0.0  0.090898  0.117676  -0.000755  1.03993  0.0
C  C36  1  0.03574526  0.00678216  0.84280937  1  -0.032924  0.00115  3.812282  0.001  -0.019676  -0.000116  4.092625  0.0  -0.023662  -0.0001  4.113576  0.0  -0.086327  -0.017799  -7.1e-05  4.078664  0.0
C  C37  1  0.88517343  0.49341836  0.65718051  1  -0.03116  -0.000773  3.811014  -0.001  -0.017375  0.000156  4.09005  0.0  -0.021395  0.00014  4.111065  0.0  -0.085535  -0.015478  0.000142  4.076095  0.0
C  C38  1  0.96425607  0.99321709  0.15719113  1  -0.032901  0.001164  3.81228  0.001  -0.019662  -0.000117  4.092629  0.0  -0.023643  -9.9e-05  4.113573  0.0  -0.086325  -0.017786  -7.1e-05  4.078669  0.0
C  C39  1  0.11482664  0.50658172  0.34281962  1  -0.031209  -0.000775  3.811054  -0.001  -0.017446  0.000155  4.09015  0.0  -0.021464  0.000139  4.111163  0.0  -0.085554  -0.015547  0.000142  4.076191  0.0
C  C40  1  0.97509922  0.91530774  0.90042271  1  -0.121083  0.001168  3.685788  0.001  -0.158261  -0.000186  3.963461  0.0  -0.160243  -0.000165  3.980063  0.0  -0.146269  -0.157181  -0.000164  3.951911  0.0
C  C41  1  0.79076169  0.58490469  0.59943251  1  -0.122598  -0.000758  3.689509  -0.001  -0.15987  0.000212  3.966082  0.0  -0.161929  0.000177  3.982782  0.0  -0.14697  -0.158772  0.00023  3.954556  0.0
C  C42  1  0.02490012  0.08469234  0.09957816  1  -0.121193  0.001148  3.685891  0.001  -0.158379  -0.000186  3.963584  0.0  -0.160362  -0.000165  3.980187  0.0  -0.146322  -0.157298  -0.000164  3.952036  0.0
C  C43  1  0.20923912  0.41509540  0.40056687  1  -0.122561  -0.000739  3.689523  -0.001  -0.159812  0.000212  3.966098  0.0  -0.161873  0.000177  3.9828  0.0  -0.146969  -0.158715  0.000231  3.954573  0.0
C  C44  1  0.82068943  0.95895607  0.97307109  1  -0.083665  0.000699  3.682253  0.001  -0.111417  -0.000839  3.950846  -0.001  -0.114714  -0.000631  3.96756  0.0  -0.143182  -0.109694  -0.000972  3.9393  -0.001
C  C45  1  0.75258121  0.54127892  0.52688303  1  -0.083815  -0.000145  3.682523  0.0  -0.111539  0.000941  3.950618  0.001  -0.114785  0.000721  3.967314  0.001  -0.144255  -0.109919  0.001102  3.939215  0.001
C  C46  1  0.17931065  0.04104401  0.02692904  1  -0.083609  0.00071  3.682256  0.001  -0.11137  -0.000838  3.950846  -0.001  -0.114671  -0.000631  3.967563  0.0  -0.143175  -0.10965  -0.000972  3.9393  -0.001
C  C47  1  0.24741886  0.45872116  0.47311710  1  -0.083785  -0.000158  3.68249  0.0  -0.111501  0.000941  3.950582  0.001  -0.114745  0.000721  3.967276  0.001  -0.144248  -0.109882  0.001102  3.93918  0.001
C  C48  1  0.78543116  0.07654169  0.96111986  1  -0.087562  0.001126  3.689693  0.001  -0.114351  3.2e-05  3.958659  0.0  -0.117913  5.4e-05  3.97714  0.0  -0.147704  -0.112409  4.1e-05  3.945883  0.0
C  C49  1  0.82292496  0.42366619  0.53900697  1  -0.088476  -0.000708  3.689921  0.0  -0.114909  5.2e-05  3.958277  0.0  -0.118459  1.9e-05  3.976704  0.0  -0.147653  -0.113039  7e-05  3.945676  0.0
C  C50  1  0.21456928  0.92345757  0.03888038  1  -0.087535  0.001121  3.689734  0.001  -0.114346  3.1e-05  3.958704  0.0  -0.117908  5.4e-05  3.977184  0.0  -0.147692  -0.112404  4.1e-05  3.945928  0.0
C  C51  1  0.17707386  0.57633471  0.46099278  1  -0.088459  -0.000711  3.68988  0.0  -0.114894  5.1e-05  3.958231  0.0  -0.118444  1.9e-05  3.976658  0.0  -0.147647  -0.113024  7e-05  3.94563  0.0
C  C52  1  0.91858094  0.10694382  0.88138787  1  -0.153834  0.000939  3.736204  0.001  -0.193679  -6.1e-05  4.021763  0.0  -0.196284  -7.6e-05  4.037977  0.0  -0.157747  -0.192153  -6.8e-05  4.010451  0.0
C  C53  1  0.90678445  0.39322573  0.61872200  1  -0.153904  -0.000628  3.73629  -0.001  -0.193928  8.6e-05  4.020836  0.0  -0.196516  7.7e-05  4.037031  0.0  -0.15792  -0.192487  0.000108  4.009716  0.0
C  C54  1  0.08141988  0.89305626  0.11861152  1  -0.153877  0.000941  3.736213  0.001  -0.193722  -6.1e-05  4.021779  0.0  -0.196326  -7.7e-05  4.037991  0.0  -0.157767  -0.192196  -6.8e-05  4.010467  0.0
C  C55  1  0.09321673  0.60677353  0.38127749  1  -0.153909  -0.000629  3.736333  -0.001  -0.193925  8.5e-05  4.020885  0.0  -0.196512  7.8e-05  4.037079  0.0  -0.15793  -0.192485  0.000108  4.009765  0.0
C  C56  1  0.17977388  0.09613817  0.45720008  1  0.187316  -0.000507  3.834711  -0.001  0.184777  0.000321  4.0812  0.0  0.190285  -0.000275  4.106409  -0.001  0.086508  0.181361  0.000762  4.064329  0.0
C  C57  1  0.73399450  0.40382609  0.04268545  1  0.188685  0.000573  3.827842  0.001  0.184895  -0.000306  4.076544  0.0  0.190401  0.000292  4.101735  0.001  0.086617  0.181492  -0.000748  4.059665  0.0
C  C58  1  0.82022509  0.90386273  0.54280069  1  0.187259  -0.000513  3.834666  -0.001  0.184763  0.000322  4.081148  0.0  0.190269  -0.000274  4.106356  -0.001  0.086493  0.181347  0.000761  4.064277  0.0
C  C59  1  0.26600379  0.59617400  0.95731414  1  0.188539  0.000573  3.827966  0.001  0.184778  -0.000304  4.076571  0.0  0.190283  0.000289  4.101764  0.001  0.08659  0.181375  -0.000748  4.05969  0.0
C  C60  1  0.25371378  0.11352940  0.34766045  1  -0.152104  0.000774  3.754615  0.001  -0.174781  0.000188  4.013448  0.0  -0.178698  0.00029  4.033214  0.001  -0.095436  -0.172376  0.000104  4.00059  0.0
C  C61  1  0.71575844  0.38660829  0.15221332  1  -0.15423  -0.000794  3.750505  -0.001  -0.176072  -0.000184  4.009808  0.0  -0.179965  -0.000289  4.029465  -0.001  -0.096086  -0.173667  -0.000101  3.997031  0.0
C  C62  1  0.74628484  0.88647233  0.65234021  1  -0.152091  0.000785  3.754663  0.001  -0.174764  0.000189  4.013488  0.0  -0.178679  0.00029  4.033254  0.001  -0.095417  -0.17236  0.000104  4.000634  0.0
C  C63  1  0.28424148  0.61339179  0.84778580  1  -0.154201  -0.000795  3.750525  -0.001  -0.176067  -0.000185  4.009815  0.0  -0.179958  -0.000286  4.029473  -0.001  -0.096095  -0.173664  -0.000101  3.997042  0.0
C  C64  1  0.15440196  0.16476812  0.28060685  1  -0.064922  -0.000972  3.780696  -0.001  -0.080788  -0.000534  4.033913  -0.001  -0.080936  -0.000546  4.054462  -0.001  -0.096037  -0.080421  -0.000492  4.019742  -0.001
C  C65  1  0.60065969  0.33543591  0.21936834  1  -0.065785  0.001006  3.779887  0.001  -0.081466  0.000533  4.032569  0.001  -0.081547  0.000545  4.053025  0.001  -0.09631  -0.0812  0.000497  4.018591  0.001
C  C66  1  0.84559740  0.83523361  0.71939307  1  -0.064975  -0.000977  3.780782  -0.001  -0.080826  -0.000534  4.03398  -0.001  -0.080976  -0.000547  4.054528  -0.001  -0.096042  -0.080459  -0.000492  4.019808  -0.001
C  C67  1  0.39933934  0.66456417  0.78063051  1  -0.065769  0.001017  3.779876  0.001  -0.081448  0.000531  4.032552  0.001  -0.081533  0.000545  4.05301  0.001  -0.096293  -0.081182  0.000497  4.018572  0.001
C  C68  1  0.98388875  0.19603253  0.32156115  1  -0.076393  0.001017  3.773476  0.001  -0.097031  0.000326  4.036715  0.0  -0.100056  0.00049  4.059814  0.0  -0.098641  -0.095057  0.000181  4.021081  0.0
C  C69  1  0.50236844  0.30413581  0.17853023  1  -0.075376  -0.001043  3.775794  -0.001  -0.095467  -0.000327  4.03838  0.0  -0.098487  -0.000488  4.061437  0.0  -0.097854  -0.093575  -0.00018  4.022904  0.0
C  C70  1  0.01610986  0.80396921  0.67843952  1  -0.076408  0.001052  3.773558  0.001  -0.097039  0.000322  4.036772  0.0  -0.100068  0.000493  4.059882  0.0  -0.098627  -0.095059  0.000181  4.021139  0.0
C  C71  1  0.49762984  0.69586427  0.82146936  1  -0.075348  -0.001072  3.775743  -0.001  -0.095451  -0.000322  4.038317  0.0  -0.098469  -0.000491  4.061375  0.0  -0.097857  -0.093559  -0.00018  4.022841  0.0
C  C72  1  0.90820816  0.17713689  0.43002847  1  -0.104535  -0.000159  3.761021  0.0  -0.125137  0.000352  4.01296  0.0  -0.126223  8.8e-05  4.031614  0.0  -0.097467  -0.124283  0.000589  4.000294  0.001
C  C73  1  0.51619215  0.32298275  0.07008061  1  -0.107233  0.000256  3.764009  0.0  -0.127612  -0.000341  4.016141  0.0  -0.128594  -8.3e-05  4.034858  0.0  -0.099053  -0.126827  -0.00057  4.003446  -0.001
C  C74  1  0.09179171  0.82286402  0.56997256  1  -0.104537  -0.000192  3.761041  0.0  -0.125115  0.000355  4.013006  0.0  -0.126196  8.6e-05  4.031652  0.0  -0.097446  -0.124261  0.000589  4.000336  0.001
C  C75  1  0.48380703  0.67701734  0.92991925  1  -0.107271  0.000289  3.763912  0.0  -0.127667  -0.000345  4.016058  0.0  -0.128648  -8.2e-05  4.034772  0.0  -0.099066  -0.126881  -0.00057  4.003364  -0.001
C  C76  1  0.00803630  0.12811146  0.49761424  1  -0.044554  0.004043  3.761518  0.004  -0.027866  0.002729  4.012957  0.003  -0.029541  0.00243  4.035942  0.003  -0.011042  -0.026806  0.002908  3.99736  0.003
C  C77  1  0.63461101  0.37184660  0.00240775  1  -0.042521  -0.003952  3.759795  -0.004  -0.026396  -0.002708  4.01292  -0.003  -0.028164  -0.002415  4.03599  -0.003  -0.010197  -0.025284  -0.002866  3.997303  -0.003
C  C78  1  0.99196303  0.87188863  0.50238663  1  -0.044471  0.004049  3.761491  0.004  -0.02785  0.00273  4.012987  0.003  -0.029522  0.002429  4.035969  0.003  -0.01105  -0.02679  0.002908  3.997392  0.003
C  C79  1  0.36538817  0.62815349  0.99759212  1  -0.042486  -0.003961  3.759775  -0.004  -0.026357  -0.002709  4.012857  -0.003  -0.028126  -0.002412  4.035928  -0.003  -0.010202  -0.025247  -0.002866  3.997241  -0.003
C  C80  1  0.15658950  0.04557947  0.63181375  1  0.128208  -0.007183  3.759178  -0.008  0.120398  -0.001743  4.065802  -0.003  0.137848  -0.003089  4.07892  -0.004  0.127581  0.109193  -0.000619  4.056837  -0.001
C  C81  1  0.83429201  0.45456097  0.86807163  1  0.128233  0.007278  3.76009  0.008  0.120918  0.001754  4.065904  0.003  0.138418  0.003085  4.078926  0.004  0.127625  0.109682  0.000655  4.057012  0.001
C  C82  1  0.84341237  0.95442061  0.36818692  1  0.128355  -0.007205  3.75907  -0.008  0.120544  -0.001744  4.065695  -0.003  0.137991  -0.003088  4.078814  -0.004  0.127635  0.109339  -0.000619  4.056731  -0.001
C  C83  1  0.16570681  0.54543994  0.13192812  1  0.12818  0.007276  3.760119  0.008  0.120848  0.001753  4.065915  0.003  0.138348  0.003086  4.078937  0.004  0.12759  0.109612  0.000655  4.057021  0.001
S  S84  1  0.22326753  0.99713368  0.74502890  1  0.075014  -0.001542  2.483817  0.0  0.062337  -0.000813  2.811084  0.0  0.058963  -0.001099  2.80996  0.0  0.071376  0.064141  -0.000537  2.812242  0.001
S  S85  1  0.96513215  0.50342850  0.75482378  1  0.077474  0.001672  2.483852  0.0  0.064859  0.000852  2.810298  0.0  0.061537  0.001115  2.809178  0.0  0.073312  0.066571  0.000618  2.811483  0.0
S  S86  1  0.77673434  0.00286640  0.25497177  1  0.074993  -0.001544  2.483781  0.0  0.062323  -0.000812  2.81105  0.0  0.058948  -0.0011  2.809927  0.0  0.071391  0.064126  -0.000537  2.81221  0.001
S  S87  1  0.03486703  0.49657158  0.24517608  1  0.077482  0.001674  2.483843  0.0  0.064864  0.000852  2.810302  0.0  0.061543  0.001115  2.809182  0.0  0.073297  0.066575  0.000618  2.811486  0.0
S  S88  1  0.95145920  0.09749063  0.63547697  1  0.13871  0.007543  2.481186  0.007  0.151338  0.007004  2.7749  0.007  0.149075  0.005133  2.780185  0.005  0.126904  0.152372  0.00851  2.771548  0.008
S  S89  1  0.68494897  0.40249022  0.86456436  1  0.136789  -0.007218  2.48186  -0.007  0.150147  -0.006913  2.775443  -0.007  0.147977  -0.005089  2.780689  -0.005  0.125991  0.150992  -0.008333  2.772206  -0.008
S  S90  1  0.04854249  0.90250780  0.36452363  1  0.138613  0.007549  2.48113  0.007  0.151262  0.007003  2.774867  0.007  0.148999  0.005133  2.780152  0.005  0.126869  0.152296  0.00851  2.771515  0.008
S  S91  1  0.31504985  0.59751069  0.13543540  1  0.13682  -0.007222  2.481874  -0.007  0.150166  -0.006913  2.775455  -0.007  0.147997  -0.005089  2.780701  -0.005  0.126002  0.151011  -0.008334  2.772218  -0.008
N  N92  1  0.25905333  0.04909085  0.53558040  1  -0.372237  0.070049  3.38949  0.087  -0.326841  0.055393  3.683001  0.071  -0.357265  0.049272  3.701644  0.066  -0.368945  -0.308838  0.057988  3.672082  0.072
N  N93  1  0.84437005  0.45091793  0.96421436  1  -0.372214  -0.068274  3.389079  -0.085  -0.326618  -0.055053  3.682994  -0.07  -0.357006  -0.049023  3.70148  -0.065  -0.369274  -0.308582  -0.057371  3.671998  -0.071
N  N94  1  0.74094713  0.95091006  0.46441889  1  -0.372256  0.070067  3.389433  0.087  -0.326886  0.055391  3.682968  0.071  -0.357305  0.049274  3.701605  0.066  -0.368965  -0.308883  0.057988  3.672053  0.072
N  N95  1  0.15562802  0.54908297  0.03578614  1  -0.372119  -0.068273  3.389048  -0.085  -0.326467  -0.055052  3.682864  -0.07  -0.356854  -0.049024  3.701351  -0.065  -0.369202  -0.308429  -0.057371  3.671862  -0.071
Cl  Cl96  1  0.50685222  0.82392079  0.50370572  1  -0.539424  0.127405  0.852386  0.144  -0.524091  0.09671  1.09761  0.112  -0.553217  0.080293  1.07545  0.096  -0.333499  -0.506698  0.105328  1.113469  0.119
Cl  Cl97  1  0.83387824  0.67639193  0.99623589  1  -0.542395  -0.124866  0.848833  -0.143  -0.525008  -0.097087  1.092331  -0.113  -0.554112  -0.080684  1.070184  -0.097  -0.334508  -0.508101  -0.105201  1.108351  -0.119
Cl  Cl98  1  0.49314844  0.17607930  0.49629266  1  -0.539401  0.127407  0.852381  0.144  -0.524062  0.096713  1.097599  0.112  -0.55319  0.080294  1.07544  0.096  -0.333484  -0.506668  0.10533  1.113457  0.119
Cl  Cl99  1  0.16611984  0.32360898  0.00376461  1  -0.54241  -0.124863  0.84884  -0.143  -0.525021  -0.097087  1.092327  -0.113  -0.554123  -0.080684  1.070177  -0.097  -0.334516  -0.508114  -0.105203  1.108341  -0.119
