# generated using pymatgen
data_BaCuH13C15S2NO10
_symmetry_space_group_name_H-M   'P 1'
_cell_length_a   12.48276975
_cell_length_b   13.82167538
_cell_length_c   14.97088584
_cell_angle_alpha   90.00054049
_cell_angle_beta   90.00088311
_cell_angle_gamma   89.99927856
_symmetry_Int_Tables_number   1
_chemical_formula_structural   BaCuH13C15S2NO10
_chemical_formula_sum   'Ba4 Cu4 H52 C60 S8 N4 O40'
_cell_volume   2582.96872179
_cell_formula_units_Z   4
loop_
 _symmetry_equiv_pos_site_id
 _symmetry_equiv_pos_as_xyz
  1  'x, y, z'
loop_
 _atom_site_type_symbol
 _atom_site_label
 _atom_site_symmetry_multiplicity
 _atom_site_fract_x
 _atom_site_fract_y
 _atom_site_fract_z
 _atom_site_occupancy
 _atom_site_pbe_bader_charge
 _atom_site_pbe_bader_spin_density
 _atom_site_pbe_cm5_charge
 _atom_site_pbe_ddec_charge
 _atom_site_pbe_ddec_spin_density
 _atom_site_pbe_ddec_sum_bond_order
 _atom_site_pbe_magmom
Ba  Ba0  1  0.30851738  0.19604682  0.41862268  1  1.722891  0.000388  0.948631  1.503793  0.000178  1.649676  0.0
Ba  Ba1  1  0.19148443  0.80394161  0.91862972  1  1.722869  0.00039  0.94863  1.503962  0.00018  1.649452  0.0
Ba  Ba2  1  0.69151306  0.69604745  0.08136336  1  1.722788  0.00039  0.948662  1.50413  0.00018  1.64902  0.0
Ba  Ba3  1  0.80851294  0.30394420  0.58136153  1  1.722892  0.000389  0.948586  1.503994  0.000179  1.649257  0.0
Cu  Cu4  1  0.50913332  0.36702023  0.48412183  1  1.099234  0.585135  0.73193  0.904999  0.741991  2.112789  0.584
Cu  Cu5  1  0.99085932  0.63298421  0.98410382  1  1.099406  0.585129  0.731957  0.904918  0.741998  2.112911  0.584
Cu  Cu6  1  0.49085466  0.86701015  0.01590310  1  1.099097  0.585142  0.731975  0.904955  0.742026  2.112977  0.584
Cu  Cu7  1  0.00914206  0.13298791  0.51587325  1  1.099405  0.585145  0.731919  0.904943  0.742016  2.113064  0.584
H  H8  1  0.76422252  0.56431517  0.71715461  1  0.113547  -4e-05  0.118345  0.130463  -4.6e-05  0.986339  0.0
H  H9  1  0.73579239  0.43570970  0.21711867  1  0.114011  -4e-05  0.118261  0.130294  -4.7e-05  0.986275  0.0
H  H10  1  0.23577582  0.06430891  0.78285994  1  0.113687  -4e-05  0.118307  0.130406  -4.6e-05  0.986455  0.0
H  H11  1  0.26421546  0.93567741  0.28286344  1  0.113731  -4e-05  0.118236  0.130322  -4.6e-05  0.986536  0.0
H  H12  1  0.70883934  0.68524650  0.84802280  1  0.135535  0.000496  0.114338  0.129249  0.000326  1.047554  0.0
H  H13  1  0.79115477  0.31481009  0.34802591  1  0.13545  0.000496  0.114453  0.129449  0.000326  1.047468  0.0
H  H14  1  0.29115569  0.18520644  0.65196876  1  0.135409  0.000496  0.114359  0.129294  0.000326  1.047557  0.0
H  H15  1  0.20885398  0.81477347  0.15197251  1  0.134968  0.000496  0.114414  0.129385  0.000326  1.047529  0.0
H  H16  1  0.79942711  0.10206463  0.37436883  1  0.132955  0.000324  0.118121  0.136332  9.8e-05  0.997668  0.0
H  H17  1  0.70056589  0.89796329  0.87435210  1  0.132659  0.000324  0.118078  0.136276  9.9e-05  0.997775  0.0
H  H18  1  0.20057261  0.60203724  0.12562172  1  0.132667  0.000324  0.118104  0.136317  9.9e-05  0.997757  0.0
H  H19  1  0.29947262  0.39795688  0.62564865  1  0.132192  0.000324  0.118139  0.136369  9.8e-05  0.997601  0.0
H  H20  1  0.78979143  0.96390964  0.25096300  1  0.114284  0.000275  0.100458  0.104472  0.000127  1.063504  0.0
H  H21  1  0.71018485  0.03610110  0.75092619  1  0.11397  0.000275  0.100406  0.104369  0.000127  1.063473  0.0
H  H22  1  0.21019039  0.46389754  0.24904741  1  0.114063  0.000275  0.100387  0.104264  0.000127  1.063654  0.0
H  H23  1  0.28982189  0.53610580  0.74907075  1  0.113727  0.000275  0.10038  0.104242  0.000127  1.063558  0.0
H  H24  1  0.36105459  0.96203618  0.56621147  1  0.06783  7e-06  0.121268  0.037753  7e-06  0.979289  0.0
H  H25  1  0.13893185  0.03795371  0.06621156  1  0.068024  7e-06  0.121285  0.037768  7e-06  0.979466  0.0
H  H26  1  0.63894937  0.46204501  0.93379118  1  0.06785  7e-06  0.121256  0.037797  7e-06  0.979274  0.0
H  H27  1  0.86104794  0.53796181  0.43377443  1  0.067907  7e-06  0.12129  0.037898  7e-06  0.979192  0.0
H  H28  1  0.62170287  0.01894382  0.47743472  1  0.116064  -3e-06  0.110057  0.129729  -1.2e-05  1.024921  0.0
H  H29  1  0.87827122  0.98104681  0.97744770  1  0.116204  -3e-06  0.110009  0.129686  -1.2e-05  1.025074  0.0
H  H30  1  0.37830283  0.51892856  0.02258584  1  0.115986  -3e-06  0.110074  0.129741  -1.2e-05  1.025222  0.0
H  H31  1  0.12170924  0.48105944  0.52256447  1  0.116266  -3e-06  0.110048  0.12976  -1.2e-05  1.024975  0.0
H  H32  1  0.67920912  0.91298442  0.52689297  1  0.038906  1e-05  0.107871  0.122322  5e-06  0.96718  0.0
H  H33  1  0.82077982  0.08701825  0.02690249  1  0.039032  1e-05  0.107933  0.122368  5e-06  0.967008  0.0
H  H34  1  0.32079713  0.41297842  0.97311794  1  0.039213  1e-05  0.107873  0.122346  5e-06  0.967  0.0
H  H35  1  0.17920810  0.58701418  0.47311064  1  0.039034  1e-05  0.107897  0.122398  5e-06  0.967103  0.0
H  H36  1  0.67248187  0.02313462  0.58878652  1  0.114624  -1e-05  0.105786  0.127642  4e-06  1.020341  0.0
H  H37  1  0.82750742  0.97687881  0.08879921  1  0.114518  -1e-05  0.10582  0.12763  4e-06  1.020509  0.0
H  H38  1  0.32751785  0.52313403  0.91124103  1  0.11502  -1e-05  0.105787  0.127626  4e-06  1.020542  0.0
H  H39  1  0.17248703  0.47687530  0.41122200  1  0.114801  -1e-05  0.105833  0.127708  4e-06  1.020435  0.0
H  H40  1  0.43563494  0.86411974  0.65897490  1  0.039679  -1.3e-05  0.101609  0.099776  -2e-05  1.042471  0.0
H  H41  1  0.06437966  0.13586748  0.15898759  1  0.039485  -1.3e-05  0.101561  0.099749  -2e-05  1.042449  0.0
H  H42  1  0.56437280  0.36409663  0.84104293  1  0.039555  -1.3e-05  0.101589  0.099719  -2e-05  1.042355  0.0
H  H43  1  0.93562599  0.63588320  0.34102330  1  0.039489  -1.3e-05  0.101595  0.099708  -2e-05  1.042653  0.0
H  H44  1  0.55889135  0.90754021  0.70368933  1  0.053804  4e-06  0.100824  0.119487  -2e-06  1.004789  0.0
H  H45  1  0.94110568  0.09244545  0.20368908  1  0.053741  4e-06  0.10085  0.119503  -2e-06  1.00476  0.0
H  H46  1  0.44111017  0.40752454  0.79632287  1  0.053872  4e-06  0.100857  0.119476  -2e-06  1.004689  0.0
H  H47  1  0.05889417  0.59247133  0.29631876  1  0.053853  4e-06  0.10084  0.119482  -2e-06  1.004648  0.0
H  H48  1  0.55937675  0.81180755  0.62351797  1  0.05661  -1e-06  0.101507  0.115554  -1.4e-05  0.998708  0.0
H  H49  1  0.94063321  0.18818091  0.12352390  1  0.056471  -1e-06  0.101539  0.115624  -1.4e-05  0.998843  0.0
H  H50  1  0.44062852  0.31179560  0.87649740  1  0.056906  -1e-06  0.101489  0.115528  -1.4e-05  0.99869  0.0
H  H51  1  0.05936049  0.68820325  0.37648878  1  0.057  -1e-06  0.101459  0.115502  -1.4e-05  0.998706  0.0
H  H52  1  0.28517072  0.13067382  0.18822305  1  0.60293  3.6e-05  0.324116  0.405013  3.4e-05  0.885256  0.0
H  H53  1  0.21482200  0.86933758  0.68822362  1  0.60281  3.6e-05  0.324211  0.405066  3.4e-05  0.885177  0.0
H  H54  1  0.71485023  0.63067002  0.31179247  1  0.602696  3.6e-05  0.32418  0.405004  3.4e-05  0.885236  0.0
H  H55  1  0.78516644  0.36932181  0.81178691  1  0.602824  3.6e-05  0.324175  0.405024  3.4e-05  0.885218  0.0
H  H56  1  0.20165724  0.19523692  0.24148017  1  0.635961  -3.1e-05  0.297716  0.383954  -3.4e-05  0.949688  0.0
H  H57  1  0.29832365  0.80477140  0.74149326  1  0.636206  -3.1e-05  0.297721  0.383878  -3.4e-05  0.949765  0.0
H  H58  1  0.79834598  0.69521283  0.25849316  1  0.636137  -3.1e-05  0.297736  0.383893  -3.4e-05  0.949748  0.0
H  H59  1  0.70166249  0.30478280  0.75850602  1  0.635015  -3.1e-05  0.297778  0.383926  -3.4e-05  0.9497  0.0
C  C60  1  0.59667498  0.49479356  0.60164304  1  1.590276  -0.000798  0.203986  0.596759  -0.001052  4.259547  -0.002
C  C61  1  0.90335139  0.50520046  0.10162654  1  1.590024  -0.000797  0.204163  0.596707  -0.001053  4.259895  -0.002
C  C62  1  0.40332451  0.99480357  0.89837927  1  1.589471  -0.000797  0.20414  0.596746  -0.00105  4.25939  -0.002
C  C63  1  0.09667853  0.00520780  0.39835716  1  1.589689  -0.000796  0.203768  0.596346  -0.001049  4.260018  -0.002
C  C64  1  0.59716225  0.56518049  0.67629558  1  -0.225296  0.008522  -0.021676  -0.116424  0.005927  3.969683  0.006
C  C65  1  0.90285670  0.43482081  0.17628313  1  -0.225167  0.008517  -0.021825  -0.116622  0.005925  3.969366  0.006
C  C66  1  0.40283767  0.06519664  0.82372566  1  -0.224951  0.008523  -0.021628  -0.116341  0.005928  3.969083  0.006
C  C67  1  0.09715516  0.93481180  0.32370765  1  -0.225228  0.008521  -0.021655  -0.116441  0.005926  3.969582  0.006
C  C68  1  0.68360892  0.59150052  0.72917288  1  -0.014151  0.001006  -0.093799  -0.118483  0.000456  3.998996  0.001
C  C69  1  0.81639660  0.40852374  0.22915509  1  -0.014321  0.001004  -0.093849  -0.118397  0.000455  3.998091  0.001
C  C70  1  0.31638503  0.09149902  0.77083857  1  -0.014555  0.001006  -0.093878  -0.118575  0.000455  3.998687  0.001
C  C71  1  0.18361724  0.90848139  0.27084415  1  -0.014444  0.001005  -0.093858  -0.118424  0.000455  3.998756  0.001
C  C72  1  0.65436240  0.65559819  0.79838865  1  -0.020351  0.000684  -0.092445  -0.110754  0.000401  3.987657  0.0
C  C73  1  0.84563479  0.34443836  0.29839005  1  -0.020619  0.000682  -0.092373  -0.110731  0.000399  3.987093  0.0
C  C74  1  0.34563626  0.15558480  0.70161601  1  -0.020216  0.000683  -0.092457  -0.110727  0.0004  3.987584  0.0
C  C75  1  0.15437514  0.84440503  0.20160930  1  -0.019966  0.000685  -0.092507  -0.110879  0.000401  3.98735  0.0
C  C76  1  0.54629165  0.67868789  0.79683705  1  -0.199767  0.006594  -0.023442  -0.13162  0.004525  3.971976  0.005
C  C77  1  0.95370711  0.32135009  0.29685566  1  -0.199213  0.006592  -0.023525  -0.131813  0.004524  3.971981  0.005
C  C78  1  0.45370828  0.17865955  0.70316113  1  -0.199752  0.006592  -0.023419  -0.131611  0.004523  3.97199  0.005
C  C79  1  0.04629754  0.82133174  0.20315084  1  -0.199733  0.00659  -0.02339  -0.131671  0.004522  3.971894  0.005
C  C80  1  0.48638038  0.74361048  0.85751339  1  1.578902  -0.001118  0.223205  0.621802  -0.001388  4.203185  -0.002
C  C81  1  0.01361389  0.25642146  0.35752781  1  1.579014  -0.001119  0.223174  0.621824  -0.00139  4.203184  -0.002
C  C82  1  0.51362425  0.24358157  0.64248870  1  1.580005  -0.001121  0.223235  0.621722  -0.00139  4.203159  -0.002
C  C83  1  0.98638366  0.75640564  0.14247945  1  1.579111  -0.001119  0.223249  0.621803  -0.001388  4.202749  -0.002
C  C84  1  0.61463893  0.22327395  0.39493878  1  1.55819  -0.000712  0.221884  0.61989  -0.001152  4.218178  -0.002
C  C85  1  0.88534323  0.77674044  0.89494539  1  1.558846  -0.000714  0.222064  0.620078  -0.001152  4.218069  -0.002
C  C86  1  0.38534627  0.72324498  0.10504549  1  1.558359  -0.000713  0.22218  0.620505  -0.001152  4.217702  -0.002
C  C87  1  0.11468176  0.27673662  0.60504162  1  1.558878  -0.000712  0.22187  0.619614  -0.001151  4.218161  -0.002
C  C88  1  0.63851262  0.14398571  0.33274253  1  -0.218141  0.005306  -0.018184  -0.133246  0.003681  3.985963  0.004
C  C89  1  0.86148041  0.85602732  0.83274419  1  -0.218179  0.005313  -0.018102  -0.133076  0.003686  3.986158  0.004
C  C90  1  0.36147770  0.64395765  0.16724238  1  -0.217587  0.005312  -0.018247  -0.133385  0.003685  3.986175  0.004
C  C91  1  0.13853706  0.35604340  0.66722882  1  -0.21732  0.005311  -0.018219  -0.132982  0.003685  3.985784  0.004
C  C92  1  0.73180557  0.08926821  0.32991206  1  0.045379  0.001361  -0.086126  -0.097323  0.000862  3.962036  0.001
C  C93  1  0.76819701  0.91075708  0.82990499  1  0.04623  0.001361  -0.086327  -0.097623  0.000862  3.962552  0.001
C  C94  1  0.26819753  0.58922677  0.17006302  1  0.04534  0.001361  -0.086254  -0.097517  0.000862  3.962402  0.001
C  C95  1  0.23183490  0.41075116  0.67008519  1  0.045789  0.001361  -0.08634  -0.097869  0.000862  3.962057  0.001
C  C96  1  0.72683623  0.01623262  0.26441191  1  -0.011159  0.001426  -0.094766  -0.113023  0.000854  4.005051  0.001
C  C97  1  0.77313710  0.98376813  0.76437949  1  -0.012017  0.001427  -0.094646  -0.112796  0.000854  4.004607  0.001
C  C98  1  0.27314307  0.51620988  0.23557790  1  -0.011711  0.001427  -0.094731  -0.112766  0.000854  4.00517  0.001
C  C99  1  0.22687937  0.48377523  0.73561066  1  -0.011985  0.001427  -0.094629  -0.112526  0.000853  4.004625  0.001
C  C100  1  0.63074334  0.01642610  0.21789702  1  -0.225551  0.00717  -0.017753  -0.109711  0.004952  3.962739  0.006
C  C101  1  0.86922432  0.98355536  0.71785380  1  -0.225134  0.007164  -0.017481  -0.109303  0.004949  3.962226  0.006
C  C102  1  0.36922634  0.51641722  0.28210481  1  -0.225182  0.007169  -0.017618  -0.109319  0.004952  3.962578  0.006
C  C103  1  0.13078254  0.48357416  0.78212233  1  -0.22494  0.007164  -0.017616  -0.109567  0.00495  3.962788  0.006
C  C104  1  0.59926550  0.95134585  0.14427398  1  1.569417  -0.001429  0.204799  0.59768  -0.001877  4.229837  -0.003
C  C105  1  0.90072322  0.04863342  0.64423571  1  1.568918  -0.001425  0.20482  0.597312  -0.001876  4.230208  -0.003
C  C106  1  0.40069246  0.45135584  0.35574901  1  1.569188  -0.001426  0.204873  0.59743  -0.001876  4.230204  -0.003
C  C107  1  0.09928816  0.54863918  0.85574397  1  1.568733  -0.001429  0.204847  0.597674  -0.001877  4.229636  -0.003
C  C108  1  0.43647648  0.99005175  0.53692389  1  1.367785  -1.7e-05  0.184095  0.321502  -2e-05  4.13392  0.0
C  C109  1  0.06352063  0.00995014  0.03692211  1  1.366936  -1.7e-05  0.184071  0.321499  -2e-05  4.133318  0.0
C  C110  1  0.56352548  0.49004291  0.96307900  1  1.367739  -1.7e-05  0.184122  0.321372  -2e-05  4.133542  0.0
C  C111  1  0.93646997  0.50994612  0.46305161  1  1.367197  -1.8e-05  0.184082  0.321273  -2e-05  4.133062  0.0
C  C112  1  0.63072355  0.97794721  0.53945198  1  0.216418  -6e-06  -0.13162  -0.264363  -8e-06  3.862001  0.0
C  C113  1  0.86926963  0.02204834  0.03946023  1  0.216411  -6e-06  -0.131658  -0.264385  -8e-06  3.862243  0.0
C  C114  1  0.36928339  0.47794561  0.96056350  1  0.215527  -6e-06  -0.131644  -0.264445  -8e-06  3.862303  0.0
C  C115  1  0.13071279  0.52205265  0.46054900  1  0.2161  -7e-06  -0.131712  -0.264623  -9e-06  3.862298  0.0
C  C116  1  0.51967693  0.87952904  0.64321759  1  0.31242  -1.3e-05  -0.132133  -0.278751  -3.2e-05  3.947365  0.0
C  C117  1  0.98032939  0.12045962  0.14322142  1  0.313003  -1.4e-05  -0.132126  -0.278843  -3.3e-05  3.947783  0.0
C  C118  1  0.48032658  0.37951861  0.85679704  1  0.312357  -1.3e-05  -0.132127  -0.278747  -3.3e-05  3.94739  0.0
C  C119  1  0.01966847  0.62047642  0.35678733  1  0.312107  -1.4e-05  -0.132074  -0.278672  -3.3e-05  3.947205  0.0
S  S120  1  0.48088991  0.62078095  0.71074528  1  0.256279  0.002592  0.110825  0.162349  0.001849  2.930044  0.001
S  S121  1  0.01911845  0.37921838  0.21075417  1  0.256321  0.002592  0.110895  0.162442  0.001848  2.930166  0.001
S  S122  1  0.51911484  0.12078169  0.78926108  1  0.255775  0.002592  0.110716  0.162178  0.001848  2.929978  0.001
S  S123  1  0.98089259  0.87922076  0.28924348  1  0.256409  0.00259  0.110933  0.162484  0.001847  2.930337  0.001
S  S124  1  0.54647890  0.10627550  0.25457673  1  0.271382  0.000786  0.126626  0.168744  0.000808  2.887286  0.0
S  S125  1  0.95350066  0.89371864  0.75455718  1  0.271514  0.000787  0.126487  0.168495  0.000809  2.887104  0.0
S  S126  1  0.45350314  0.60624937  0.24541186  1  0.271633  0.000785  0.126601  0.168603  0.000807  2.887421  0.0
S  S127  1  0.04650746  0.39374742  0.74540680  1  0.271792  0.000786  0.12662  0.168623  0.000808  2.887077  0.0
N  N128  1  0.52504877  0.94966558  0.57122219  1  -1.193305  7.8e-05  -0.281077  0.024176  4.8e-05  3.723464  0.0
N  N129  1  0.97494019  0.05032379  0.07123670  1  -1.192934  7.8e-05  -0.281135  0.0242  4.8e-05  3.723473  0.0
N  N130  1  0.47495215  0.44965812  0.92878236  1  -1.193237  7.8e-05  -0.281049  0.024394  4.8e-05  3.723472  0.0
N  N131  1  0.02504264  0.55033041  0.42877077  1  -1.193178  7.8e-05  -0.281008  0.024471  4.8e-05  3.723344  0.0
O  O132  1  0.50282475  0.46846212  0.57473343  1  -1.091542  0.103674  -0.327757  -0.542573  0.065541  2.305822  0.093
O  O133  1  0.99720433  0.53152873  0.07471569  1  -1.091676  0.103676  -0.327878  -0.542522  0.065547  2.305597  0.093
O  O134  1  0.49716630  0.96848509  0.92530935  1  -1.091823  0.103659  -0.327804  -0.542456  0.065537  2.305826  0.093
O  O135  1  0.00282442  0.03154754  0.42527626  1  -1.091141  0.103672  -0.32776  -0.542502  0.06554  2.305593  0.093
O  O136  1  0.27837660  0.18164041  0.23253657  1  -1.245072  4.6e-05  -0.612333  -0.804116  3.4e-05  1.942287  0.0
O  O137  1  0.22160572  0.81838157  0.73254680  1  -1.245234  4.7e-05  -0.612497  -0.804125  3.5e-05  1.942423  0.0
O  O138  1  0.72163001  0.68160642  0.26745067  1  -1.245021  4.6e-05  -0.61246  -0.804114  3.5e-05  1.942258  0.0
O  O139  1  0.77838263  0.31838351  0.76744658  1  -1.243997  4.6e-05  -0.612487  -0.804111  3.5e-05  1.942372  0.0
O  O140  1  0.68427566  0.46435521  0.57090915  1  -1.199906  0.000826  -0.375787  -0.633231  -0.000455  2.222994  0.001
O  O141  1  0.81575575  0.53563560  0.07088712  1  -1.200115  0.000823  -0.375801  -0.633189  -0.000457  2.223338  0.001
O  O142  1  0.31571785  0.96434916  0.92910488  1  -1.198745  0.000828  -0.375889  -0.6333  -0.000453  2.22266  0.001
O  O143  1  0.18427374  0.03562853  0.42909685  1  -1.199687  0.000823  -0.375596  -0.632894  -0.000457  2.223564  0.001
O  O144  1  0.39255227  0.76974015  0.83657893  1  -1.211553  0.00079  -0.349317  -0.614888  -0.00027  2.224174  0.001
O  O145  1  0.10742398  0.23026915  0.33658431  1  -1.212017  0.000789  -0.3492  -0.61473  -0.000271  2.224137  0.001
O  O146  1  0.60744078  0.26972342  0.66342004  1  -1.21251  0.000788  -0.349288  -0.614798  -0.000271  2.224322  0.001
O  O147  1  0.89256672  0.73027124  0.16341671  1  -1.212331  0.000787  -0.349368  -0.614895  -0.000272  2.224201  0.001
O  O148  1  0.53666459  0.76801860  0.92922233  1  -1.129075  0.085478  -0.3198  -0.582481  0.054265  2.395672  0.078
O  O149  1  0.96331902  0.23200699  0.42923093  1  -1.12899  0.085494  -0.31983  -0.582557  0.054276  2.395715  0.078
O  O150  1  0.46332127  0.26799242  0.57078531  1  -1.129011  0.085492  -0.319806  -0.582457  0.054274  2.395449  0.078
O  O151  1  0.03665805  0.73200186  0.07075942  1  -1.128564  0.085485  -0.319823  -0.582461  0.05427  2.395437  0.078
O  O152  1  0.51983676  0.26080899  0.39201332  1  -1.1389  0.083425  -0.357321  -0.607075  0.05327  2.394221  0.075
O  O153  1  0.98013733  0.73919017  0.89201014  1  -1.138827  0.083453  -0.357266  -0.607042  0.053287  2.394387  0.075
O  O154  1  0.48014150  0.76078044  0.10796125  1  -1.138553  0.083447  -0.357264  -0.607216  0.053282  2.394729  0.075
O  O155  1  0.01988738  0.23918890  0.60797254  1  -1.138319  0.08342  -0.35727  -0.607015  0.053266  2.394377  0.075
O  O156  1  0.68654553  0.25229562  0.44759957  1  -1.21495  -0.000166  -0.383899  -0.625069  -0.001035  2.282705  0.0
O  O157  1  0.81343040  0.74774535  0.94761170  1  -1.215332  -0.000164  -0.384154  -0.625235  -0.001034  2.282614  0.0
O  O158  1  0.31342564  0.75226548  0.05238828  1  -1.215414  -0.000162  -0.384144  -0.625388  -0.001033  2.282335  0.0
O  O159  1  0.18660461  0.24773295  0.55238441  1  -1.216292  -0.000164  -0.383857  -0.624787  -0.001034  2.282557  0.0
O  O160  1  0.50336575  0.96222914  0.11351906  1  -1.090419  0.107588  -0.331066  -0.539872  0.06808  2.244412  0.096
O  O161  1  0.99663281  0.03774692  0.61348726  1  -1.090618  0.107607  -0.33114  -0.539907  0.068089  2.24436  0.096
O  O162  1  0.49657844  0.46226875  0.38653007  1  -1.090303  0.107604  -0.330941  -0.539731  0.068073  2.244729  0.096
O  O163  1  0.00338352  0.53775046  0.88649232  1  -1.090252  0.107591  -0.331092  -0.539862  0.068077  2.244299  0.096
O  O164  1  0.66641101  0.89043664  0.11511221  1  -1.200447  0.000234  -0.363262  -0.615667  -0.00099  2.196831  0.001
O  O165  1  0.83360280  0.10956186  0.61507428  1  -1.200138  0.00023  -0.363316  -0.615464  -0.000993  2.197009  0.001
O  O166  1  0.33357264  0.39042381  0.38489956  1  -1.200444  0.000233  -0.363497  -0.615697  -0.000991  2.196871  0.001
O  O167  1  0.16642294  0.60956427  0.88490927  1  -1.200105  0.000233  -0.363345  -0.615705  -0.00099  2.196543  0.001
O  O168  1  0.43604351  0.05309123  0.47736421  1  -1.181554  7.2e-05  -0.364347  -0.524851  5.8e-05  2.312685  0.0
O  O169  1  0.06394737  0.94690286  0.97736019  1  -1.181628  7.2e-05  -0.364297  -0.524807  5.9e-05  2.312261  0.0
O  O170  1  0.56394248  0.55309920  0.02263326  1  -1.18149  7.2e-05  -0.364374  -0.524859  5.9e-05  2.312284  0.0
O  O171  1  0.93604798  0.44690342  0.52262830  1  -1.181334  7.2e-05  -0.364388  -0.524912  5.9e-05  2.311689  0.0
