# generated using pymatgen
data_CoH14C20N2O5
_symmetry_space_group_name_H-M   'P 1'
_cell_length_a   7.44996849
_cell_length_b   10.18312170
_cell_length_c   10.19816607
_cell_angle_alpha   87.75506822
_cell_angle_beta   89.33164883
_cell_angle_gamma   88.93828404
_symmetry_Int_Tables_number   1
_chemical_formula_structural   CoH14C20N2O5
_chemical_formula_sum   'Co2 H28 C40 N4 O10'
_cell_volume   772.90016789
_cell_formula_units_Z   2
loop_
 _symmetry_equiv_pos_site_id
 _symmetry_equiv_pos_as_xyz
  1  'x, y, z'
loop_
 _atom_site_type_symbol
 _atom_site_label
 _atom_site_symmetry_multiplicity
 _atom_site_fract_x
 _atom_site_fract_y
 _atom_site_fract_z
 _atom_site_occupancy
 _atom_site_hle17_ddec_charge
 _atom_site_hle17_ddec_spin_density
 _atom_site_hle17_ddec_sum_bond_order
 _atom_site_hle17_magmom
 _atom_site_hse06_10hf_ddec_charge
 _atom_site_hse06_10hf_ddec_spin_density
 _atom_site_hse06_10hf_ddec_sum_bond_order
 _atom_site_hse06_10hf_magmom
 _atom_site_hse06_ddec_charge
 _atom_site_hse06_ddec_spin_density
 _atom_site_hse06_ddec_sum_bond_order
 _atom_site_hse06_magmom
 _atom_site_pbe_cm5_charge
 _atom_site_pbe_ddec_charge
 _atom_site_pbe_ddec_spin_density
 _atom_site_pbe_ddec_sum_bond_order
 _atom_site_pbe_magmom
Co  Co0  1  0.50000227  0.99999873  0.00000112  1  1.173424  2.90789  2.048911  2.628  1.00591  1.076256  2.533105  0.941  1.092061  1.073477  2.445685  0.932  0.597733  0.942604  1.154066  2.602668  1.029
Co  Co1  1  0.99999912  0.00000044  0.00000035  1  1.16069  -2.901971  2.059307  -2.618  0.993463  -1.080623  2.548239  -0.947  1.082348  -1.076846  2.457453  -0.936  0.595691  0.93189  -1.159509  2.616783  -1.037
H  H2  1  0.75245318  0.92847744  0.18248161  1  0.387953  -5.9e-05  0.909966  0.0  0.343365  0.000192  1.011594  0.0  0.355517  0.00018  0.999133  0.0  0.285416  0.335683  0.000162  1.018602  0.0
H  H3  1  0.74432084  0.81703542  0.07173840  1  0.387708  2.7e-05  0.911133  0.0  0.343121  -0.000113  1.01278  0.0  0.355231  -9.1e-05  1.000379  0.0  0.285353  0.335489  -0.000112  1.019728  0.0
H  H4  1  0.24754857  0.07152207  0.81751891  1  0.387984  -5.9e-05  0.909922  0.0  0.343413  0.000192  1.011522  0.0  0.355564  0.00018  0.999059  0.0  0.28543  0.335731  0.000162  1.018534  0.0
H  H5  1  0.25568363  0.18296311  0.92826212  1  0.387658  2.7e-05  0.911231  0.0  0.343094  -0.000112  1.012834  0.0  0.355204  -9.1e-05  1.000434  0.0  0.285348  0.335463  -0.000112  1.019784  0.0
H  H6  1  0.11882732  0.58684100  0.14123611  1  0.109248  4.9e-05  0.947574  0.0  0.121488  -3.5e-05  1.005228  0.0  0.124295  -3.6e-05  1.004957  0.0  0.108705  0.119307  -3.6e-05  1.006241  0.0
H  H7  1  0.38121445  0.85751841  0.41417188  1  0.109066  -3.1e-05  0.948443  0.0  0.121561  4.4e-05  1.005789  0.0  0.124361  4e-05  1.00552  0.0  0.108463  0.119372  4.8e-05  1.006834  0.0
H  H8  1  0.88117719  0.41315557  0.85876252  1  0.109238  4.9e-05  0.947625  0.0  0.121474  -3.5e-05  1.005287  0.0  0.124282  -3.6e-05  1.005014  0.0  0.108684  0.119295  -3.6e-05  1.006302  0.0
H  H9  1  0.61876062  0.14247510  0.58582730  1  0.109089  -3.1e-05  0.948413  0.0  0.121615  4.4e-05  1.005729  0.0  0.124413  4e-05  1.005465  0.0  0.108473  0.119426  4.8e-05  1.006779  0.0
H  H10  1  0.11960014  0.34374118  0.11432524  1  0.072195  6.5e-05  0.948073  0.0  0.081517  1.9e-05  1.012525  0.0  0.083721  1.6e-05  1.010768  0.0  0.113698  0.079829  5e-06  1.014133  0.0
H  H11  1  0.38252668  0.88461258  0.65686627  1  0.072023  -7.6e-05  0.950174  0.0  0.081256  -1.6e-05  1.015095  0.0  0.083505  -1.5e-05  1.013167  0.0  0.113198  0.07959  -5e-06  1.016694  0.0
H  H12  1  0.88040300  0.65625734  0.88567628  1  0.072266  6.5e-05  0.948154  0.0  0.081591  1.9e-05  1.012575  0.0  0.083786  1.6e-05  1.010839  0.0  0.11373  0.0799  5e-06  1.014183  0.0
H  H13  1  0.61745230  0.11538487  0.34313369  1  0.072031  -7.7e-05  0.950179  0.0  0.081211  -1.7e-05  1.015185  0.0  0.083464  -1.5e-05  1.013238  0.0  0.113184  0.079552  -5e-06  1.016761  0.0
H  H14  1  0.43591377  0.25507855  0.74436859  1  0.113919  -0.000135  0.954784  0.0  0.12303  -0.0002  1.01845  0.0  0.126565  -0.000161  1.016406  0.0  0.109469  0.120234  -0.000203  1.02047  0.0
H  H15  1  0.06424012  0.25545887  0.74521569  1  0.114273  0.00014  0.954144  0.0  0.122844  0.000215  1.018334  0.0  0.126356  0.000174  1.016336  0.0  0.109375  0.120053  0.000215  1.02036  0.0
H  H16  1  0.56408414  0.74491602  0.25563413  1  0.113885  -0.000136  0.954907  0.0  0.12302  -0.0002  1.018537  0.0  0.126552  -0.000161  1.016496  0.0  0.109476  0.120221  -0.000203  1.020556  0.0
H  H17  1  0.93576000  0.74454948  0.25478356  1  0.114308  0.000141  0.954081  0.0  0.122853  0.000215  1.01831  0.0  0.126363  0.000174  1.016314  0.0  0.109407  0.120059  0.000215  1.020334  0.0
H  H18  1  0.60596429  0.38356874  0.57373177  1  0.081807  -3.3e-05  0.979267  0.0  0.094066  -5e-06  1.040389  0.0  0.096309  -1e-06  1.039778  0.0  0.097581  0.09211  -1e-06  1.041882  0.0
H  H19  1  0.89313975  0.42710716  0.61660548  1  0.082001  2.6e-05  0.979143  0.0  0.094297  6e-06  1.040094  0.0  0.096553  2e-06  1.039442  0.0  0.09756  0.092333  2e-06  1.041593  0.0
H  H20  1  0.39403767  0.61642486  0.42627093  1  0.081738  -3.3e-05  0.979318  0.0  0.094032  -5e-06  1.040394  0.0  0.096271  -1e-06  1.039793  0.0  0.097584  0.092077  -1e-06  1.041885  0.0
H  H21  1  0.10686173  0.57289923  0.38339087  1  0.082019  2.6e-05  0.978977  0.0  0.094286  6e-06  1.039973  0.0  0.096544  2e-06  1.039322  0.0  0.09753  0.092321  2e-06  1.041476  0.0
H  H22  1  0.63932709  0.62536845  0.59190561  1  0.088107  3.3e-05  0.963089  0.0  0.098524  -1e-06  1.024469  0.0  0.100316  -0.0  1.026046  0.0  0.09736  0.09735  1e-06  1.023347  0.0
H  H23  1  0.85943377  0.40966154  0.37502021  1  0.087562  -2.4e-05  0.966027  0.0  0.098219  1e-06  1.027121  0.0  0.099981  1e-06  1.028703  0.0  0.097082  0.09703  -0.0  1.026017  0.0
H  H24  1  0.36067884  0.37462616  0.40809503  1  0.088097  3.4e-05  0.963093  0.0  0.098533  -1e-06  1.024418  0.0  0.100305  -1e-06  1.02605  0.0  0.097372  0.097359  1e-06  1.023299  0.0
H  H25  1  0.14056640  0.59034484  0.62497812  1  0.087682  -2.3e-05  0.966029  0.0  0.098352  1e-06  1.027102  0.0  0.100101  0.0  1.028704  0.0  0.097132  0.097165  -0.0  1.025997  0.0
H  H26  1  0.49358821  0.73987220  0.77592597  1  0.106737  -6.9e-05  0.977389  0.0  0.116093  -3.5e-05  1.038996  0.0  0.119546  -3.3e-05  1.037163  0.0  0.10512  0.113415  -3.5e-05  1.040461  0.0
H  H27  1  0.00550182  0.22513778  0.26069045  1  0.106678  3.3e-05  0.976465  0.0  0.115522  4e-05  1.038796  0.0  0.119084  3.7e-05  1.03685  0.0  0.105075  0.112801  3.7e-05  1.04031  0.0
H  H28  1  0.50641628  0.26012535  0.22407360  1  0.106782  -6.8e-05  0.977352  0.0  0.116139  -3.5e-05  1.038952  0.0  0.119594  -3.3e-05  1.037114  0.0  0.105121  0.113432  -3.5e-05  1.040454  0.0
H  H29  1  0.99449966  0.77486959  0.73930782  1  0.106652  3.2e-05  0.976511  0.0  0.115478  4e-05  1.038863  0.0  0.119035  3.7e-05  1.036925  0.0  0.10504  0.112756  3.7e-05  1.040378  0.0
C  C30  1  0.26927297  0.77205408  0.98154972  1  0.66664  -0.006605  3.82132  -0.008  0.614415  -0.000502  4.111544  0.001  0.657736  0.000302  4.100308  0.002  0.226541  0.583224  -0.001837  4.117376  -0.001
C  C31  1  0.22945125  0.01827527  0.22921832  1  0.66457  0.004396  3.831258  0.005  0.614406  0.000702  4.120215  -0.001  0.65719  -0.000242  4.108983  -0.002  0.225808  0.583863  0.001904  4.125874  0.0
C  C32  1  0.73073284  0.22794445  0.01845078  1  0.666461  -0.006605  3.821589  -0.008  0.614279  -0.000502  4.11176  0.001  0.657598  0.000302  4.100531  0.002  0.226495  0.583088  -0.001837  4.11759  -0.001
C  C33  1  0.77054233  0.98172813  0.77078218  1  0.664729  0.004395  3.830941  0.005  0.614504  0.000702  4.119973  -0.001  0.657291  -0.000243  4.108733  -0.002  0.22584  0.583963  0.001904  4.125633  0.0
C  C34  1  0.27805701  0.62522938  0.96764169  1  -0.034579  0.001107  3.67224  0.002  -0.021226  -0.001595  3.908667  -0.002  -0.022684  -0.000947  3.923828  -0.001  0.009238  -0.021874  -0.00267  3.90035  -0.003
C  C35  1  0.22105841  0.03187392  0.37579737  1  -0.032015  -0.000603  3.67346  -0.001  -0.020291  0.00192  3.911015  0.002  -0.021376  0.001144  3.925851  0.001  0.009125  -0.021233  0.003125  3.902892  0.004
C  C36  1  0.72194476  0.37476914  0.03235789  1  -0.03445  0.001105  3.672224  0.002  -0.02111  -0.001595  3.908624  -0.002  -0.022569  -0.000947  3.923785  -0.001  0.009281  -0.02176  -0.00267  3.90031  -0.003
C  C37  1  0.77893785  0.96812852  0.62420117  1  -0.032076  -0.000602  3.673443  -0.001  -0.020315  0.00192  3.910948  0.002  -0.021392  0.001144  3.925787  0.001  0.009108  -0.021258  0.003125  3.902827  0.004
C  C38  1  0.19001269  0.54462521  0.05874372  1  -0.140204  -0.00212  3.74291  -0.003  -0.163898  -0.000658  3.999201  -0.001  -0.168996  -0.000287  4.018797  0.0  -0.085127  -0.161641  -0.001304  3.989377  -0.001
C  C39  1  0.30996453  0.94029324  0.45632619  1  -0.141802  0.001323  3.744419  0.002  -0.165032  0.000751  4.000823  0.001  -0.170302  0.000339  4.020403  0.0  -0.085392  -0.162614  0.001485  3.991012  0.001
C  C40  1  0.80998638  0.45537330  0.94125492  1  -0.140251  -0.002118  3.74301  -0.003  -0.16394  -0.000658  3.999291  -0.001  -0.169036  -0.000287  4.018885  0.0  -0.085133  -0.161684  -0.001304  3.989469  -0.001
C  C41  1  0.69002377  0.05970622  0.54367160  1  -0.14182  0.001322  3.744348  0.002  -0.16511  0.000751  4.000767  0.001  -0.170379  0.000338  4.020341  0.0  -0.085423  -0.162691  0.001484  3.990956  0.001
C  C42  1  0.18946814  0.40785531  0.04338218  1  0.153253  0.000964  3.728524  0.002  0.119174  -0.000273  3.994506  0.0  0.127982  -0.000114  4.007814  0.0  0.056569  0.113201  -0.000635  3.987962  0.0
C  C43  1  0.31154123  0.95572490  0.59286133  1  0.153743  -0.000624  3.727575  -0.001  0.119114  0.000286  3.993368  0.0  0.127977  9.7e-05  4.006694  0.0  0.056464  0.113123  0.000705  3.986753  0.001
C  C44  1  0.81053230  0.59214223  0.95661549  1  0.153118  0.000964  3.728615  0.002  0.119062  -0.000273  3.994572  0.0  0.127867  -0.000114  4.007877  0.0  0.056519  0.11309  -0.000635  3.988026  0.0
C  C45  1  0.68844710  0.04427357  0.40713649  1  0.153692  -0.000624  3.727454  -0.001  0.11909  0.000286  3.993271  0.0  0.127958  9.7e-05  4.006596  0.0  0.056478  0.1131  0.000705  3.986655  0.001
C  C46  1  0.35839340  0.42535631  0.85264092  1  0.188486  0.000653  3.782579  0.001  0.185673  -0.000113  4.0242  0.0  0.190394  -6.3e-05  4.046592  0.0  0.108388  0.183794  -0.000143  4.00938  0.0
C  C47  1  0.14155021  0.14711282  0.57525678  1  0.189283  -0.000396  3.783594  -0.001  0.186235  0.000122  4.025058  0.0  0.190987  6.7e-05  4.047381  0.0  0.108392  0.184356  0.00016  4.010268  0.0
C  C48  1  0.64161249  0.57463928  0.14735870  1  0.188504  0.000653  3.782837  0.001  0.185606  -0.000113  4.024581  0.0  0.19032  -6.3e-05  4.046975  0.0  0.108421  0.183728  -0.000143  4.009754  0.0
C  C49  1  0.85844470  0.85289059  0.42474272  1  0.189154  -0.000398  3.783589  -0.001  0.186094  0.000122  4.02503  0.0  0.190849  6.8e-05  4.047363  0.0  0.108402  0.184214  0.00016  4.010238  0.0
C  C50  1  0.44507625  0.36160130  0.74765360  1  -0.14152  -0.001406  3.716629  -0.002  -0.162621  -0.000213  3.971335  0.0  -0.166846  -0.000111  3.992029  0.0  -0.088715  -0.162204  -0.000534  3.959669  -0.001
C  C51  1  0.05460703  0.25236961  0.63880246  1  -0.141658  0.001086  3.718413  0.001  -0.162513  0.000259  3.973295  0.0  -0.166724  0.000146  3.993994  0.0  -0.088953  -0.16217  0.000614  3.961628  0.001
C  C52  1  0.55492820  0.63839821  0.25234787  1  -0.141482  -0.001404  3.716563  -0.002  -0.162576  -0.000213  3.971302  0.0  -0.166796  -0.000112  3.991995  0.0  -0.088696  -0.16216  -0.000534  3.959632  -0.001
C  C53  1  0.94539047  0.74763676  0.36119788  1  -0.141635  0.001084  3.718335  0.001  -0.162489  0.000259  3.973267  0.0  -0.166699  0.000146  3.99397  0.0  -0.089045  -0.162144  0.000614  3.961592  0.001
C  C54  1  0.54103209  0.43322553  0.65453520  1  -0.064226  0.001113  3.794438  0.002  -0.079107  -1.8e-05  4.044297  0.0  -0.079702  -3e-06  4.065365  0.0  -0.093558  -0.07843  -0.000119  4.032531  0.0
C  C55  1  0.95813917  0.34601039  0.56711639  1  -0.065317  -0.000844  3.797221  -0.001  -0.079976  -7e-06  4.046644  0.0  -0.080573  -2.4e-05  4.067682  0.0  -0.094164  -0.079239  0.000102  4.034852  0.0
C  C56  1  0.45897122  0.56676905  0.34547039  1  -0.064167  0.001113  3.794339  0.002  -0.079076  -1.8e-05  4.044213  0.0  -0.079671  -3e-06  4.065281  0.0  -0.093589  -0.078399  -0.000119  4.032447  0.0
C  C57  1  0.04185837  0.65399402  0.43288206  1  -0.065241  -0.000845  3.796912  -0.001  -0.079879  -6e-06  4.046341  0.0  -0.08047  -2.3e-05  4.067361  0.0  -0.094072  -0.079142  0.000102  4.034543  0.0
C  C58  1  0.55813038  0.57050956  0.66404128  1  -0.08285  -0.001257  3.786531  -0.002  -0.095428  -0.00012  4.039236  0.0  -0.098918  -1.1e-05  4.061895  0.0  -0.095771  -0.092117  -0.000419  4.025279  0.0
C  C59  1  0.94085689  0.33692369  0.42988893  1  -0.083057  0.000905  3.788925  0.001  -0.095901  0.000161  4.041233  0.0  -0.099338  4e-05  4.063961  0.0  -0.095682  -0.092562  0.000504  4.027263  0.001
C  C60  1  0.44187687  0.42948506  0.33595738  1  -0.082781  -0.001257  3.786614  -0.002  -0.095342  -0.00012  4.039307  0.0  -0.098838  -9e-06  4.061962  0.0  -0.095735  -0.092032  -0.000419  4.025344  0.0
C  C61  1  0.05914056  0.66308464  0.57011232  1  -0.083369  0.000907  3.788997  0.001  -0.096232  0.000161  4.04134  0.0  -0.099658  4e-05  4.064064  0.0  -0.095793  -0.092892  0.000503  4.027373  0.001
C  C62  1  0.47567180  0.63509163  0.76540297  1  -0.105491  0.001391  3.740745  0.002  -0.128286  -3.1e-05  3.995602  0.0  -0.129862  -3.8e-05  4.015918  0.0  -0.090126  -0.128303  -0.000227  3.982911  0.0
C  C63  1  0.02346926  0.23529919  0.36547569  1  -0.106242  -0.001134  3.74174  -0.002  -0.128495  1.3e-05  3.99658  0.0  -0.130136  1.3e-05  4.016764  0.0  -0.091253  -0.128491  0.00022  3.983926  0.0
C  C64  1  0.52433278  0.36490395  0.23459863  1  -0.10562  0.001386  3.740801  0.002  -0.128413  -3.1e-05  3.995634  0.0  -0.129991  -3.8e-05  4.015948  0.0  -0.090178  -0.128411  -0.000227  3.982958  0.0
C  C65  1  0.97652957  0.76470718  0.63452267  1  -0.10604  -0.001137  3.74164  -0.002  -0.128299  1.3e-05  3.996453  0.0  -0.12993  1.3e-05  4.016638  0.0  -0.091143  -0.128297  0.000221  3.983797  0.0
C  C66  1  0.37161157  0.56526836  0.86160812  1  -0.001257  -0.001666  3.739612  -0.002  0.010181  -0.000285  3.96671  0.0  0.007759  -0.000192  3.990725  0.0  -0.003407  0.01242  -0.000555  3.950975  -0.001
C  C67  1  0.12774537  0.13838464  0.43550485  1  -0.001265  0.00132  3.740634  0.002  0.010429  0.000377  3.967966  0.0  0.007898  0.000267  3.991991  0.0  -0.003294  0.012688  0.000681  3.952371  0.001
C  C68  1  0.62839555  0.43473116  0.13839233  1  -0.001262  -0.001664  3.7397  -0.002  0.010215  -0.000285  3.966797  0.0  0.007797  -0.000192  3.990812  0.0  -0.003397  0.012454  -0.000555  3.951055  -0.001
C  C69  1  0.87225084  0.86161976  0.56449459  1  -0.001313  0.001323  3.74069  0.002  0.010458  0.000377  3.967874  0.0  0.007894  0.000267  3.99195  0.0  -0.003333  0.012718  0.000681  3.952277  0.001
N  N70  1  0.26585331  0.34957269  0.94287541  1  -0.331568  -0.002108  3.14648  -0.003  -0.273964  -0.000628  3.397328  -0.001  -0.285598  -0.000219  3.410495  0.0  -0.30212  -0.268698  -0.001935  3.390193  -0.003
N  N71  1  0.23500136  0.05650878  0.65102741  1  -0.333516  0.001505  3.146698  0.002  -0.274843  0.000799  3.396552  0.001  -0.286527  0.000337  3.409667  0.0  -0.302455  -0.269531  0.002212  3.389385  0.003
N  N72  1  0.73414588  0.65042385  0.05712722  1  -0.331554  -0.002108  3.146533  -0.003  -0.273943  -0.000628  3.397423  -0.001  -0.285575  -0.000219  3.410591  0.0  -0.302165  -0.268676  -0.001935  3.390281  -0.003
N  N73  1  0.76499361  0.94349169  0.34897023  1  -0.333351  0.001506  3.146569  0.002  -0.274653  0.0008  3.396353  0.001  -0.286337  0.000336  3.40947  0.0  -0.302386  -0.269341  0.002212  3.389182  0.003
O  O74  1  0.11405433  0.82052228  0.00461888  1  -0.614067  -0.036821  2.112672  -0.06  -0.547842  -0.008993  2.381196  -0.015  -0.585652  -0.008046  2.367143  -0.013  -0.290632  -0.520058  -0.010287  2.390317  -0.016
O  O75  1  0.38440616  0.99592841  0.18107468  1  -0.614093  0.034829  2.104932  0.059  -0.552817  0.011919  2.370461  0.019  -0.5891  0.010375  2.356521  0.017  -0.291292  -0.52559  0.01395  2.379617  0.022
O  O76  1  0.88595135  0.17947921  0.99537857  1  -0.61402  -0.036822  2.112776  -0.06  -0.547814  -0.008992  2.381287  -0.015  -0.585627  -0.008045  2.367243  -0.013  -0.29063  -0.520028  -0.010287  2.390408  -0.016
O  O77  1  0.61559150  0.00407304  0.81892583  1  -0.614072  0.034826  2.104844  0.059  -0.552781  0.011918  2.370403  0.019  -0.589061  0.010375  2.356459  0.017  -0.291265  -0.525555  0.013948  2.379568  0.022
O  O78  1  0.42007504  0.82866278  0.96845056  1  -0.613454  0.042608  2.211185  0.068  -0.540337  -0.005983  2.489573  -0.009  -0.584462  -0.004617  2.479443  -0.007  -0.292183  -0.505391  -0.006845  2.4935  -0.011
O  O79  1  0.07812749  0.03109184  0.17219039  1  -0.614368  -0.04332  2.207114  -0.069  -0.541567  0.005839  2.486715  0.009  -0.586173  0.004607  2.476622  0.007  -0.293394  -0.506863  0.006749  2.490437  0.011
O  O80  1  0.57993222  0.17133378  0.03155391  1  -0.613349  0.042607  2.211221  0.068  -0.540268  -0.005982  2.489616  -0.009  -0.584394  -0.004617  2.479486  -0.007  -0.292145  -0.505319  -0.006845  2.493537  -0.011
O  O81  1  0.92187023  0.96890764  0.82781019  1  -0.614521  -0.043323  2.207028  -0.069  -0.541681  0.00584  2.486632  0.009  -0.586288  0.004608  2.476536  0.007  -0.293445  -0.506982  0.00675  2.490374  0.011
O  O82  1  0.74778129  0.91594001  0.08381124  1  -0.839772  0.002806  2.117886  0.004  -0.780096  -0.001658  2.399406  -0.003  -0.813493  -0.001248  2.364434  -0.002  -0.543173  -0.751522  -0.002256  2.419391  -0.004
O  O83  1  0.25222455  0.08405754  0.91618929  1  -0.839767  0.002808  2.117903  0.004  -0.780142  -0.001657  2.399417  -0.003  -0.813549  -0.001247  2.364465  -0.002  -0.543198  -0.751565  -0.002255  2.419396  -0.004
