# generated using pymatgen
data_CdH20C22(NO)6
_symmetry_space_group_name_H-M   'P 1'
_cell_length_a   7.33044604
_cell_length_b   9.51779921
_cell_length_c   16.76056539
_cell_angle_alpha   89.99990479
_cell_angle_beta   90.00011164
_cell_angle_gamma   108.73568578
_symmetry_Int_Tables_number   1
_chemical_formula_structural   CdH20C22(NO)6
_chemical_formula_sum   'Cd2 H40 C44 N12 O12'
_cell_volume   1107.41488195
_cell_formula_units_Z   2
loop_
 _symmetry_equiv_pos_site_id
 _symmetry_equiv_pos_as_xyz
  1  'x, y, z'
loop_
 _atom_site_type_symbol
 _atom_site_label
 _atom_site_symmetry_multiplicity
 _atom_site_fract_x
 _atom_site_fract_y
 _atom_site_fract_z
 _atom_site_occupancy
 _atom_site_hle17_bader_spin_density
 _atom_site_hle17_ddec_charge
 _atom_site_hle17_ddec_spin_density
 _atom_site_hle17_ddec_sum_bond_order
 _atom_site_hle17_magmom
 _atom_site_hse06_10hf_bader_spin_density
 _atom_site_hse06_10hf_ddec_charge
 _atom_site_hse06_10hf_ddec_spin_density
 _atom_site_hse06_10hf_ddec_sum_bond_order
 _atom_site_hse06_10hf_magmom
 _atom_site_hse06_bader_spin_density
 _atom_site_hse06_ddec_charge
 _atom_site_hse06_ddec_spin_density
 _atom_site_hse06_ddec_sum_bond_order
 _atom_site_hse06_magmom
 _atom_site_pbe_bader_spin_density
 _atom_site_pbe_cm5_charge
 _atom_site_pbe_ddec_charge
 _atom_site_pbe_ddec_spin_density
 _atom_site_pbe_ddec_sum_bond_order
 _atom_site_pbe_magmom
Cd  Cd0  1  0.99999943  0.50000047  0.50000062  1  0  1.013645  0  1.744095  0  0  0.797146  0  2.194119  0  0  0.852571  0  2.150124  0  0  0.77707  0.756352  0  2.225177  0
Cd  Cd1  1  0.99999978  0.99999844  0.99999995  1  0  1.013663  0  1.744049  0  0  0.797135  0  2.194114  0  0  0.852561  0  2.150117  0  0  0.777066  0.756339  0  2.225171  0
H  H2  1  0.07669212  0.46222060  0.31271301  1  0  0.080776  0  0.951197  0  0  0.08778  0  1.017456  0  0  0.090168  0  1.015503  0  0  0.114239  0.085826  0  1.01918  0
H  H3  1  0.07669416  0.96222374  0.18728861  1  0  0.080797  0  0.951224  0  0  0.087801  0  1.017477  0  0  0.090189  0  1.015524  0  0  0.11424  0.085847  0  1.019201  0
H  H4  1  0.92330675  0.53777683  0.68728781  1  0  0.080764  0  0.951228  0  0  0.087757  0  1.017489  0  0  0.090145  0  1.015536  0  0  0.11422  0.0858  0  1.019219  0
H  H5  1  0.92330750  0.03777702  0.81271222  1  0  0.080806  0  0.951189  0  0  0.087806  0  1.01745  0  0  0.090193  0  1.015496  0  0  0.114242  0.085852  0  1.019174  0
H  H6  1  0.96460319  0.52016118  0.17913553  1  0  0.111452  0  0.975178  0  0  0.118612  0  1.041249  0  0  0.122186  0  1.039305  0  0  0.106577  0.115901  0  1.042889  0
H  H7  1  0.96460404  0.02016468  0.32086487  1  0  0.11152  0  0.975157  0  0  0.118688  0  1.041205  0  0  0.122263  0  1.03926  0  0  0.106593  0.115976  0  1.042847  0
H  H8  1  0.03539704  0.47983625  0.82086470  1  0  0.111441  0  0.975059  0  0  0.11859  0  1.041156  0  0  0.122165  0  1.03921  0  0  0.106568  0.115879  0  1.042798  0
H  H9  1  0.03539714  0.97983496  0.67913536  1  0  0.111489  0  0.975127  0  0  0.118648  0  1.041195  0  0  0.122222  0  1.039249  0  0  0.106581  0.115936  0  1.042835  0
H  H10  1  0.49658946  0.61428919  0.29939495  1  0  0.119329  0  0.928885  0  0  0.132589  0  0.981829  0  0  0.135777  0  0.980991  0  0  0.112834  0.130208  0  0.982701  0
H  H11  1  0.49658654  0.11428518  0.20060377  1  0  0.11933  0  0.928968  0  0  0.132638  0  0.981858  0  0  0.135828  0  0.981016  0  0  0.112839  0.130255  0  0.982731  0
H  H12  1  0.50341403  0.38571266  0.70060528  1  0  0.119347  0  0.928901  0  0  0.132649  0  0.981806  0  0  0.135839  0  0.980964  0  0  0.112842  0.130267  0  0.982679  0
H  H13  1  0.50341552  0.88571335  0.79939526  1  0  0.119335  0  0.928873  0  0  0.132659  0  0.98176  0  0  0.135848  0  0.980919  0  0  0.112845  0.130278  0  0.982633  0
H  H14  1  0.62568302  0.55359350  0.42701126  1  0  0.071114  0  0.976113  0  0  0.074532  0  1.054455  0  0  0.077176  0  1.05133  0  0  0.108959  0.072652  0  1.056515  0
H  H15  1  0.62568236  0.05358972  0.07298763  1  0  0.071211  0  0.976137  0  0  0.074645  0  1.054447  0  0  0.07729  0  1.05132  0  0  0.109002  0.072764  0  1.056505  0
H  H16  1  0.37431591  0.44640728  0.57298718  1  0  0.071188  0  0.976126  0  0  0.074594  0  1.054472  0  0  0.077239  0  1.051346  0  0  0.108977  0.072713  0  1.056531  0
H  H17  1  0.37431970  0.94640880  0.92701259  1  0  0.071156  0  0.976067  0  0  0.074558  0  1.054424  0  0  0.077202  0  1.051298  0  0  0.108961  0.072677  0  1.056483  0
H  H18  1  0.77439129  0.64993778  0.10826725  1  0  0.108479  0  0.950891  0  0  0.118707  0  1.019318  0  0  0.12028  0  1.019035  0  0  0.100631  0.117454  0  1.019814  0
H  H19  1  0.77439009  0.14993893  0.39173227  1  0  0.108497  0  0.950857  0  0  0.118721  0  1.019277  0  0  0.120308  0  1.018978  0  0  0.10063  0.117469  0  1.019774  0
H  H20  1  0.22560716  0.35006189  0.89173238  1  0  0.108452  0  0.95087  0  0  0.118691  0  1.019296  0  0  0.120278  0  1.018998  0  0  0.100619  0.11744  0  1.019793  0
H  H21  1  0.22561021  0.85006184  0.60826856  1  0  0.108519  0  0.950884  0  0  0.118744  0  1.019298  0  0  0.12032  0  1.019011  0  0  0.100648  0.117492  0  1.019795  0
H  H22  1  0.58247327  0.69424653  0.15673688  1  0  0.108686  0  0.933114  0  0  0.121552  0  0.996322  0  0  0.123211  0  0.995917  0  0  0.101874  0.12054  0  0.9963  0
H  H23  1  0.58247189  0.19424778  0.34326125  1  0  0.108654  0  0.933127  0  0  0.121511  0  0.996345  0  0  0.12317  0  0.995942  0  0  0.101851  0.120499  0  0.996324  0
H  H24  1  0.41752655  0.30575312  0.84326276  1  0  0.108673  0  0.933109  0  0  0.121552  0  0.99632  0  0  0.123211  0  0.995916  0  0  0.10187  0.12054  0  0.996298  0
H  H25  1  0.41752936  0.80575520  0.65673779  1  0  0.108692  0  0.933133  0  0  0.121548  0  0.996345  0  0  0.123208  0  0.99594  0  0  0.101866  0.120537  0  0.996322  0
H  H26  1  0.25877367  0.52067619  0.15964066  1  0  0.111371  0  0.981324  0  0  0.118612  0  1.047213  0  0  0.122308  0  1.04506  0  0  0.105624  0.115628  0  1.049225  0
H  H27  1  0.25877275  0.02067855  0.34035855  1  0  0.111369  0  0.981336  0  0  0.118599  0  1.047234  0  0  0.122291  0  1.045093  0  0  0.105628  0.115615  0  1.049246  0
H  H28  1  0.74122704  0.47932235  0.84035897  1  0  0.11135  0  0.98135  0  0  0.118596  0  1.047233  0  0  0.122292  0  1.045081  0  0  0.105617  0.115612  0  1.049245  0
H  H29  1  0.74122802  0.97932332  0.65964109  1  0  0.111364  0  0.981341  0  0  0.118604  0  1.047231  0  0  0.1223  0  1.045077  0  0  0.105622  0.115619  0  1.049244  0
H  H30  1  0.97672002  0.20210503  0.59645872  1  0  0.071418  0  0.948464  0  0  0.079754  0  1.014775  0  0  0.081892  0  1.012834  0  0  0.112178  0.078092  0  1.016314  0
H  H31  1  0.97672053  0.70210552  0.90354061  1  0  0.071447  0  0.948515  0  0  0.079782  0  1.014826  0  0  0.08192  0  1.012885  0  0  0.112198  0.078121  0  1.016366  0
H  H32  1  0.02327844  0.79789463  0.40354091  1  0  0.071415  0  0.948495  0  0  0.079752  0  1.014803  0  0  0.08189  0  1.012862  0  0  0.11218  0.078091  0  1.016344  0
H  H33  1  0.02327929  0.29789414  0.09645903  1  0  0.071416  0  0.948476  0  0  0.079749  0  1.014794  0  0  0.081887  0  1.012851  0  0  0.112176  0.078087  0  1.016333  0
H  H34  1  0.53842547  0.32578791  0.49305743  1  0  0.073259  0  0.950383  0  0  0.082829  0  1.016054  0  0  0.084237  0  1.014961  0  0  0.114133  0.08201  0  1.016293  0
H  H35  1  0.53842720  0.82578585  0.00694292  1  0  0.073276  0  0.950422  0  0  0.082844  0  1.016084  0  0  0.084251  0  1.014991  0  0  0.114151  0.082024  0  1.016323  0
H  H36  1  0.46157394  0.67421397  0.50694220  1  0  0.07326  0  0.950416  0  0  0.08283  0  1.016079  0  0  0.084238  0  1.014986  0  0  0.114139  0.082011  0  1.016318  0
H  H37  1  0.46157350  0.17421269  0.99305731  1  0  0.073257  0  0.950421  0  0  0.082823  0  1.016095  0  0  0.08423  0  1.015002  0  0  0.114136  0.082004  0  1.016334  0
H  H38  1  0.71373811  0.39138480  0.05035403  1  0  0.119695  0  0.947176  0  0  0.130149  0  1.007255  0  0  0.13315  0  1.006811  0  0  0.108899  0.127898  0  1.007856  0
H  H39  1  0.71373654  0.89138632  0.44964522  1  0  0.119719  0  0.947198  0  0  0.130181  0  1.007272  0  0  0.133175  0  1.006836  0  0  0.108915  0.12793  0  1.007874  0
H  H40  1  0.28626123  0.60861375  0.94964620  1  0  0.119694  0  0.947209  0  0  0.130148  0  1.007291  0  0  0.133146  0  1.006849  0  0  0.108895  0.127897  0  1.007892  0
H  H41  1  0.28625967  0.10861448  0.55035501  1  0  0.119744  0  0.947227  0  0  0.13021  0  1.007284  0  0  0.13321  0  1.00684  0  0  0.108922  0.127957  0  1.007885  0
C  C42  1  0.94682487  0.49392410  0.30689853  1  0  0.130366  0  3.711838  0  0  0.100698  0  3.960984  0  0  0.107757  0  3.980464  0  0  0.040315  0.096072  0  3.947728  0
C  C43  1  0.94682734  0.99392499  0.19310142  1  0  0.130312  0  3.711831  0  0  0.100647  0  3.960974  0  0  0.107706  0  3.980452  0  0  0.040294  0.096021  0  3.947718  0
C  C44  1  0.05317583  0.50607444  0.69310110  1  0  0.130304  0  3.711912  0  0  0.100669  0  3.961045  0  0  0.107727  0  3.980526  0  0  0.040306  0.096045  0  3.947794  0
C  C45  1  0.05317520  0.00607464  0.80689881  1  0  0.13031  0  3.711852  0  0  0.100644  0  3.96099  0  0  0.107703  0  3.980469  0  0  0.040304  0.096018  0  3.947736  0
C  C46  1  0.88398769  0.52563692  0.23297377  1  0  -0.169786  0  3.699831  0  0  -0.186474  0  3.944682  0  0  -0.194529  0  3.96636  0  0  -0.086092  -0.180773  0  3.929102  0
C  C47  1  0.88398923  0.02563941  0.26702656  1  0  -0.16989  0  3.699837  0  0  -0.186575  0  3.944687  0  0  -0.194629  0  3.966362  0  0  -0.086088  -0.180875  0  3.929109  0
C  C48  1  0.11601301  0.47436162  0.76702526  1  0  -0.169725  0  3.699628  0  0  -0.186397  0  3.944508  0  0  -0.194451  0  3.966186  0  0  -0.086038  -0.180697  0  3.928929  0
C  C49  1  0.11601242  0.97436134  0.73297427  1  0  -0.169828  0  3.699695  0  0  -0.186486  0  3.944546  0  0  -0.194541  0  3.966222  0  0  -0.086071  -0.180785  0  3.928967  0
C  C50  1  0.72104231  0.57164094  0.22813136  1  0  0.169841  0  3.705192  0  0  0.18553  0  3.939619  0  0  0.190146  0  3.962204  0  0  0.017572  0.183065  0  3.92317  0
C  C51  1  0.72104291  0.07164121  0.27186819  1  0  0.169845  0  3.705061  0  0  0.18551  0  3.939534  0  0  0.190124  0  3.962123  0  0  0.017471  0.183045  0  3.923084  0
C  C52  1  0.27895887  0.42835870  0.77186827  1  0  0.169906  0  3.705052  0  0  0.185539  0  3.939602  0  0  0.190154  0  3.962192  0  0  0.017529  0.183076  0  3.923154  0
C  C53  1  0.27896010  0.92835954  0.72813204  1  0  0.169923  0  3.704934  0  0  0.185549  0  3.939465  0  0  0.190165  0  3.962051  0  0  0.017542  0.183085  0  3.923019  0
C  C54  1  0.62526319  0.58049134  0.29909909  1  0  -0.158516  0  3.697778  0  0  -0.177968  0  3.947279  0  0  -0.185127  0  3.967366  0  0  -0.081045  -0.173495  0  3.93345  0
C  C55  1  0.62526034  0.08049066  0.20090097  1  0  -0.158479  0  3.697746  0  0  -0.177988  0  3.947285  0  0  -0.185146  0  3.967374  0  0  -0.081041  -0.173517  0  3.933456  0
C  C56  1  0.37473982  0.41950941  0.70090054  1  0  -0.158538  0  3.697748  0  0  -0.178023  0  3.947295  0  0  -0.185181  0  3.967382  0  0  -0.081056  -0.173552  0  3.933466  0
C  C57  1  0.37474043  0.91951122  0.79909986  1  0  -0.158529  0  3.697691  0  0  -0.178054  0  3.947258  0  0  -0.185213  0  3.967346  0  0  -0.081057  -0.173583  0  3.933431  0
C  C58  1  0.69608643  0.54598570  0.37075841  1  0  0.125151  0  3.73603  0  0  0.091019  0  3.99654  0  0  0.098759  0  4.013953  0  0  0.038899  0.085675  0  3.984983  0
C  C59  1  0.69608509  0.04598293  0.12924114  1  0  0.125038  0  3.736193  0  0  0.090898  0  3.996715  0  0  0.098636  0  4.014131  0  0  0.038914  0.085555  0  3.985155  0
C  C60  1  0.30391474  0.45401395  0.62924122  1  0  0.125094  0  3.736056  0  0  0.090975  0  3.996579  0  0  0.098714  0  4.013993  0  0  0.038968  0.085634  0  3.985019  0
C  C61  1  0.30391561  0.95401561  0.87075849  1  0  0.125084  0  3.736096  0  0  0.090976  0  3.996625  0  0  0.098716  0  4.01404  0  0  0.038908  0.085634  0  3.985066  0
C  C62  1  0.65090237  0.60809807  0.14867159  1  0  -0.225347  0  3.691294  0  0  -0.268856  0  3.925937  0  0  -0.270974  0  3.935115  0  0  -0.156043  -0.267456  0  3.919542  0
C  C63  1  0.65090101  0.10809931  0.35132668  1  0  -0.225395  0  3.691316  0  0  -0.26885  0  3.925878  0  0  -0.270978  0  3.935051  0  0  -0.156019  -0.267447  0  3.919482  0
C  C64  1  0.34909704  0.39190381  0.85132745  1  0  -0.225388  0  3.691323  0  0  -0.2689  0  3.926004  0  0  -0.271029  0  3.935179  0  0  -0.156064  -0.2675  0  3.919609  0
C  C65  1  0.34909656  0.89190148  0.64867236  1  0  -0.225505  0  3.691259  0  0  -0.26894  0  3.92586  0  0  -0.27106  0  3.935036  0  0  -0.156074  -0.26754  0  3.919467  0
C  C66  1  0.50605952  0.47259851  0.11226470  1  0  0.167752  0  3.706912  0  0  0.185672  0  3.93916  0  0  0.190377  0  3.961886  0  0  0.016578  0.182775  0  3.923708  0
C  C67  1  0.50605725  0.97259905  0.38773429  1  0  0.167782  0  3.706917  0  0  0.185693  0  3.939175  0  0  0.190397  0  3.961904  0  0  0.016595  0.182795  0  3.923725  0
C  C68  1  0.49394030  0.52740114  0.88773553  1  0  0.167701  0  3.707031  0  0  0.185604  0  3.939329  0  0  0.190306  0  3.96206  0  0  0.016536  0.182707  0  3.923879  0
C  C69  1  0.49394080  0.02740284  0.61226534  1  0  0.16784  0  3.706928  0  0  0.185706  0  3.939238  0  0  0.19041  0  3.961963  0  0  0.016599  0.182808  0  3.923787  0
C  C70  1  0.30890296  0.44344663  0.12503210  1  0  -0.166894  0  3.696303  0  0  -0.184853  0  3.941036  0  0  -0.192734  0  3.961517  0  0  -0.085777  -0.179609  0  3.927212  0
C  C71  1  0.30890112  0.94344830  0.37496735  1  0  -0.166959  0  3.696328  0  0  -0.184916  0  3.941101  0  0  -0.192798  0  3.961579  0  0  -0.08583  -0.179672  0  3.927278  0
C  C72  1  0.69109591  0.55655081  0.87496813  1  0  -0.166886  0  3.696336  0  0  -0.184849  0  3.941089  0  0  -0.19273  0  3.961569  0  0  -0.085797  -0.179605  0  3.927267  0
C  C73  1  0.69109646  0.05655248  0.62503169  1  0  -0.166909  0  3.696336  0  0  -0.184861  0  3.941091  0  0  -0.192742  0  3.961571  0  0  -0.085786  -0.179618  0  3.927268  0
C  C74  1  0.17779160  0.32051916  0.08940681  1  0  0.141651  0  3.722033  0  0  0.110486  0  3.973943  0  0  0.118497  0  3.991824  0  0  0.045686  0.105245  0  3.961653  0
C  C75  1  0.17779125  0.82052076  0.41059264  1  0  0.141763  0  3.722071  0  0  0.110611  0  3.973976  0  0  0.118623  0  3.991857  0  0  0.045759  0.105369  0  3.961689  0
C  C76  1  0.82220958  0.67948048  0.91059342  1  0  0.141679  0  3.722017  0  0  0.110526  0  3.97393  0  0  0.118537  0  3.991814  0  0  0.045715  0.105285  0  3.961643  0
C  C77  1  0.82220816  0.17948113  0.58940640  1  0  0.141681  0  3.722108  0  0  0.11052  0  3.974009  0  0  0.118532  0  3.99189  0  0  0.045696  0.105279  0  3.96172  0
C  C78  1  0.57807071  0.24777166  0.53138793  1  0  0.139344  0  3.707991  0  0  0.10957  0  3.961782  0  0  0.117044  0  3.980901  0  0  0.044038  0.104982  0  3.947988  0
C  C79  1  0.57807187  0.74776979  0.96861280  1  0  0.139347  0  3.708084  0  0  0.109594  0  3.961857  0  0  0.117071  0  3.980973  0  0  0.044054  0.105007  0  3.948062  0
C  C80  1  0.42193005  0.75223021  0.46861230  1  0  0.139366  0  3.708029  0  0  0.109614  0  3.961815  0  0  0.117092  0  3.980931  0  0  0.044046  0.105026  0  3.948021  0
C  C81  1  0.42192747  0.25222876  0.03138683  1  0  0.139298  0  3.70824  0  0  0.109528  0  3.962029  0  0  0.117004  0  3.98115  0  0  0.044024  0.10494  0  3.948234  0
C  C82  1  0.56262346  0.37341980  0.06436185  1  0  -0.178554  0  3.694353  0  0  -0.197827  0  3.942086  0  0  -0.206506  0  3.965273  0  0  -0.087244  -0.192567  0  3.926672  0
C  C83  1  0.56262408  0.87342022  0.43563728  1  0  -0.178601  0  3.694317  0  0  -0.197892  0  3.942063  0  0  -0.206567  0  3.965254  0  0  -0.08725  -0.192631  0  3.92665  0
C  C84  1  0.43737357  0.62657654  0.93563778  1  0  -0.178536  0  3.694326  0  0  -0.197798  0  3.942052  0  0  -0.206477  0  3.965244  0  0  -0.087214  -0.192538  0  3.92664  0
C  C85  1  0.43737301  0.12657946  0.56436295  1  0  -0.178628  0  3.694367  0  0  -0.197898  0  3.942116  0  0  -0.206579  0  3.965306  0  0  -0.087256  -0.192637  0  3.926702  0
N  N86  1  0.85454097  0.50398460  0.37523747  1  0  -0.351475  0  3.272846  0  0  -0.271167  0  3.538082  0  0  -0.292319  0  3.558509  0  0  -0.337891  -0.256924  0  3.524337  0
N  N87  1  0.85453832  0.00398518  0.12476345  1  0  -0.351415  0  3.272905  0  0  -0.271107  0  3.538138  0  0  -0.29226  0  3.558569  0  0  -0.337887  -0.256864  0  3.524388  0
N  N88  1  0.14545885  0.49601506  0.62476276  1  0  -0.351438  0  3.272822  0  0  -0.271139  0  3.538056  0  0  -0.292293  0  3.558487  0  0  -0.337904  -0.256895  0  3.524307  0
N  N89  1  0.14546062  0.99601559  0.87523737  1  0  -0.351448  0  3.27289  0  0  -0.271139  0  3.538117  0  0  -0.292294  0  3.558548  0  0  -0.337899  -0.256896  0  3.52437  0
N  N90  1  0.23219611  0.22519997  0.04339829  1  0  -0.342761  0  3.257799  0  0  -0.264589  0  3.521126  0  0  -0.285017  0  3.540221  0  0  -0.332715  -0.250164  0  3.50749  0
N  N91  1  0.23219546  0.72520036  0.45660070  1  0  -0.342865  0  3.257693  0  0  -0.264719  0  3.52104  0  0  -0.285148  0  3.540131  0  0  -0.332785  -0.250294  0  3.507406  0
N  N92  1  0.76780323  0.77479858  0.95660194  1  0  -0.342834  0  3.257749  0  0  -0.264685  0  3.521105  0  0  -0.285113  0  3.540198  0  0  -0.332758  -0.250259  0  3.507468  0
N  N93  1  0.76780164  0.27479932  0.54339833  1  0  -0.342822  0  3.257817  0  0  -0.26464  0  3.521125  0  0  -0.285069  0  3.54022  0  0  -0.332732  -0.250216  0  3.507491  0
N  N94  1  0.79804581  0.71627681  0.59646914  1  0  0.715167  0  4.111434  0  0  0.73319  0  4.425122  0  0  0.761708  0  4.429609  0  0  0.093744  0.713994  0  4.421709  0
N  N95  1  0.79804553  0.21627682  0.90353121  1  0  0.715131  0  4.111491  0  0  0.733149  0  4.425183  0  0  0.761667  0  4.429671  0  0  0.093711  0.713953  0  4.421769  0
N  N96  1  0.20195400  0.28372284  0.40353049  1  0  0.715226  0  4.111381  0  0  0.733263  0  4.425054  0  0  0.761781  0  4.429538  0  0  0.093776  0.714066  0  4.421642  0
N  N97  1  0.20195700  0.78372281  0.09646961  1  0  0.71507  0  4.111541  0  0  0.733092  0  4.425233  0  0  0.76161  0  4.429719  0  0  0.09373  0.713895  0  4.421822  0
O  O98  1  0.75721381  0.58434125  0.56601854  1  0  -0.548124  0  1.801941  0  0  -0.518453  0  2.059726  0  0  -0.538069  0  2.050333  0  0  -0.227361  -0.504249  0  2.065345  0
O  O99  1  0.75721588  0.08434007  0.93398309  1  0  -0.548151  0  1.801941  0  0  -0.518472  0  2.059737  0  0  -0.538089  0  2.050343  0  0  -0.227367  -0.50427  0  2.065363  0
O  O100  1  0.24278329  0.41565842  0.43398169  1  0  -0.54814  0  1.801873  0  0  -0.518502  0  2.059692  0  0  -0.538116  0  2.050297  0  0  -0.227405  -0.5043  0  2.065317  0
O  O101  1  0.24278890  0.91565844  0.06601833  1  0  -0.548081  0  1.801949  0  0  -0.518416  0  2.059741  0  0  -0.538033  0  2.050348  0  0  -0.227375  -0.504212  0  2.06536  0
O  O102  1  0.91123914  0.82529271  0.55992801  1  0  -0.471241  0  1.731276  0  0  -0.458631  0  1.947489  0  0  -0.472008  0  1.941905  0  0  -0.187946  -0.448996  0  1.950715  0
O  O103  1  0.91123899  0.32529264  0.94007174  1  0  -0.471217  0  1.731327  0  0  -0.458596  0  1.947524  0  0  -0.471973  0  1.941941  0  0  -0.187927  -0.44896  0  1.950751  0
O  O104  1  0.08876068  0.17470695  0.44007163  1  0  -0.471271  0  1.731267  0  0  -0.458665  0  1.947472  0  0  -0.472042  0  1.94189  0  0  -0.18796  -0.44903  0  1.9507  0
O  O105  1  0.08876130  0.67470812  0.05992908  1  0  -0.471241  0  1.731323  0  0  -0.458628  0  1.947539  0  0  -0.472004  0  1.941955  0  0  -0.18795  -0.448994  0  1.950767  0
O  O106  1  0.72242967  0.73053303  0.66197107  1  0  -0.458922  0  1.71679  0  0  -0.450975  0  1.930152  0  0  -0.463613  0  1.92554  0  0  -0.189181  -0.441897  0  1.933328  0
O  O107  1  0.72242773  0.23052984  0.83802980  1  0  -0.458892  0  1.716798  0  0  -0.450946  0  1.93016  0  0  -0.463583  0  1.925548  0  0  -0.189163  -0.44187  0  1.933336  0
O  O108  1  0.27756974  0.26946886  0.33802976  1  0  -0.458934  0  1.716829  0  0  -0.450984  0  1.930186  0  0  -0.463624  0  1.925578  0  0  -0.189169  -0.441907  0  1.933362  0
O  O109  1  0.27757250  0.76946759  0.16197102  1  0  -0.458874  0  1.71687  0  0  -0.450931  0  1.930239  0  0  -0.463568  0  1.925626  0  0  -0.189148  -0.441854  0  1.933417  0
