# generated using pymatgen
data_CuH14C20(N2O3)2
_symmetry_space_group_name_H-M   'P 1'
_cell_length_a   8.75144691
_cell_length_b   9.35886598
_cell_length_c   14.13523401
_cell_angle_alpha   79.84250196
_cell_angle_beta   71.96703823
_cell_angle_gamma   62.12209801
_symmetry_Int_Tables_number   1
_chemical_formula_structural   CuH14C20(N2O3)2
_chemical_formula_sum   'Cu2 H28 C40 N8 O12'
_cell_volume   972.41054548
_cell_formula_units_Z   2
loop_
 _symmetry_equiv_pos_site_id
 _symmetry_equiv_pos_as_xyz
  1  'x, y, z'
loop_
 _atom_site_type_symbol
 _atom_site_label
 _atom_site_symmetry_multiplicity
 _atom_site_fract_x
 _atom_site_fract_y
 _atom_site_fract_z
 _atom_site_occupancy
 _atom_site_pbe_cm5_charge
 _atom_site_pbe_ddec_charge
 _atom_site_pbe_ddec_spin_density
 _atom_site_pbe_ddec_sum_bond_order
 _atom_site_pbe_magmom
Cu  Cu0  1  0.00000223  0.49999901  0.49999893  1  0.749299  0.799541  0.748302  2.107945  0.558
Cu  Cu1  1  0.99999974  0.99999999  0.99999906  1  0.749006  0.797823  -0.748904  2.110075  -0.559
H  H2  1  0.95433737  0.42565310  0.88375136  1  0.311423  0.287471  -5.6e-05  0.989331  0.0
H  H3  1  0.26355214  0.07412644  0.61616328  1  0.311387  0.286757  5.1e-05  0.990583  0.0
H  H4  1  0.04565091  0.57434005  0.11624717  1  0.311375  0.287326  -5.6e-05  0.9894  0.0
H  H5  1  0.73645386  0.92587638  0.38383424  1  0.311369  0.286748  5.1e-05  0.990625  0.0
H  H6  1  0.97936177  0.81460385  0.52379893  1  0.116238  0.09234  0.001075  1.027528  0.001
H  H7  1  0.31784561  0.68531203  0.97617779  1  0.116503  0.092539  -0.001047  1.028169  -0.001
H  H8  1  0.02064179  0.18539414  0.47620108  1  0.116252  0.092358  0.001075  1.027567  0.001
H  H9  1  0.68216404  0.31469321  0.02382084  1  0.116512  0.092522  -0.001047  1.028155  -0.001
H  H10  1  0.96014231  0.96437923  0.66130293  1  0.103588  0.115215  0.000692  1.039423  0.001
H  H11  1  0.58510147  0.53501055  0.83847632  1  0.103447  0.114834  -0.00069  1.039911  -0.001
H  H12  1  0.03985635  0.03561757  0.33870017  1  0.103581  0.11522  0.000692  1.039503  0.001
H  H13  1  0.41490920  0.46499712  0.16152365  1  0.103363  0.114758  -0.00069  1.040025  -0.001
H  H14  1  0.94105624  0.83902684  0.83305214  1  0.110472  0.135  -1.6e-05  1.05432  0.0
H  H15  1  0.61221992  0.66024890  0.66670278  1  0.110249  0.135061  3.3e-05  1.054367  0.0
H  H16  1  0.05894043  0.16096754  0.16694939  1  0.11052  0.135117  -1.5e-05  1.054181  0.0
H  H17  1  0.38778760  0.33975876  0.33329555  1  0.110235  0.135035  3.3e-05  1.05429  0.0
H  H18  1  0.98866781  0.42057623  0.71487224  1  0.121454  0.1048  0.001149  1.048605  0.002
H  H19  1  0.12451886  0.07957550  0.78516577  1  0.121347  0.104803  -0.001164  1.048342  -0.002
H  H20  1  0.01133171  0.57941812  0.28512647  1  0.121462  0.104831  0.001149  1.04863  0.002
H  H21  1  0.87548107  0.92042489  0.21483183  1  0.121369  0.104825  -0.001163  1.048334  -0.002
H  H22  1  0.42239714  0.64722658  0.42609391  1  0.105571  0.113015  -3.6e-05  0.987096  0.0
H  H23  1  0.49572680  0.85304931  0.07396018  1  0.105431  0.112959  3.7e-05  0.987906  0.0
H  H24  1  0.57759621  0.35278111  0.57390892  1  0.105565  0.113031  -3.6e-05  0.987112  0.0
H  H25  1  0.50427963  0.14694626  0.92603941  1  0.105456  0.112996  3.7e-05  0.987967  0.0
H  H26  1  0.68540907  0.70042908  0.33961112  1  0.098782  0.096495  -3.9e-05  1.030867  0.0
H  H27  1  0.72542268  0.79964385  0.16046645  1  0.098929  0.097087  3.7e-05  1.030241  0.0
H  H28  1  0.31458702  0.29957498  0.66039203  1  0.098791  0.096493  -3.9e-05  1.030895  0.0
H  H29  1  0.27457875  0.20035415  0.83953568  1  0.098933  0.097096  3.7e-05  1.030198  0.0
C  C30  1  0.97929816  0.76123165  0.59862372  1  0.03663  0.076463  6.6e-05  3.931514  -0.001
C  C31  1  0.33906275  0.73857938  0.90130045  1  0.036118  0.075401  -5.9e-05  3.934437  0.001
C  C32  1  0.02070294  0.23876756  0.40137932  1  0.036621  0.076464  6.5e-05  3.931439  -0.001
C  C33  1  0.66094350  0.26142344  0.09869801  1  0.036143  0.07547  -5.9e-05  3.934377  0.001
C  C34  1  0.96504571  0.84414699  0.67572682  1  -0.084924  -0.104321  0.003885  3.969399  0.004
C  C35  1  0.48437230  0.65540873  0.82410604  1  -0.084719  -0.103528  -0.003849  3.970551  -0.004
C  C36  1  0.03495322  0.15584857  0.32427185  1  -0.084908  -0.104285  0.003886  3.969324  0.004
C  C37  1  0.51563559  0.34460014  0.17589249  1  -0.084726  -0.103568  -0.00385  3.970463  -0.004
C  C38  1  0.95688624  0.77398701  0.77150307  1  -0.070615  -0.120601  -0.002582  3.872081  -0.002
C  C39  1  0.50176150  0.72548484  0.72829790  1  -0.070083  -0.119992  0.002595  3.87032  0.002
C  C40  1  0.04311062  0.22600859  0.22850125  1  -0.070688  -0.120796  -0.002581  3.872316  -0.002
C  C41  1  0.49824766  0.27451799  0.27170126  1  -0.070009  -0.119865  0.002595  3.870289  0.002
C  C42  1  0.96683518  0.61806721  0.78662928  1  0.108394  0.216269  0.003666  3.991101  0.004
C  C43  1  0.37133775  0.88172627  0.71326997  1  0.107885  0.215775  -0.003668  3.988575  -0.004
C  C44  1  0.03315963  0.38192594  0.21336994  1  0.108385  0.21628  0.003666  3.991015  0.004
C  C45  1  0.62866034  0.11827898  0.28672939  1  0.107857  0.215655  -0.003667  3.988752  -0.004
C  C46  1  0.98217455  0.54111953  0.70508693  1  0.04522  -0.012848  1.6e-05  3.901103  -0.001
C  C47  1  0.22858967  0.95887108  0.79489836  1  0.045344  -0.013027  3e-06  3.899782  0.001
C  C48  1  0.01782203  0.45887847  0.29491404  1  0.045224  -0.012881  1.6e-05  3.901148  -0.001
C  C49  1  0.77141171  0.04112450  0.20510266  1  0.045367  -0.012941  4e-06  3.899594  0.001
C  C50  1  0.99017187  0.56808195  0.95956931  1  0.244239  0.390673  0.000497  4.119066  0.001
C  C51  1  0.51783692  0.93197305  0.54045510  1  0.243957  0.390239  -0.000446  4.117714  -0.001
C  C52  1  0.00981711  0.43192332  0.04043313  1  0.244107  0.390409  0.000497  4.118783  0.001
C  C53  1  0.48216551  0.06802979  0.45954596  1  0.243891  0.390235  -0.000446  4.117703  -0.001
C  C54  1  0.14801796  0.69736533  0.35781955  1  0.209688  0.566602  0.001268  4.226238  -0.002
C  C55  1  0.20320479  0.80279759  0.14207400  1  0.207964  0.562701  -0.001253  4.232415  0.002
C  C56  1  0.85197963  0.30263750  0.64218035  1  0.209691  0.566609  0.001268  4.226123  -0.002
C  C57  1  0.79679676  0.19719314  0.85792573  1  0.207992  0.562651  -0.001252  4.232339  0.002
C  C58  1  0.31110296  0.72061517  0.29981801  1  -0.011657  -0.04777  0.004605  3.945692  0.005
C  C59  1  0.33151640  0.77952280  0.20012297  1  -0.01119  -0.046091  -0.004624  3.946591  -0.005
C  C60  1  0.68889754  0.27938766  0.70018258  1  -0.011685  -0.047821  0.004604  3.945651  0.005
C  C61  1  0.66848684  0.22047640  0.79987794  1  -0.011167  -0.046028  -0.004623  3.946506  -0.005
C  C62  1  0.44006349  0.69208931  0.34874587  1  -0.085638  -0.095232  0.000635  3.961878  0.0
C  C63  1  0.48087141  0.80807744  0.15127298  1  -0.085483  -0.094558  -0.000653  3.96322  0.0
C  C64  1  0.55993225  0.30791837  0.65125579  1  -0.085647  -0.095251  0.000635  3.961755  0.0
C  C65  1  0.51913170  0.19192056  0.84872868  1  -0.08553  -0.094591  -0.000653  3.963189  0.0
C  C66  1  0.58790027  0.72177754  0.29967440  1  -0.093986  -0.079516  -0.00149  4.007324  -0.001
C  C67  1  0.60930624  0.77829804  0.20038450  1  -0.094652  -0.082301  0.001485  4.007596  0.001
C  C68  1  0.41209712  0.27822530  0.70032808  1  -0.093963  -0.079479  -0.00149  4.007279  -0.001
C  C69  1  0.39069569  0.22170238  0.79961709  1  -0.094642  -0.0823  0.001484  4.007562  0.001
N  N70  1  0.98781716  0.61152550  0.61377023  1  -0.344634  -0.212789  0.060156  3.643094  0.075
N  N71  1  0.21323832  0.88849559  0.88621583  1  -0.344459  -0.212327  -0.060006  3.642837  -0.075
N  N72  1  0.01218409  0.38847128  0.38622911  1  -0.344616  -0.212776  0.060159  3.643282  0.075
N  N73  1  0.78676283  0.11150722  0.11378053  1  -0.344462  -0.21237  -0.060012  3.642747  -0.075
N  N74  1  0.96668538  0.53152828  0.87790147  1  -0.383613  -0.344628  0.000593  3.609303  0.001
N  N75  1  0.37597226  0.96827960  0.62199702  1  -0.384318  -0.344711  -0.000514  3.60776  -0.001
N  N76  1  0.03330290  0.46846486  0.12209707  1  -0.383494  -0.344378  0.000593  3.609471  0.001
N  N77  1  0.62403207  0.03172081  0.37800339  1  -0.384304  -0.344678  -0.000515  3.607673  -0.001
O  O78  1  0.99744249  0.69220551  0.97170913  1  -0.273761  -0.465691  0.001196  2.246353  0.001
O  O79  1  0.66162368  0.80805826  0.52844703  1  -0.273279  -0.465241  -0.000975  2.245752  -0.001
O  O80  1  0.00253976  0.30778040  0.02829431  1  -0.273708  -0.465664  0.001196  2.245709  0.001
O  O81  1  0.33837883  0.19194335  0.47155218  1  -0.273262  -0.465263  -0.000975  2.245744  -0.001
O  O82  1  0.99512950  0.80475089  0.35310717  1  -0.31685  -0.56709  0.000237  2.229773  0.001
O  O83  1  0.15301587  0.69545025  0.14668704  1  -0.315579  -0.564417  -0.000215  2.232207  -0.001
O  O84  1  0.00487270  0.19524713  0.64689778  1  -0.316857  -0.567114  0.000238  2.229562  0.001
O  O85  1  0.84699539  0.30454773  0.85331130  1  -0.315553  -0.564408  -0.000216  2.232001  -0.001
O  O86  1  0.18216101  0.56539534  0.41212093  1  -0.3203  -0.543045  0.067503  2.398807  0.092
O  O87  1  0.15963481  0.93487219  0.08783458  1  -0.319664  -0.541376  -0.067803  2.39922  -0.092
O  O88  1  0.81784158  0.43460505  0.58787644  1  -0.320302  -0.543053  0.0675  2.398847  0.092
O  O89  1  0.84036548  0.06512458  0.91216453  1  -0.319701  -0.541381  -0.067789  2.399401  -0.092
