# generated using pymatgen
data_CdH14C8Br2(N2O)2
_symmetry_space_group_name_H-M   'P 1'
_cell_length_a   9.40201431
_cell_length_b   9.48865193
_cell_length_c   14.49350000
_cell_angle_alpha   90.00000000
_cell_angle_beta   98.77195532
_cell_angle_gamma   90.00000000
_symmetry_Int_Tables_number   1
_chemical_formula_structural   CdH14C8Br2(N2O)2
_chemical_formula_sum   'Cd4 H56 C32 Br8 N16 O8'
_cell_volume   1277.87647767
_cell_formula_units_Z   4
loop_
 _symmetry_equiv_pos_site_id
 _symmetry_equiv_pos_as_xyz
  1  'x, y, z'
loop_
 _atom_site_type_symbol
 _atom_site_label
 _atom_site_symmetry_multiplicity
 _atom_site_fract_x
 _atom_site_fract_y
 _atom_site_fract_z
 _atom_site_occupancy
 _atom_site_pbe_bader_charge
 _atom_site_pbe_bader_spin_density
 _atom_site_pbe_cm5_charge
 _atom_site_pbe_ddec_charge
 _atom_site_pbe_ddec_spin_density
 _atom_site_pbe_ddec_sum_bond_order
 _atom_site_pbe_magmom
Cd  Cd0  1  0.67761329  0.27005944  0.03007695  1  1.034045  0  0.5858  0.720045  0  2.385067  0
Cd  Cd1  1  0.82238774  0.77005775  0.46992181  1  1.034039  0  0.585798  0.720042  0  2.385089  0
Cd  Cd2  1  0.32238991  0.72993720  0.96992316  1  1.034172  0  0.585798  0.720069  0  2.384959  0
Cd  Cd3  1  0.17761331  0.22994310  0.53007671  1  1.034047  0  0.585803  0.720056  0  2.385044  0
H  H4  1  0.66939550  0.29925642  0.26268999  1  0.117666  0  0.124296  0.111222  0  0.972042  0
H  H5  1  0.83060337  0.79925579  0.23730924  1  0.117612  0  0.124291  0.111218  0  0.972023  0
H  H6  1  0.33060554  0.70074548  0.73730922  1  0.117626  0  0.124325  0.111262  0  0.97212  0
H  H7  1  0.16939660  0.20074401  0.76269054  1  0.117622  0  0.124297  0.111244  0  0.972008  0
H  H8  1  0.68010575  0.11400355  0.23715693  1  0.148377  0  0.120545  0.107683  0  1.006442  0
H  H9  1  0.81989313  0.61400503  0.26284230  1  0.14816  0  0.120565  0.10769  0  1.00651  0
H  H10  1  0.31989422  0.88599625  0.76284286  1  0.148258  0  0.120558  0.107711  0  1.006414  0
H  H11  1  0.18010576  0.38599371  0.73715738  1  0.148247  0  0.120561  0.107745  0  1.006495  0
H  H12  1  0.48726220  0.95420931  0.26852932  1  0.128212  0  0.12293  0.109185  0  0.997705  0
H  H13  1  0.01273671  0.45420994  0.23146943  1  0.128239  0  0.12292  0.109168  0  0.997737  0
H  H14  1  0.51273777  0.04579049  0.73147116  1  0.128216  0  0.122912  0.109154  0  0.99775  0
H  H15  1  0.98725788  0.54578354  0.76852913  1  0.128286  0  0.122912  0.109128  0  0.997899  0
H  H16  1  0.34028156  0.02261860  0.32196605  1  0.112982  0  0.125799  0.104065  0  1.008981  0
H  H17  1  0.15971734  0.52261902  0.17803271  1  0.112979  0  0.125807  0.104075  0  1.008989  0
H  H18  1  0.65971948  0.97738120  0.67803385  1  0.112991  0  0.1258  0.104073  0  1.008978  0
H  H19  1  0.84027832  0.47738183  0.82196804  1  0.112993  0  0.125784  0.104077  0  1.008879  0
H  H20  1  0.37708295  0.12094974  0.04535355  1  0.109655  0  0.102665  0.076247  0  1.033919  0
H  H21  1  0.12291703  0.62095017  0.45464600  1  0.109654  0  0.102648  0.076235  0  1.033916  0
H  H22  1  0.62291701  0.87904900  0.95464693  1  0.109637  0  0.102678  0.076265  0  1.03386  0
H  H23  1  0.87708294  0.37904752  0.54535241  1  0.109635  0  0.102627  0.076216  0  1.033901  0
H  H24  1  0.50870421  0.01083399  0.11329795  1  0.08412  0  0.101853  0.080245  0  1.036516  0
H  H25  1  0.99129574  0.51083337  0.38670139  1  0.084126  0  0.101865  0.080273  0  1.036476  0
H  H26  1  0.49129684  0.98916580  0.88670264  1  0.084143  0  0.101869  0.080253  0  1.036528  0
H  H27  1  0.00870530  0.48916643  0.61329782  1  0.084109  0  0.101854  0.080277  0  1.036499  0
H  H28  1  0.48994945  0.44449307  0.17367735  1  0.103597  0  0.109092  0.091054  0  1.008631  0
H  H29  1  0.01004946  0.94449349  0.32632278  1  0.103586  0  0.109101  0.091084  0  1.008636  0
H  H30  1  0.51005160  0.55550673  0.82632254  1  0.103608  0  0.109095  0.091042  0  1.008596  0
H  H31  1  0.98994728  0.05550525  0.67367600  1  0.103608  0  0.109092  0.091045  0  1.008597  0
H  H32  1  0.36634365  0.37026229  0.08068675  1  0.110383  0  0.112616  0.087728  0  1.021824  0
H  H33  1  0.13365418  0.87026272  0.41931259  1  0.110393  0  0.112631  0.087791  0  1.02178  0
H  H34  1  0.63365631  0.62973751  0.91931304  1  0.110385  0  0.112617  0.08773  0  1.021823  0
H  H35  1  0.86634471  0.12973919  0.58068572  1  0.110361  0  0.112616  0.087739  0  1.021831  0
H  H36  1  0.32634060  0.27071074  0.35580474  1  0.079982  0  0.117512  0.083601  0  1.015064  0
H  H37  1  0.17365938  0.77071117  0.14419481  1  0.07996  0  0.117512  0.083604  0  1.015042  0
H  H38  1  0.67366044  0.72929011  0.64419447  1  0.079984  0  0.117504  0.083604  0  1.015016  0
H  H39  1  0.82633843  0.22929074  0.85580407  1  0.080003  0  0.117488  0.08358  0  1.014925  0
H  H40  1  0.46569428  0.38986255  0.33297720  1  0.148355  0  0.112892  0.10593  0  1.006931  0
H  H41  1  0.03430463  0.88986297  0.16702293  1  0.148351  0  0.11289  0.105921  0  1.006932  0
H  H42  1  0.53430569  0.61013830  0.66702328  1  0.148391  0  0.112886  0.105911  0  1.006929  0
H  H43  1  0.96569318  0.11013788  0.83297526  1  0.148402  0  0.112879  0.105894  0  1.00692  0
H  H44  1  0.16325370  0.17200547  0.23222945  1  0.104899  0  0.111567  0.085069  0  0.998339  0
H  H45  1  0.33674520  0.67200589  0.26776999  1  0.104908  0  0.111577  0.085076  0  0.998352  0
H  H46  1  0.83674626  0.82799538  0.76777034  1  0.104892  0  0.111569  0.085069  0  0.998324  0
H  H47  1  0.66325153  0.32799601  0.73222879  1  0.10497  0  0.111574  0.08508  0  0.998289  0
H  H48  1  0.17913934  0.21192895  0.11356089  1  0.051478  0  0.117046  0.09265  0  0.970488  0
H  H49  1  0.32085956  0.71192832  0.38643855  1  0.051486  0  0.117058  0.092655  0  0.970508  0
H  H50  1  0.82086170  0.78807085  0.88643900  1  0.051477  0  0.117046  0.092635  0  0.970496  0
H  H51  1  0.67913717  0.28807253  0.61355954  1  0.051436  0  0.117032  0.092644  0  0.970483  0
H  H52  1  0.49946296  0.15247582  0.45052979  1  0.141109  0  0.118438  0.128499  0  1.010641  0
H  H53  1  0.00054025  0.65247730  0.04947146  1  0.141118  0  0.11846  0.128553  0  1.010628  0
H  H54  1  0.50053915  0.84752397  0.54947159  1  0.141123  0  0.118451  0.128526  0  1.010655  0
H  H55  1  0.99945972  0.34752250  0.95052695  1  0.141134  0  0.118468  0.12856  0  1.010635  0
H  H56  1  0.65432239  0.24131563  0.42150171  1  0.124947  0  0.113344  0.126595  0  1.000358  0
H  H57  1  0.84568079  0.74131500  0.07849725  1  0.124971  0  0.113316  0.126573  0  1.000336  0
H  H58  1  0.34567866  0.75868944  0.57849887  1  0.125013  0  0.113324  0.126569  0  1.000338  0
H  H59  1  0.15431918  0.25868374  0.92150116  1  0.124975  0  0.113318  0.126556  0  1.000333  0
C  C60  1  0.60797950  0.20461495  0.23778366  1  0.487537  0  0.027718  -0.01709  0  3.725474  0
C  C61  1  0.89201938  0.70461432  0.26221558  1  0.487889  0  0.027749  -0.017029  0  3.725507  0
C  C62  1  0.39202047  0.79538380  0.76221682  1  0.487705  0  0.027709  -0.01711  0  3.725586  0
C  C63  1  0.10798059  0.29538653  0.73778214  1  0.487753  0  0.027723  -0.017163  0  3.725517  0
C  C64  1  0.41256601  0.04230422  0.27083784  1  0.502979  0  0.027202  -0.029371  0  3.781641  0
C  C65  1  0.08743397  0.54230464  0.22916240  1  0.502951  0  0.027212  -0.029366  0  3.78179  0
C  C66  1  0.58743503  0.95769558  0.72916343  1  0.502987  0  0.027191  -0.029431  0  3.781632  0
C  C67  1  0.91257030  0.45769515  0.77083575  1  0.502953  0  0.027191  -0.02942  0  3.781713  0
C  C68  1  0.43635949  0.10131998  0.11546928  1  0.540419  0  0.007427  -0.019307  0  3.888379  0
C  C69  1  0.06363941  0.60131935  0.38453016  1  0.540434  0  0.007444  -0.019318  0  3.888365  0
C  C70  1  0.56364155  0.89868087  0.88453062  1  0.540432  0  0.007374  -0.019314  0  3.888365  0
C  C71  1  0.93635948  0.39868150  0.61546952  1  0.540438  0  0.00746  -0.019305  0  3.888329  0
C  C72  1  0.42589570  0.35059037  0.15056755  1  0.514329  0  0.012813  -0.013093  0  3.871414  0
C  C73  1  0.07410321  0.85059080  0.34943259  1  0.514319  0  0.012793  -0.013184  0  3.871491  0
C  C74  1  0.57410534  0.64941048  0.84943235  1  0.514303  0  0.012831  -0.01305  0  3.871429  0
C  C75  1  0.92589461  0.14941005  0.65056699  1  0.514324  0  0.012813  -0.013095  0  3.871444  0
C  C76  1  0.40028238  0.29813824  0.30690970  1  0.506281  0  0.033881  -0.012793  0  3.782409  0
C  C77  1  0.09971760  0.79813867  0.19309123  1  0.506318  0  0.033896  -0.012779  0  3.782422  0
C  C78  1  0.59971759  0.70186261  0.69309147  1  0.506296  0  0.033916  -0.012745  0  3.782313  0
C  C79  1  0.90028236  0.20186008  0.80690718  1  0.506239  0  0.033948  -0.01268  0  3.782145  0
C  C80  1  0.23946840  0.19339944  0.18347854  1  0.578818  0  0.025335  0.010746  0  3.867326  0
C  C81  1  0.26053051  0.69339987  0.31652159  1  0.578945  0  0.025294  0.010685  0  3.867386  0
C  C82  1  0.76053157  0.80660035  0.81652194  1  0.578943  0  0.025303  0.010745  0  3.867402  0
C  C83  1  0.73946730  0.30659993  0.68347592  1  0.578873  0  0.025333  0.010758  0  3.867329  0
C  C84  1  0.58164405  0.15078011  0.40423617  1  0.167997  0  -0.060295  -0.233366  0  3.774362  0
C  C85  1  0.91835805  0.65078054  0.09576338  1  0.167964  0  -0.060301  -0.233462  0  3.774425  0
C  C86  1  0.41835914  0.84922285  0.59576394  1  0.167947  0  -0.060306  -0.233455  0  3.774439  0
C  C87  1  0.08164084  0.34921926  0.90423561  1  0.167967  0  -0.060327  -0.233463  0  3.774389  0
C  C88  1  0.66796740  0.01465540  0.42139164  1  1.586839  0  0.193511  0.59499  0  4.185471  0
C  C89  1  0.83203363  0.51465793  0.07860781  1  1.586792  0  0.193557  0.595171  0  4.18528  0
C  C90  1  0.33203472  0.98534440  0.57861182  1  1.586793  0  0.193598  0.595143  0  4.185265  0
C  C91  1  0.16796526  0.48534186  0.92139118  1  1.586783  0  0.193564  0.595105  0  4.185254  0
Br  Br92  1  0.48136145  0.27593382  0.88358292  1  -0.58796  0  -0.271501  -0.456961  0  1.201923  0
Br  Br93  1  0.01863853  0.77593425  0.61641594  1  -0.58794  0  -0.271497  -0.45696  0  1.201914  0
Br  Br94  1  0.51863959  0.72406492  0.11641836  1  -0.58796  0  -0.271495  -0.456948  0  1.20187  0
Br  Br95  1  0.98136251  0.22406660  0.38358258  1  -0.587957  0  -0.2715  -0.456956  0  1.201905  0
Br  Br96  1  0.84926988  0.05960067  0.06801712  1  -0.599337  0  -0.302881  -0.48382  0  1.196696  0
Br  Br97  1  0.65072899  0.55960004  0.43198212  1  -0.599335  0  -0.302881  -0.48383  0  1.196701  0
Br  Br98  1  0.15072901  0.94039807  0.93200326  1  -0.599443  0  -0.302886  -0.48383  0  1.196643  0
Br  Br99  1  0.34927098  0.44040186  0.56801767  1  -0.599373  0  -0.302879  -0.483832  0  1.196695  0
N  N100  1  0.52474589  0.22901040  0.14578845  1  -1.016936  0  -0.347466  -0.164745  0  3.473902  0
N  N101  1  0.97525298  0.72901083  0.35421148  1  -1.01704  0  -0.347506  -0.164833  0  3.474094  0
N  N102  1  0.47525407  0.77098939  0.85421203  1  -1.016928  0  -0.347477  -0.164829  0  3.474056  0
N  N103  1  0.02474483  0.27098791  0.64578741  1  -1.016934  0  -0.347477  -0.164793  0  3.474017  0
N  N104  1  0.50563384  0.17182209  0.30727854  1  -0.886755  0  -0.21989  0.114496  0  3.428344  0
N  N105  1  0.99436719  0.67182146  0.19272160  1  -0.886759  0  -0.219876  0.114532  0  3.428361  0
N  N106  1  0.49436721  0.82817981  0.69272205  1  -0.886768  0  -0.219861  0.114596  0  3.428292  0
N  N107  1  0.00563063  0.32817623  0.80727729  1  -0.886805  0  -0.219835  0.114635  0  3.428253  0
N  N108  1  0.33511047  0.07171409  0.17996139  1  -1.041454  0  -0.337328  -0.165853  0  3.466604  0
N  N109  1  0.16488951  0.57171451  0.32003816  1  -1.041596  0  -0.337371  -0.165859  0  3.466652  0
N  N110  1  0.66489165  0.92828571  0.82003930  1  -1.041643  0  -0.337314  -0.165852  0  3.466616  0
N  N111  1  0.83510723  0.42828423  0.67996062  1  -1.041618  0  -0.337327  -0.165836  0  3.466579  0
N  N112  1  0.32430768  0.32021935  0.21488675  1  -1.020498  0  -0.332432  -0.157375  0  3.438692  0
N  N113  1  0.17569231  0.82021978  0.28511349  1  -1.020511  0  -0.332415  -0.157329  0  3.438716  0
N  N114  1  0.67569337  0.67978044  0.78511315  1  -1.020507  0  -0.33242  -0.157385  0  3.438758  0
N  N115  1  0.82430551  0.17978002  0.71488609  1  -1.020547  0  -0.332421  -0.157412  0  3.438709  0
O  O116  1  0.69300926  0.97559907  0.50664266  1  -1.16163  0  -0.331202  -0.542772  0  2.207215  0
O  O117  1  0.80699392  0.47560075  0.99335631  1  -1.161649  0  -0.331221  -0.542882  0  2.2072  0
O  O118  1  0.30698963  0.02439862  0.49335771  1  -1.161544  0  -0.331261  -0.542898  0  2.207151  0
O  O119  1  0.19300605  0.52439694  0.00664210  1  -1.161603  0  -0.331257  -0.542873  0  2.207227  0
O  O120  1  0.71079007  0.94857416  0.35508538  1  -1.170425  0  -0.321301  -0.533477  0  2.204841  0
O  O121  1  0.78920988  0.44857478  0.14491396  1  -1.170372  0  -0.321327  -0.53355  0  2.204838  0
O  O122  1  0.28921850  0.05143091  0.64491733  1  -1.17046  0  -0.321317  -0.533491  0  2.204802  0
O  O123  1  0.21079009  0.55142501  0.85508514  1  -1.170398  0  -0.321305  -0.533517  0  2.204799  0
