# generated using pymatgen
data_Zn8H26C40S5O47
_symmetry_space_group_name_H-M   'P 1'
_cell_length_a   18.48273347
_cell_length_b   18.48994590
_cell_length_c   18.59159477
_cell_angle_alpha   119.53010004
_cell_angle_beta   90.90529304
_cell_angle_gamma   119.52006914
_symmetry_Int_Tables_number   1
_chemical_formula_structural   Zn8H26C40S5O47
_chemical_formula_sum   'Zn8 H26 C40 S5 O47'
_cell_volume   4521.15834197
_cell_formula_units_Z   1
loop_
 _symmetry_equiv_pos_site_id
 _symmetry_equiv_pos_as_xyz
  1  'x, y, z'
loop_
 _atom_site_type_symbol
 _atom_site_label
 _atom_site_symmetry_multiplicity
 _atom_site_fract_x
 _atom_site_fract_y
 _atom_site_fract_z
 _atom_site_occupancy
 _atom_site_pbe_bader_charge
 _atom_site_pbe_bader_spin_density
 _atom_site_pbe_cm5_charge
 _atom_site_pbe_ddec_charge
 _atom_site_pbe_ddec_spin_density
 _atom_site_pbe_ddec_sum_bond_order
 _atom_site_pbe_magmom
Zn  Zn0  1  0.45507188  0.59165694  0.53549654  1  1.308381  0  0.676422  0.957675  0  2.365566  0
Zn  Zn1  1  0.44923424  0.42128830  0.54229029  1  1.327655  0  0.689487  0.990218  0  2.330711  0
Zn  Zn2  1  0.62813999  0.58958473  0.53785309  1  1.335164  0  0.685183  0.977034  0  2.337392  0
Zn  Zn3  1  0.45431644  0.41918167  0.36788564  1  1.296043  0  0.673272  0.968857  0  2.387341  0
Zn  Zn4  1  0.05504166  0.42128026  0.96207098  1  1.311316  0  0.676534  0.970592  0  2.350551  0
Zn  Zn5  1  0.87548785  0.41443379  0.95229250  1  1.31736  0  0.6716  0.964099  0  2.365207  0
Zn  Zn6  1  0.04868331  0.58595273  0.95503537  1  1.30703  0  0.668174  0.949079  0  2.409076  0
Zn  Zn7  1  0.04295339  0.59041594  0.12892732  1  1.316245  0  0.67358  0.965679  0  2.36341  0
H  H8  1  0.32290009  0.56307933  0.16213244  1  0.083381  0  0.109832  0.101086  0  0.974384  0
H  H9  1  0.21955786  0.62397766  0.81211516  1  0.125436  0  0.122532  0.138638  0  0.967134  0
H  H10  1  0.23597183  0.46317659  0.80722450  1  0.116525  0  0.119118  0.143831  0  0.974896  0
H  H11  1  0.11348032  0.33848506  0.15544179  1  0.096956  0  0.112108  0.111911  0  0.972605  0
H  H12  1  0.18025912  0.45516470  0.34302497  1  0.108488  0  0.118113  0.119045  0  0.960194  0
H  H13  1  0.38927777  0.67956840  0.34908349  1  0.089891  0  0.10898  0.104343  0  0.97671  0
H  H14  1  0.75934859  0.08087873  0.75890488  1  0.122474  0  0.13306  0.158153  0  0.950469  0
H  H15  1  0.53313847  0.78384290  0.73859422  1  0.646378  0  0.321289  0.387703  0  0.912898  0
H  H16  1  0.57359553  0.41172079  0.21315025  1  0.644118  0  0.326466  0.359862  0  0.907428  0
H  H17  1  0.13769719  0.99051923  0.43699825  1  0.649372  0  0.367686  0.416368  0  0.813422  0
H  H18  1  0.34676181  0.14052809  0.22054139  1  0.620986  0  0.335073  0.369512  0  0.892068  0
H  H19  1  0.89983501  0.58501572  0.30142808  1  0.125737  0  0.112634  0.112485  0  0.974541  0
H  H20  1  0.92688314  0.67583619  0.77656805  1  0.602995  0  0.336905  0.357553  0  0.881263  0
H  H21  1  0.57196021  0.40005988  0.68223681  1  0.653377  0  0.33522  0.370717  0  0.885278  0
H  H22  1  0.38030721  0.71614585  0.82689257  1  0.632005  0  0.349179  0.377809  0  0.854323  0
H  H23  1  0.18278942  0.26755588  0.48868025  1  0.666329  0  0.315952  0.398792  0  0.924787  0
H  H24  1  0.31628373  0.74671627  0.50204850  1  0.632848  0  0.352296  0.402615  0  0.840338  0
H  H25  1  0.90117980  0.95992917  0.86447422  1  0.637386  0  0.355106  0.40654  0  0.831356  0
H  H26  1  0.88776644  0.96403027  0.72222314  1  0.653935  0  0.329329  0.37351  0  0.897184  0
H  H27  1  0.72997017  0.44159177  0.14058154  1  0.117895  0  0.109254  0.136947  0  1.015958  0
H  H28  1  0.80813694  0.58721983  0.39432611  1  0.11948  0  0.111131  0.124367  0  0.994786  0
H  H29  1  0.15149652  0.90463583  0.29216573  1  0.119648  0  0.111249  0.110344  0  1.015368  0
H  H30  1  0.22334048  0.91797746  0.14799444  1  0.138097  0  0.110881  0.136855  0  1.022392  0
H  H31  1  0.28599520  0.38909640  0.15343421  1  0.076689  0  0.104953  0.095803  0  0.985111  0
H  H32  1  0.74108487  0.44525340  0.78375500  1  0.134921  0  0.109528  0.155626  0  1.027531  0
H  H33  1  0.80055340  0.61263392  0.70486179  1  0.093388  0  0.10804  0.123326  0  1.022972  0
C  C34  1  0.35919810  0.23203951  0.35961829  1  1.595916  0  0.227598  0.545487  0  4.218304  0
C  C35  1  0.69281681  0.88244885  0.72925712  1  -0.020317  0  -0.053839  -0.405156  0  3.826171  0
C  C36  1  0.82859780  0.54044974  0.26841653  1  0.003646  0  -0.070993  0.004286  0  3.988658  0
C  C37  1  0.63511504  0.77527130  0.65261317  1  1.543474  0  0.22391  0.657086  0  4.150558  0
C  C38  1  0.79957460  0.48916155  0.17948786  1  -0.101278  0  -0.090373  -0.228333  0  3.843377  0
C  C39  1  0.77520554  0.54256454  0.32372236  1  0.047513  0  -0.094139  -0.179713  0  3.989566  0
C  C40  1  0.68582430  0.49477625  0.29749711  1  0.48082  0  0.073748  0.143895  0  4.056032  0
C  C41  1  0.19124677  0.94545803  0.26550510  1  0.005783  0  -0.076811  -0.028982  0  4.00226  0
C  C42  1  0.18923140  0.88732188  0.18323833  1  -0.05184  0  -0.088765  -0.209788  0  3.838775  0
C  C43  1  0.23983970  0.05476434  0.32097937  1  -0.093501  0  -0.021177  -0.183575  0  3.910061  0
C  C44  1  0.29748176  0.11841167  0.30034626  1  0.51721  0  0.098659  0.16756  0  3.966989  0
C  C45  1  0.17577283  0.41353423  0.19871581  1  0.012922  0  -0.063353  -0.054025  0  3.598445  0
C  C46  1  0.83557522  0.56643664  0.77908747  1  0.509646  0  0.092847  0.380943  0  4.071668  0
C  C47  1  0.81121158  0.50244424  0.80491448  1  0.012064  0  -0.122848  -0.387778  0  3.822294  0
C  C48  1  0.77319516  0.56136108  0.72548975  1  0.060236  0  -0.108902  -0.313298  0  3.982406  0
C  C49  1  0.34241069  0.49541158  0.61413714  1  1.570041  0  0.228978  0.671926  0  4.173695  0
C  C50  1  0.68322293  0.50081020  0.69560748  1  0.490306  0  0.078781  0.178801  0  4.057261  0
C  C51  1  0.24028388  0.57281784  0.79337900  1  -0.03939  0  -0.07505  -0.146174  0  3.987581  0
C  C52  1  0.21574520  0.51403553  0.82293974  1  0.012502  0  -0.073858  -0.181818  0  3.872738  0
C  C53  1  0.29529760  0.57322594  0.73767664  1  0.438112  0  0.103808  0.346508  0  4.050429  0
C  C54  1  0.27739381  0.48951547  0.66091848  1  -0.028058  0  -0.04932  -0.389705  0  3.838548  0
C  C55  1  0.86081011  0.49472121  0.12940604  1  1.538531  0  0.217796  0.638542  0  4.190274  0
C  C56  1  0.21125448  0.47772440  0.30149184  1  -0.042305  0  -0.05534  -0.056349  0  3.580694  0
C  C57  1  0.15591750  0.51154282  0.87536946  1  1.576068  0  0.226222  0.648957  0  4.159413  0
C  C58  1  0.87747250  0.23069045  0.86264854  1  1.599694  0  0.232293  0.645967  0  4.17297  0
C  C59  1  0.13643494  0.77548635  0.13362015  1  1.590496  0  0.217805  0.636518  0  4.187753  0
C  C60  1  0.86955498  0.50183559  0.85806709  1  1.501921  0  0.210805  0.66108  0  4.182686  0
C  C61  1  0.63631410  0.50303866  0.36005565  1  1.540056  0  0.220086  0.540772  0  4.215263  0
C  C62  1  0.14028997  0.50915069  0.14571516  1  1.586024  0  0.23127  0.605978  0  4.18354  0
C  C63  1  0.63108421  0.50691850  0.63920909  1  1.530194  0  0.2236  0.544772  0  4.205176  0
C  C64  1  0.36554888  0.50736379  0.35516502  1  1.522512  0  0.231175  0.615475  0  4.156983  0
C  C65  1  0.27042357  0.44191656  0.19670185  1  -0.026611  0  -0.0724  -0.064024  0  3.628446  0
C  C66  1  0.29216689  0.53837758  0.20262697  1  -0.030555  0  -0.06407  -0.054446  0  3.607088  0
C  C67  1  0.23344516  0.57428169  0.30737366  1  -0.117375  0  -0.004326  -0.106265  0  3.669329  0
C  C68  1  0.19674236  0.50978753  0.20416143  1  0.014544  0  0.005915  -0.01862  0  3.622564  0
C  C69  1  0.32821159  0.60333378  0.30544542  1  -0.022993  0  -0.066372  -0.069459  0  3.628392  0
C  C70  1  0.30720713  0.50696765  0.29943936  1  0.049075  0  -0.006352  -0.032243  0  3.657467  0
C  C71  1  0.83780392  0.05609325  0.81245373  1  -0.131765  0  -0.014005  -0.182341  0  3.969737  0
C  C72  1  0.82148118  0.11688986  0.80738512  1  0.101598  0  -0.040311  -0.1254  0  3.780193  0
C  C73  1  0.78174093  0.94435296  0.74636476  1  0.51387  0  0.114677  0.343252  0  4.053464  0
S  S74  1  0.64177490  0.93528013  0.80007426  1  3.135541  0  0.527594  1.188705  0  6.041713  0
S  S75  1  0.21947998  0.10970954  0.42252343  1  3.056848  0  0.557954  1.186839  0  5.930681  0
S  S76  1  0.17634525  0.36700754  0.61110521  1  3.118163  0  0.532386  1.204131  0  6.043983  0
S  S77  1  0.21029375  0.65922764  0.38225286  1  3.048028  0  0.5307  1.150634  0  6.017395  0
S  S78  1  0.93682228  0.09986473  0.88565036  1  3.070542  0  0.553842  1.168723  0  5.946199  0
O  O79  1  0.49813433  0.50412716  0.49611719  1  -1.219388  0  -0.572109  -1.0359  0  2.529194  0
O  O80  1  0.13196801  0.72996505  0.05325153  1  -1.169166  0  -0.320323  -0.548478  0  2.300673  0
O  O81  1  0.83003047  0.43073582  0.87017003  1  -1.170531  0  -0.332204  -0.568165  0  2.287481  0
O  O82  1  0.39223566  0.27256702  0.31837897  1  -1.16515  0  -0.31158  -0.546749  0  2.335853  0
O  O83  1  0.12561285  0.57713060  0.18107047  1  -1.149931  0  -0.304041  -0.530267  0  2.350818  0
O  O84  1  0.95323684  0.56936300  0.88861092  1  -1.164335  0  -0.321429  -0.544602  0  2.335128  0
O  O85  1  0.11470908  0.44003460  0.06411177  1  -1.163017  0  -0.311287  -0.536301  0  2.323276  0
O  O86  1  0.95960906  0.27511439  0.87434740  1  -1.159539  0  -0.302076  -0.532481  0  2.319518  0
O  O87  1  0.10026208  0.73372559  0.17281928  1  -1.170151  0  -0.317284  -0.548266  0  2.300374  0
O  O88  1  0.82400543  0.43905378  0.04560333  1  -1.165018  0  -0.320447  -0.550417  0  2.296813  0
O  O89  1  0.12397314  0.56198461  0.88619987  1  -1.164818  0  -0.310834  -0.539363  0  2.319534  0
O  O90  1  0.36636452  0.55513410  0.59036356  1  -1.152974  0  -0.308044  -0.52894  0  2.319675  0
O  O91  1  0.55074846  0.73060000  0.63624453  1  -1.162919  0  -0.312976  -0.567326  0  2.359407  0
O  O92  1  0.36867043  0.43936130  0.60247294  1  -1.140013  0  -0.311414  -0.545363  0  2.322391  0
O  O93  1  0.67705757  0.55803202  0.44246022  1  -1.167606  0  -0.305846  -0.517537  0  2.337321  0
O  O94  1  0.54692988  0.44505034  0.61593036  1  -1.160456  0  -0.31059  -0.546181  0  2.345539  0
O  O95  1  0.37131808  0.43181401  0.31799491  1  -1.161736  0  -0.317455  -0.549205  0  2.314804  0
O  O96  1  0.67177832  0.56944986  0.61924752  1  -1.173507  0  -0.30947  -0.524317  0  2.354283  0
O  O97  1  0.40479182  0.58300237  0.43608861  1  -1.170089  0  -0.316882  -0.54784  0  2.316073  0
O  O98  1  0.70294075  0.01151056  0.88851814  1  -1.299357  0  -0.309488  -0.510542  0  2.116663  0
O  O99  1  0.59869924  0.95724853  0.75655384  1  -1.285235  0  -0.326046  -0.541882  0  2.083366  0
O  O100  1  0.56956942  0.84175526  0.80141036  1  -1.219944  0  -0.367273  -0.530612  0  2.167065  0
O  O101  1  0.55222724  0.45076560  0.32181060  1  -1.187405  0  -0.321105  -0.563784  0  2.373746  0
O  O102  1  0.63419664  0.43563788  0.21210666  1  -1.142351  0  -0.332327  -0.39057  0  2.308632  0
O  O103  1  0.28334190  0.14185150  0.49582235  1  -1.272891  0  -0.308033  -0.523035  0  2.092427  0
O  O104  1  0.19772536  0.17559710  0.42462683  1  -1.293068  0  -0.295961  -0.529771  0  2.232754  0
O  O105  1  0.12625760  0.01318419  0.40311403  1  -1.194684  0  -0.347786  -0.517176  0  2.129015  0
O  O106  1  0.30526186  0.08015271  0.22002447  1  -1.092126  0  -0.309466  -0.364341  0  2.315315  0
O  O107  1  0.92265466  0.64003672  0.80273776  1  -1.095838  0  -0.3376  -0.416556  0  2.256634  0
O  O108  1  0.63410900  0.43165016  0.71256476  1  -1.144505  0  -0.323817  -0.383371  0  2.300453  0
O  O109  1  0.37099118  0.66550782  0.76709466  1  -1.116037  0  -0.331679  -0.41897  0  2.255082  0
O  O110  1  0.18666415  0.31015242  0.63737370  1  -1.28451  0  -0.327742  -0.552119  0  2.090047  0
O  O111  1  0.10549770  0.37931690  0.62042441  1  -1.280622  0  -0.316185  -0.521767  0  2.095549  0
O  O112  1  0.37678303  0.27639578  0.44143101  1  -1.150615  0  -0.286419  -0.499828  0  2.432384  0
O  O113  1  0.16968272  0.31974454  0.51085324  1  -1.24469  0  -0.368644  -0.544723  0  2.170552  0
O  O114  1  0.25818550  0.75245635  0.38799509  1  -1.28984  0  -0.32989  -0.549429  0  2.088872  0
O  O115  1  0.11738060  0.60440182  0.36828642  1  -1.28668  0  -0.310533  -0.506121  0  2.088019  0
O  O116  1  0.25736014  0.68288940  0.47327157  1  -1.175911  0  -0.368336  -0.542562  0  2.106921  0
O  O117  1  0.98950001  0.08177809  0.83084984  1  -1.282135  0  -0.312365  -0.54914  0  2.089012  0
O  O118  1  0.97186328  0.19447716  0.96762773  1  -1.262555  0  -0.268001  -0.455675  0  2.145391  0
O  O119  1  0.89806907  0.01603506  0.90730569  1  -1.1777  0  -0.351591  -0.520329  0  2.122566  0
O  O120  1  0.82505585  0.90709053  0.70082337  1  -1.116594  0  -0.314489  -0.390674  0  2.281204  0
O  O121  1  0.67029080  0.73311738  0.60691174  1  -1.162171  0  -0.309796  -0.525259  0  2.336788  0
O  O122  1  0.00572888  0.50102571  0.99982145  1  -1.219587  0  -0.572239  -1.034689  0  2.536097  0
O  O123  1  0.94399145  0.55364698  0.17194663  1  -1.179149  0  -0.319357  -0.554196  0  2.32851  0
O  O124  1  0.14126330  0.45703335  0.90395425  1  -1.159391  0  -0.313802  -0.542001  0  2.276757  0
O  O125  1  0.83440463  0.26919380  0.88860215  1  -1.149903  0  -0.293748  -0.5095  0  2.261796  0
