# generated using pymatgen
data_Cu3H20C20(N5O8)2
_symmetry_space_group_name_H-M   'P 1'
_cell_length_a   7.58920127
_cell_length_b   9.12600527
_cell_length_c   10.39245147
_cell_angle_alpha   103.73038038
_cell_angle_beta   98.79817611
_cell_angle_gamma   97.11176742
_symmetry_Int_Tables_number   1
_chemical_formula_structural   Cu3H20C20(N5O8)2
_chemical_formula_sum   'Cu3 H20 C20 N10 O16'
_cell_volume   681.29782160
_cell_formula_units_Z   1
loop_
 _symmetry_equiv_pos_site_id
 _symmetry_equiv_pos_as_xyz
  1  'x, y, z'
loop_
 _atom_site_type_symbol
 _atom_site_label
 _atom_site_symmetry_multiplicity
 _atom_site_fract_x
 _atom_site_fract_y
 _atom_site_fract_z
 _atom_site_occupancy
 _atom_site_hle17_ddec_charge
 _atom_site_hle17_ddec_spin_density
 _atom_site_hle17_ddec_sum_bond_order
 _atom_site_hle17_magmom
 _atom_site_hse06_10hf_ddec_charge
 _atom_site_hse06_10hf_ddec_spin_density
 _atom_site_hse06_10hf_ddec_sum_bond_order
 _atom_site_hse06_10hf_magmom
 _atom_site_hse06_ddec_charge
 _atom_site_hse06_ddec_spin_density
 _atom_site_hse06_ddec_sum_bond_order
 _atom_site_hse06_magmom
 _atom_site_pbe_cm5_charge
 _atom_site_pbe_ddec_charge
 _atom_site_pbe_ddec_spin_density
 _atom_site_pbe_ddec_sum_bond_order
 _atom_site_pbe_magmom
Cu  Cu0  1  0.49999939  0.99999680  0.49999953  1  0.896032  -0.493766  1.826216  -0.362  0.881212  -0.718082  2.235659  -0.573  0.980308  -0.853538  2.163108  -0.695  0.719152  0.809736  -0.482305  2.292491  -0.381
Cu  Cu1  1  0.59050227  0.63642671  0.42511232  1  0.984046  0.594712  1.791078  0.451  0.977437  0.755151  2.198998  0.617  1.066932  0.848541  2.123535  0.716  0.723766  0.913586  0.616649  2.258984  0.494
Cu  Cu2  1  0.40949542  0.36357520  0.57488277  1  0.98393  0.594697  1.79092  0.451  0.977223  0.755143  2.198951  0.617  1.066824  0.848536  2.12335  0.716  0.723603  0.913359  0.61665  2.258906  0.494
H  H3  1  0.79185347  0.88112669  0.53564749  1  0.408961  -0.00019  0.888318  -0.001  0.388443  -0.000175  0.944944  -0.001  0.401769  -0.000348  0.926646  -0.001  0.277685  0.378158  0.000106  0.95903  0.0
H  H4  1  0.20814363  0.11887067  0.46435236  1  0.409019  -0.000192  0.888238  -0.001  0.388482  -0.000177  0.944895  -0.001  0.401808  -0.000349  0.926602  -0.001  0.277716  0.378196  0.000105  0.958984  0.0
H  H5  1  0.21420901  0.46945157  0.21989071  1  0.136099  -0.00014  0.956099  0.0  0.140177  -0.000213  1.02026  0.0  0.143352  -0.000187  1.016036  0.0  0.151035  0.137491  -0.000159  1.023908  0.0
H  H6  1  0.78579893  0.53054834  0.78010113  1  0.136165  -0.000138  0.956056  0.0  0.140249  -0.000213  1.020213  0.0  0.143419  -0.000186  1.015985  0.0  0.151063  0.137554  -0.000159  1.023861  0.0
H  H7  1  0.06626123  0.90990950  0.32600306  1  0.143426  0.000388  0.983801  0.0  0.146047  0.000441  1.049988  0.0  0.150427  0.00036  1.044419  0.0  0.149879  0.142592  0.000412  1.054654  0.0
H  H8  1  0.93373409  0.09008440  0.67400071  1  0.143357  0.000389  0.98383  0.0  0.146037  0.000441  1.049949  0.0  0.150418  0.00036  1.044376  0.0  0.149832  0.14258  0.000412  1.054615  0.0
H  H9  1  0.83800510  0.48495240  0.40796010  1  0.42957  -0.000134  0.878821  -0.001  0.400943  0.000332  0.939563  0.0  0.411877  0.000213  0.924169  0.0  0.29607  0.393135  0.000389  0.95053  0.0
H  H10  1  0.16198882  0.51504943  0.59204518  1  0.429541  -0.000134  0.878859  -0.001  0.400889  0.000332  0.93965  0.0  0.411831  0.000213  0.924242  0.0  0.295991  0.393076  0.000389  0.950621  0.0
H  H11  1  0.93617163  0.64179027  0.52061291  1  0.421479  0.00013  0.892525  0.0  0.389672  0.000507  0.957629  0.001  0.403787  0.000358  0.93763  0.0  0.286727  0.379802  0.000555  0.97153  0.001
H  H12  1  0.06381941  0.35821035  0.47939087  1  0.421443  0.00013  0.8926  0.0  0.389633  0.000507  0.957708  0.001  0.403752  0.000357  0.937704  0.0  0.286677  0.379761  0.000555  0.971612  0.001
H  H13  1  0.89705153  0.68083303  0.09022468  1  0.293192  0.000139  0.930569  0.0  0.280719  7.5e-05  0.99745  0.0  0.285711  5.8e-05  0.993116  0.0  0.302297  0.277191  7.9e-05  1.000424  0.0
H  H14  1  0.10295219  0.31916450  0.90977298  1  0.293125  0.000139  0.930659  0.0  0.28066  7.5e-05  0.997529  0.0  0.285653  5.8e-05  0.993196  0.0  0.302279  0.27713  7.9e-05  1.000508  0.0
H  H15  1  0.82724201  0.56743211  0.18910387  1  0.315019  1.8e-05  0.92637  0.0  0.298914  -2.9e-05  0.999275  0.0  0.305133  -3.6e-05  0.993112  0.0  0.298105  0.294116  -2.2e-05  1.004159  0.0
H  H16  1  0.17275899  0.43256534  0.81089157  1  0.314992  1.8e-05  0.926422  0.0  0.29888  -2.9e-05  0.999347  0.0  0.305098  -3.6e-05  0.993187  0.0  0.298105  0.294079  -2.2e-05  1.004229  0.0
H  H17  1  0.21335813  0.85883085  0.03536711  1  0.122801  2.5e-05  0.934125  0.0  0.127298  -1e-06  0.999909  0.0  0.131958  -4e-06  0.995681  0.0  0.11459  0.123701  5e-06  1.003278  0.0
H  H18  1  0.78664228  0.14117114  0.96463019  1  0.122775  2.3e-05  0.934191  0.0  0.127281  -1e-06  0.999973  0.0  0.131938  -4e-06  0.995747  0.0  0.114592  0.123691  5e-06  1.003324  0.0
H  H19  1  0.47198002  0.72124447  0.08394705  1  0.119128  -5.7e-05  0.925987  0.0  0.128763  -7e-06  0.982546  0.0  0.132848  -1.8e-05  0.980242  0.0  0.11049  0.126241  -1.5e-05  0.983631  0.0
H  H20  1  0.52801989  0.27875410  0.91605141  1  0.119145  -5.4e-05  0.925984  0.0  0.128781  -7e-06  0.98253  0.0  0.132864  -1.7e-05  0.980229  0.0  0.110495  0.126254  -1.5e-05  0.983616  0.0
H  H21  1  0.75684828  0.87204257  0.23864826  1  0.098409  -5.1e-05  0.964303  0.0  0.103964  -0.000112  1.035603  0.0  0.108309  -0.000115  1.031875  0.0  0.104934  0.100484  -7.9e-05  1.03932  0.0
H  H22  1  0.24314943  0.12795822  0.76135526  1  0.098469  -4.9e-05  0.964225  0.0  0.104017  -0.000112  1.035535  0.0  0.108361  -0.000114  1.031809  0.0  0.104946  0.100533  -7.9e-05  1.039247  0.0
C  C23  1  0.22009059  0.58941331  0.26861329  1  0.176336  -0.006048  3.55586  -0.006  0.104315  -0.002375  3.816306  -0.003  0.119858  -0.002732  3.825919  -0.003  0.181639  0.094082  -0.001763  3.810172  -0.002
C  C24  1  0.77991459  0.41058539  0.73138188  1  0.176172  -0.006061  3.555936  -0.006  0.104156  -0.002375  3.816375  -0.003  0.119706  -0.002732  3.825993  -0.003  0.18154  0.093928  -0.001763  3.810233  -0.002
C  C25  1  0.14508593  0.81694007  0.32113210  1  0.14719  0.00364  3.542688  0.003  0.07675  0.001454  3.802369  0.001  0.092237  0.001806  3.812088  0.002  0.17239  0.066524  0.001173  3.796693  0.001
C  C26  1  0.85491494  0.18305512  0.67887249  1  0.147146  0.003634  3.54268  0.003  0.076683  0.001455  3.80239  0.001  0.092168  0.001807  3.812111  0.002  0.172334  0.066452  0.001173  3.796712  0.001
C  C27  1  0.55841315  0.34237192  0.25012095  1  0.655773  -0.003021  3.934041  -0.006  0.605602  -0.000148  4.248982  -0.003  0.64359  -0.000479  4.23934  -0.002  0.201727  0.579788  0.000243  4.253506  -0.002
C  C28  1  0.44158761  0.65763123  0.74988337  1  0.655932  -0.003026  3.934052  -0.006  0.605728  -0.000148  4.24904  -0.003  0.643717  -0.000479  4.239412  -0.002  0.201771  0.579912  0.000242  4.253566  -0.002
C  C29  1  0.53314941  0.16881408  0.21760885  1  -0.047952  0.006206  3.620301  0.007  -0.041194  0.004237  3.857598  0.005  -0.041093  0.002854  3.874635  0.004  0.014285  -0.041435  0.004724  3.847401  0.006
C  C30  1  0.46685671  0.83119034  0.78238856  1  -0.047981  0.006211  3.620251  0.007  -0.041222  0.004239  3.857569  0.005  -0.041122  0.002854  3.874607  0.004  0.014288  -0.041471  0.004725  3.847385  0.006
C  C31  1  0.36803322  0.07865191  0.14546103  1  0.055503  0.001263  3.691028  0.001  0.035226  0.000839  3.940424  0.001  0.031234  0.000595  3.962576  0.001  0.081623  0.037471  0.001089  3.926769  0.001
C  C32  1  0.63196854  0.92135012  0.85453641  1  0.055433  0.001258  3.691084  0.001  0.035158  0.000838  3.940463  0.001  0.031165  0.000595  3.962615  0.001  0.081572  0.0374  0.00109  3.926815  0.001
C  C33  1  0.34239858  0.91956623  0.09766990  1  -0.08451  -0.000668  3.710898  -0.001  -0.113988  -0.000164  3.979705  0.0  -0.11246  -0.000212  3.99808  0.0  -0.076679  -0.114738  -6.1e-05  3.967798  0.0
C  C34  1  0.65760172  0.08043462  0.90233004  1  -0.084481  -0.000649  3.710968  -0.001  -0.113978  -0.000163  3.979769  0.0  -0.112448  -0.000214  3.998142  0.0  -0.076691  -0.114728  -6.1e-05  3.967862  0.0
C  C35  1  0.48597902  0.84428362  0.12589560  1  -0.056896  0.001857  3.739263  0.002  -0.079952  0.00093  4.012786  0.001  -0.083736  0.000638  4.033501  0.001  -0.087404  -0.077369  0.001332  3.998277  0.001
C  C36  1  0.51402391  0.15571730  0.87410269  1  -0.056958  0.00184  3.739333  0.002  -0.080002  0.00093  4.01287  0.001  -0.083784  0.000639  4.033584  0.001  -0.087451  -0.077419  0.001333  3.998357  0.001
C  C37  1  0.64630739  0.92896290  0.20759831  1  -0.045327  -0.000377  3.715884  0.0  -0.084477  0.000119  3.99635  0.0  -0.082979  4.5e-05  4.014604  0.0  -0.076814  -0.085089  0.00016  3.9848  0.0
C  C38  1  0.35369407  0.07103684  0.79240151  1  -0.045415  -0.000377  3.715942  0.0  -0.084577  0.00012  3.996393  0.0  -0.08308  4.4e-05  4.014652  0.0  -0.076837  -0.085183  0.00016  3.984831  0.0
C  C39  1  0.67312590  0.08907517  0.25345687  1  -0.088748  0.001787  3.695285  0.001  -0.082105  0.001407  3.952189  0.001  -0.090804  0.00118  3.974086  0.001  -0.013081  -0.076811  0.00146  3.938501  0.001
C  C40  1  0.32687454  0.91092682  0.74654139  1  -0.088749  0.001787  3.695301  0.001  -0.082074  0.001406  3.952167  0.001  -0.090777  0.00118  3.974068  0.001  -0.013067  -0.076782  0.00146  3.938479  0.001
C  C41  1  0.85419240  0.16612435  0.34128795  1  0.662616  0.00023  3.893284  0.0  0.602158  0.000361  4.205064  0.0  0.634816  0.000249  4.19988  0.0  0.209328  0.580011  0.000432  4.207858  0.001
C  C42  1  0.14580532  0.83387644  0.65871557  1  0.662712  0.000231  3.893248  0.0  0.602257  0.000361  4.205011  0.0  0.634916  0.000249  4.199827  0.0  0.209385  0.580106  0.000432  4.20781  0.001
N  N43  1  0.30879432  0.82363391  0.39104317  1  -0.228238  -0.038719  3.263011  -0.05  -0.186654  -0.03987  3.577433  -0.055  -0.215142  -0.038  3.601505  -0.055  -0.254925  -0.167792  -0.029474  3.562946  -0.04
N  N44  1  0.69120779  0.17636130  0.60895770  1  -0.228124  -0.038713  3.262928  -0.05  -0.186592  -0.039866  3.577397  -0.055  -0.215084  -0.037998  3.601485  -0.054  -0.254872  -0.167737  -0.029474  3.562912  -0.04
N  N45  1  0.35372344  0.68121231  0.35897814  1  -0.241031  0.04678  3.323094  0.062  -0.2132  0.040175  3.658188  0.056  -0.239483  0.036245  3.679054  0.053  -0.267993  -0.195051  0.037428  3.644954  0.051
N  N46  1  0.64628297  0.31878529  0.64101980  1  -0.241012  0.046786  3.32319  0.062  -0.213112  0.040171  3.658248  0.056  -0.239419  0.036241  3.679127  0.053  -0.267906  -0.194961  0.037427  3.645001  0.051
N  N47  1  0.08720671  0.67100838  0.24220284  1  0.099516  0.000653  3.615234  0.001  0.215651  0.000314  3.800091  0.0  0.20674  0.000164  3.81657  0.0  -0.13057  0.220658  0.000544  3.78912  0.001
N  N48  1  0.91279567  0.32898912  0.75779468  1  0.099566  0.000656  3.615135  0.001  0.215669  0.000315  3.800075  0.0  0.206759  0.000165  3.816552  0.0  -0.13054  0.220675  0.000544  3.7891  0.001
N  N49  1  0.93101758  0.60772653  0.14689507  1  -0.524374  -0.002504  2.921875  -0.003  -0.54269  -0.001238  3.147935  -0.001  -0.553571  -0.00074  3.14696  -0.001  -0.497344  -0.533752  -0.001247  3.14855  -0.001
N  N50  1  0.06898462  0.39226981  0.85310219  1  -0.524221  -0.002502  2.921958  -0.003  -0.542533  -0.001238  3.148039  -0.001  -0.553416  -0.000741  3.147067  -0.001  -0.497305  -0.533601  -0.001247  3.148653  -0.001
N  N51  1  0.21042723  0.14990718  0.11578615  1  0.484895  -5.9e-05  3.9161  0.0  0.539233  2.4e-05  4.16907  0.0  0.562063  1.7e-05  4.173995  0.0  0.058801  0.523658  3.8e-05  4.166287  0.0
N  N52  1  0.78957609  0.85009603  0.88421362  1  0.484938  -6.2e-05  3.916044  0.0  0.539333  2.5e-05  4.168958  0.0  0.562164  1.7e-05  4.173883  0.0  0.058829  0.523755  3.8e-05  4.16618  0.0
O  O53  1  0.65974062  0.85199213  0.50349206  1  -0.882041  0.018414  1.923553  0.026  -0.891751  0.007261  2.256068  0.011  -0.95652  0.005037  2.22412  0.009  -0.602591  -0.845341  0.015386  2.281095  0.021
O  O54  1  0.34025894  0.14799618  0.49650230  1  -0.882038  0.018424  1.923336  0.026  -0.891701  0.007265  2.255841  0.011  -0.956496  0.005038  2.223878  0.009  -0.602591  -0.845293  0.01539  2.280869  0.021
O  O55  1  0.62582136  0.40576579  0.17145922  1  -0.577511  0.000294  1.940545  0.001  -0.539411  0.000344  2.167539  0.001  -0.564999  -0.000361  2.158037  0.0  -0.301565  -0.520375  0.000907  2.172317  0.002
O  O56  1  0.37418832  0.59423532  0.82854170  1  -0.577617  0.000297  1.940611  0.001  -0.53951  0.000344  2.167639  0.001  -0.565097  -0.000361  2.158124  0.0  -0.301639  -0.520471  0.000908  2.172409  0.002
O  O57  1  0.83632335  0.59714715  0.43601401  1  -0.832536  0.05146  2.003597  0.072  -0.798309  0.039372  2.241811  0.058  -0.833644  0.032739  2.203042  0.05  -0.594052  -0.772422  0.038435  2.269308  0.054
O  O58  1  0.16366774  0.40285346  0.56399170  1  -0.832488  0.051463  2.003679  0.072  -0.798173  0.039372  2.24183  0.058  -0.833526  0.032739  2.203026  0.05  -0.593885  -0.772284  0.038435  2.269329  0.054
O  O59  1  0.50504139  0.41039086  0.35838750  1  -0.65354  0.068984  2.099621  0.098  -0.643209  0.049175  2.419699  0.075  -0.687684  0.038474  2.406164  0.062  -0.333548  -0.610569  0.050907  2.427476  0.074
O  O60  1  0.49495956  0.58962254  0.64161416  1  -0.65354  0.069  2.099704  0.098  -0.643197  0.049181  2.419809  0.075  -0.687655  0.038477  2.406216  0.062  -0.333494  -0.610556  0.050912  2.427577  0.074
O  O61  1  0.23305626  0.27296831  0.08248326  1  -0.375236  7.9e-05  1.829558  0.0  -0.351776  6.9e-05  2.020178  0.0  -0.366413  4.9e-05  2.015747  0.0  -0.122349  -0.342489  0.000161  2.023948  0.0
O  O62  1  0.76694645  0.72703146  0.91751284  1  -0.375197  9.5e-05  1.829443  0.0  -0.351784  6.7e-05  2.020081  0.0  -0.366418  4.9e-05  2.015638  0.0  -0.122329  -0.3425  0.000161  2.023867  0.0
O  O63  1  0.06165085  0.08378949  0.12355732  1  -0.318876  -1.7e-05  1.818471  0.0  -0.313229  -4.7e-05  2.024053  0.0  -0.323524  -2.8e-05  2.019069  0.0  -0.105219  -0.306199  -4.3e-05  2.027911  0.0
O  O64  1  0.93835330  0.91621831  0.87644734  1  -0.318919  -3.2e-05  1.818487  0.0  -0.313328  -4.6e-05  2.0241  0.0  -0.323626  -2.8e-05  2.019115  0.0  -0.105259  -0.306297  -4.3e-05  2.027959  0.0
O  O65  1  0.89248846  0.31258927  0.37162207  1  -0.634319  0.002786  2.042279  0.004  -0.567116  0.001576  2.259376  0.002  -0.59375  0.000901  2.249321  0.001  -0.319307  -0.548327  0.00202  2.265694  0.003
O  O66  1  0.10750718  0.68741488  0.62838386  1  -0.634302  0.002784  2.042291  0.004  -0.567082  0.001577  2.259388  0.002  -0.59372  0.000902  2.24933  0.001  -0.319315  -0.548286  0.00202  2.265702  0.003
O  O67  1  0.95887702  0.08287109  0.38179726  1  -0.610813  -0.000983  2.002816  -0.001  -0.552813  -0.000744  2.231192  -0.001  -0.576977  -0.000493  2.2227  -0.001  -0.311443  -0.535727  -0.000625  2.237323  -0.001
O  O68  1  0.04112235  0.91713202  0.61820498  1  -0.61086  -0.000982  2.002743  -0.001  -0.552896  -0.000743  2.231122  -0.001  -0.577065  -0.000493  2.222631  -0.001  -0.311476  -0.535811  -0.000625  2.237256  -0.001
