# generated using pymatgen
data_Cu2H10C18N4Cl3
_symmetry_space_group_name_H-M   'P 1'
_cell_length_a   6.14830958
_cell_length_b   10.07978910
_cell_length_c   13.97841047
_cell_angle_alpha   90.00179707
_cell_angle_beta   89.99909890
_cell_angle_gamma   104.84801890
_symmetry_Int_Tables_number   1
_chemical_formula_structural   Cu2H10C18N4Cl3
_chemical_formula_sum   'Cu4 H20 C36 N8 Cl6'
_cell_volume   837.36687863
_cell_formula_units_Z   2
loop_
 _symmetry_equiv_pos_site_id
 _symmetry_equiv_pos_as_xyz
  1  'x, y, z'
loop_
 _atom_site_type_symbol
 _atom_site_label
 _atom_site_symmetry_multiplicity
 _atom_site_fract_x
 _atom_site_fract_y
 _atom_site_fract_z
 _atom_site_occupancy
 _atom_site_hle17_ddec_charge
 _atom_site_hle17_ddec_spin_density
 _atom_site_hle17_ddec_sum_bond_order
 _atom_site_hle17_magmom
 _atom_site_hse06_10hf_ddec_charge
 _atom_site_hse06_10hf_ddec_spin_density
 _atom_site_hse06_10hf_ddec_sum_bond_order
 _atom_site_hse06_10hf_magmom
 _atom_site_hse06_ddec_charge
 _atom_site_hse06_ddec_spin_density
 _atom_site_hse06_ddec_sum_bond_order
 _atom_site_hse06_magmom
 _atom_site_pbe_cm5_charge
 _atom_site_pbe_ddec_charge
 _atom_site_pbe_ddec_spin_density
 _atom_site_pbe_ddec_sum_bond_order
 _atom_site_pbe_magmom
Cu  Cu0  1  0.23734068  0.04097295  0.24999457  1  0.641869  0.475931  1.914185  0.375  0.609584  0.597469  2.33317  0.49  0.742766  0.761825  2.23869  0.639  0.532978  0.557338  0.531336  2.383668  0.431
Cu  Cu1  1  0.76265805  0.95903927  0.74999419  1  0.641758  0.475923  1.91436  0.375  0.609471  0.597469  2.333371  0.49  0.742708  0.761842  2.238827  0.639  0.532969  0.557251  0.531323  2.383843  0.431
Cu  Cu2  1  0.73413536  0.88688052  0.24999671  1  0.545778  0.252346  1.970458  0.204  0.427515  0.183725  2.480449  0.155  0.377517  0.052073  2.473669  0.045  0.352468  0.442071  0.234503  2.496107  0.196
Cu  Cu3  1  0.26585410  0.11312563  0.74998704  1  0.545672  0.252368  1.970711  0.204  0.427408  0.183735  2.48074  0.155  0.377346  0.052061  2.473975  0.045  0.3524  0.441939  0.234517  2.496416  0.196
H  H4  1  0.30411200  0.09001415  0.02812348  1  0.087503  0.001543  0.971508  0.002  0.097839  0.001577  1.033386  0.002  0.102046  0.001441  1.030164  0.002  0.101859  0.095686  0.001758  1.034715  0.002
H  H5  1  0.69585962  0.90999254  0.52812169  1  0.087471  0.00154  0.971687  0.002  0.097818  0.001577  1.033552  0.002  0.102035  0.001441  1.030299  0.002  0.101837  0.095661  0.001757  1.034879  0.002
H  H6  1  0.69589012  0.90998047  0.97186814  1  0.087461  0.001545  0.971688  0.002  0.09781  0.001577  1.033558  0.002  0.10203  0.001441  1.030291  0.002  0.10185  0.095651  0.001757  1.034894  0.002
H  H7  1  0.30412219  0.09000752  0.47186707  1  0.087425  0.001544  0.971682  0.002  0.097774  0.001577  1.03357  0.002  0.101997  0.001442  1.030298  0.002  0.10182  0.095621  0.001758  1.034898  0.002
H  H8  1  0.62725575  0.21165048  0.92516222  1  0.11005  0.000303  0.993539  0.0  0.11715  0.00027  1.060371  0.0  0.123013  0.000275  1.057122  0.0  0.092619  0.113735  0.000382  1.061779  0.0
H  H9  1  0.37270074  0.78835703  0.42516895  1  0.109984  0.00031  0.993812  0.0  0.117033  0.00027  1.060693  0.0  0.122899  0.000275  1.057427  0.0  0.092597  0.113612  0.000382  1.062111  0.0
H  H10  1  0.37276070  0.78834704  0.07482868  1  0.110112  0.000315  0.993568  0.0  0.117164  0.00027  1.060446  0.0  0.12303  0.000274  1.05718  0.0  0.09255  0.113742  0.000382  1.061863  0.0
H  H11  1  0.62726929  0.21164216  0.57482983  1  0.110063  0.000319  0.993752  0.0  0.117123  0.00027  1.060615  0.0  0.122989  0.000274  1.057352  0.0  0.092587  0.11371  0.000382  1.06202  0.0
H  H12  1  0.98768608  0.34133296  0.00477112  1  0.104784  0.000178  0.939862  0.0  0.115791  7e-05  1.000921  0.0  0.119416  1.1e-05  0.996694  0.0  0.112086  0.11345  0.000102  1.00355  0.0
H  H13  1  0.01227756  0.65867186  0.50477132  1  0.104899  0.000172  0.93958  0.0  0.115879  7e-05  1.000641  0.0  0.119506  1.1e-05  0.996418  0.0  0.112055  0.113525  0.000102  1.003269  0.0
H  H14  1  0.01233105  0.65866249  0.99522622  1  0.104801  0.000177  0.939686  0.0  0.115841  7e-05  1.000739  0.0  0.119468  1.1e-05  0.996505  0.0  0.112087  0.113491  0.000102  1.003368  0.0
H  H15  1  0.98769524  0.34132626  0.49522603  1  0.104792  0.000171  0.939698  0.0  0.115776  7e-05  1.000777  0.0  0.119399  1.1e-05  0.996557  0.0  0.112051  0.113438  0.000102  1.003406  0.0
H  H16  1  0.61913749  0.55906147  0.07040149  1  0.109646  1.3e-05  0.942756  0.0  0.116776  2e-06  1.010722  0.0  0.119582  4e-06  1.009666  0.0  0.105192  0.114521  -2e-06  1.012006  0.0
H  H17  1  0.38084650  0.44094779  0.57041052  1  0.109744  1.7e-05  0.942595  0.0  0.116864  2e-06  1.010567  0.0  0.119671  4e-06  1.00951  0.0  0.105219  0.114609  -2e-06  1.011853  0.0
H  H18  1  0.38087623  0.44094435  0.92960944  1  0.109635  1.1e-05  0.942766  0.0  0.116739  2e-06  1.010778  0.0  0.119546  4e-06  1.00972  0.0  0.10513  0.114486  -2e-06  1.01207  0.0
H  H19  1  0.61915398  0.55903962  0.42959898  1  0.109635  7e-06  0.942873  0.0  0.116767  2e-06  1.010831  0.0  0.119574  4e-06  1.009772  0.0  0.105168  0.114513  -2e-06  1.012117  0.0
H  H20  1  0.96560185  0.67720661  0.16225844  1  0.100174  -5.5e-05  0.963559  0.0  0.111506  -2.5e-05  1.021545  0.0  0.113463  -2.4e-05  1.020748  0.0  0.094029  0.109927  -1.6e-05  1.022067  0.0
H  H21  1  0.03439760  0.32279172  0.66227045  1  0.100208  -4.3e-05  0.963581  0.0  0.111492  -2.4e-05  1.021615  0.0  0.113457  -2.4e-05  1.020818  0.0  0.094028  0.109911  -1.6e-05  1.022152  0.0
H  H22  1  0.03440814  0.32279100  0.83775464  1  0.100122  -5.2e-05  0.963488  0.0  0.111452  -2.5e-05  1.021476  0.0  0.113416  -2.4e-05  1.020679  0.0  0.094015  0.109868  -1.6e-05  1.022018  0.0
H  H23  1  0.96560819  0.67719666  0.33774549  1  0.100177  -4e-05  0.963568  0.0  0.111463  -2.4e-05  1.021605  0.0  0.113421  -2.4e-05  1.020808  0.0  0.094031  0.10988  -1.6e-05  1.022135  0.0
C  C24  1  0.46246132  0.14748391  0.05971023  1  0.155028  -0.004819  3.650708  -0.003  0.125891  -0.001074  3.899277  -0.001  0.138182  -0.002784  3.911828  -0.002  0.056243  0.118965  -9.5e-05  3.889815  0.0
C  C25  1  0.53752290  0.85251769  0.55970808  1  0.154978  -0.004772  3.650485  -0.003  0.125819  -0.001074  3.899067  -0.001  0.138111  -0.002785  3.911622  -0.002  0.056282  0.118888  -9.1e-05  3.889612  0.0
C  C26  1  0.53754727  0.85251062  0.94028211  1  0.154966  -0.004754  3.650836  -0.003  0.125785  -0.001071  3.899436  -0.001  0.138077  -0.00278  3.911998  -0.002  0.056087  0.118856  -8.9e-05  3.889972  0.0
C  C27  1  0.46246470  0.14748436  0.44028139  1  0.154985  -0.004728  3.650934  -0.003  0.125798  -0.001074  3.899502  -0.001  0.138087  -0.002782  3.912065  -0.002  0.056267  0.118874  -9.4e-05  3.890037  0.0
C  C28  1  0.64365846  0.21657633  0.00279484  1  -0.101689  0.005539  3.688986  0.007  -0.112222  0.003703  3.935721  0.005  -0.118414  0.003619  3.948974  0.005  -0.077449  -0.107528  0.003834  3.924521  0.005
C  C29  1  0.35631699  0.78342205  0.50279079  1  -0.101481  0.005473  3.689103  0.007  -0.111967  0.003704  3.93579  0.005  -0.118154  0.003619  3.949055  0.005  -0.077495  -0.107283  0.003833  3.924589  0.005
C  C30  1  0.35637668  0.78341578  0.99720322  1  -0.101861  0.005447  3.688561  0.007  -0.11233  0.003703  3.93536  0.005  -0.118521  0.003619  3.94862  0.005  -0.077294  -0.10764  0.003832  3.924157  0.005
C  C31  1  0.64365743  0.21657605  0.49720727  1  -0.10171  0.005413  3.688938  0.006  -0.112193  0.003705  3.935635  0.005  -0.11838  0.003619  3.948891  0.005  -0.077442  -0.107499  0.003834  3.924436  0.005
C  C32  1  0.84192071  0.28750987  0.04628282  1  -0.004442  -0.006162  3.650089  -0.004  -0.031608  -0.003296  3.895544  -0.002  -0.023676  -0.004297  3.905996  -0.003  -0.054828  -0.036108  -0.002875  3.887237  -0.002
C  C33  1  0.15806430  0.71249221  0.54629266  1  -0.004652  -0.006067  3.650282  -0.004  -0.031665  -0.003301  3.895706  -0.002  -0.02374  -0.004296  3.906168  -0.003  -0.054641  -0.036155  -0.002875  3.887383  -0.002
C  C34  1  0.15808925  0.71248051  0.95370522  1  -0.004316  -0.006058  3.649752  -0.004  -0.031576  -0.003299  3.895229  -0.002  -0.023638  -0.004296  3.905677  -0.003  -0.05484  -0.036072  -0.002875  3.886916  -0.002
C  C35  1  0.84192951  0.28750563  0.45370826  1  -0.004429  -0.006009  3.649934  -0.004  -0.031496  -0.003298  3.895415  -0.002  -0.023566  -0.004294  3.905871  -0.003  -0.054701  -0.036  -0.002874  3.88711  -0.002
C  C36  1  0.85639127  0.28960945  0.14651022  1  -0.035943  0.002408  3.762134  0.003  -0.020362  0.001665  3.989782  0.002  -0.025149  0.00181  4.012204  0.002  0.002721  -0.01757  0.001633  3.975343  0.002
C  C37  1  0.14358643  0.71039679  0.64651724  1  -0.03579  0.002375  3.762285  0.003  -0.020427  0.001665  3.990309  0.002  -0.025212  0.001808  4.012729  0.002  0.002672  -0.01764  0.001631  3.975859  0.002
C  C38  1  0.14361505  0.71039441  0.85348927  1  -0.03599  0.002362  3.762401  0.003  -0.020301  0.001666  3.989996  0.002  -0.02509  0.001809  4.012416  0.002  0.002768  -0.017514  0.001632  3.975555  0.002
C  C39  1  0.85639261  0.28960434  0.35348440  1  -0.035843  0.00236  3.761916  0.003  -0.020485  0.001666  3.989899  0.002  -0.025271  0.001808  4.01232  0.002  0.002648  -0.017692  0.001632  3.975464  0.002
C  C40  1  0.66591898  0.21821626  0.19827410  1  0.135534  -0.002398  3.776681  -0.001  0.125108  -0.000459  4.024009  0.0  0.133547  -0.001269  4.042639  -0.001  0.114705  0.120643  0.000296  4.011606  0.001
C  C41  1  0.33406646  0.78179405  0.69827443  1  0.135608  -0.002359  3.776104  -0.001  0.125081  -0.000459  4.023771  0.0  0.133521  -0.001268  4.042391  -0.001  0.114677  0.120615  0.000298  4.011371  0.001
C  C42  1  0.33408736  0.78179483  0.80171681  1  0.135545  -0.002355  3.77642  -0.001  0.125063  -0.000462  4.023853  0.0  0.133507  -0.00127  4.042472  -0.001  0.114674  0.120591  0.000297  4.011459  0.001
C  C43  1  0.66591653  0.21821219  0.30172220  1  0.135598  -0.002343  3.776727  -0.001  0.125168  -0.00046  4.024174  0.0  0.133608  -0.001267  4.042798  -0.001  0.114785  0.120701  0.000296  4.011773  0.001
C  C44  1  0.05805870  0.36128671  0.19844554  1  0.140946  -1e-06  3.762088  0.0  0.130076  -0.000137  4.02455  0.0  0.132109  -0.000177  4.047388  0.0  0.126183  0.127545  -4.4e-05  4.012742  0.0
C  C45  1  0.94193044  0.63872458  0.69844709  1  0.141162  -5.6e-05  3.761803  0.0  0.130318  -0.000137  4.024388  0.0  0.132352  -0.000183  4.047227  0.0  0.126192  0.127789  -4.5e-05  4.012574  0.0
C  C46  1  0.94193698  0.63871523  0.80156397  1  0.140895  3e-06  3.762418  0.0  0.129994  -0.000137  4.024884  0.0  0.132027  -0.000174  4.047729  0.0  0.126059  0.127464  -4.4e-05  4.013072  0.0
C  C47  1  0.05807591  0.36128650  0.30155096  1  0.141121  -7e-05  3.762324  0.0  0.130305  -0.000136  4.024869  0.0  0.132341  -0.00018  4.047705  0.0  0.12627  0.127771  -4.3e-05  4.013065  0.0
C  C48  1  0.42369024  0.49164367  0.19828066  1  0.172207  0.000179  3.777301  0.0  0.174532  -1.8e-05  4.020312  0.0  0.178495  8e-06  4.040952  0.0  0.113379  0.172195  2.1e-05  4.006589  0.0
C  C49  1  0.57630395  0.50835723  0.69829863  1  0.172155  0.000108  3.777462  0.0  0.174583  -1.7e-05  4.020181  0.0  0.178546  6e-06  4.040817  0.0  0.113234  0.172243  2.1e-05  4.00646  0.0
C  C50  1  0.57630240  0.50834799  0.80172527  1  0.172066  0.00017  3.777142  0.0  0.174446  -1.9e-05  4.019941  0.0  0.178411  8e-06  4.040573  0.0  0.113426  0.172113  2.1e-05  4.006222  0.0
C  C51  1  0.42369727  0.49164257  0.30171588  1  0.172335  6.3e-05  3.776989  0.0  0.17459  -1.7e-05  4.02006  0.0  0.17855  5e-06  4.0407  0.0  0.113414  0.172259  2.1e-05  4.006338  0.0
C  C52  1  0.62162973  0.56014306  0.14844757  1  -0.132865  -0.000541  3.708045  0.0  -0.15537  -0.000515  3.962154  0.0  -0.160132  -0.000302  3.980894  0.0  -0.088034  -0.152367  -0.000528  3.949747  0.0
C  C53  1  0.37836960  0.43985367  0.64845802  1  -0.132844  -0.000423  3.708144  0.0  -0.15538  -0.00052  3.962192  0.0  -0.16014  -0.000289  3.980924  0.0  -0.087992  -0.152383  -0.000527  3.949814  0.0
C  C54  1  0.37837631  0.43984944  0.85156480  1  -0.132639  -0.000474  3.708822  0.0  -0.155168  -0.000515  3.96282  0.0  -0.159931  -0.000301  3.981559  0.0  -0.087885  -0.152137  -0.000527  3.950356  0.0
C  C55  1  0.62162718  0.56013276  0.35155650  1  -0.132943  -0.000283  3.708234  0.0  -0.155413  -0.00052  3.962323  0.0  -0.160185  -0.000289  3.981086  0.0  -0.088071  -0.152378  -0.000527  3.949837  0.0
C  C56  1  0.81106077  0.62547019  0.19909227  1  -0.066161  -1.7e-05  3.772396  0.0  -0.078426  -9.5e-05  4.024253  0.0  -0.073005  1.6e-05  4.034242  0.0  -0.096015  -0.081032  -0.000119  4.016736  0.0
C  C57  1  0.18894724  0.37452538  0.69909593  1  -0.066367  -0.000111  3.772391  0.0  -0.078621  -9.3e-05  4.024298  0.0  -0.073208  1e-05  4.034291  0.0  -0.096101  -0.081225  -0.000118  4.016782  0.0
C  C58  1  0.18894944  0.37452432  0.80093012  1  -0.066162  -5.3e-05  3.772664  0.0  -0.078412  -9.5e-05  4.024509  0.0  -0.072995  1.6e-05  4.034494  0.0  -0.096128  -0.081017  -0.000118  4.017  0.0
C  C59  1  0.81107034  0.62546387  0.30091643  1  -0.06618  -0.000171  3.772335  0.0  -0.078429  -9.2e-05  4.02424  0.0  -0.073013  9e-06  4.034236  0.0  -0.096039  -0.081028  -0.000118  4.016724  0.0
N  N60  1  0.47368189  0.14806564  0.15504793  1  -0.319691  0.043887  3.330343  0.059  -0.267773  0.04177  3.621657  0.058  -0.297745  0.044017  3.640893  0.064  -0.341082  -0.253681  0.040918  3.612939  0.055
N  N61  1  0.52631783  0.85195408  0.65504513  1  -0.319694  0.043848  3.329789  0.059  -0.267699  0.041767  3.621106  0.058  -0.297664  0.044018  3.640332  0.064  -0.34109  -0.253611  0.040912  3.612393  0.055
N  N62  1  0.52633947  0.85194628  0.84494225  1  -0.319494  0.043848  3.330014  0.059  -0.267534  0.041768  3.621354  0.058  -0.2975  0.044017  3.640583  0.064  -0.340979  -0.253445  0.040911  3.612642  0.055
N  N63  1  0.47368323  0.14806327  0.34494721  1  -0.319603  0.043825  3.330634  0.059  -0.267616  0.041769  3.621879  0.058  -0.297581  0.044014  3.641117  0.064  -0.341105  -0.253526  0.040917  3.613163  0.055
N  N64  1  0.23853918  0.42626840  0.35145240  1  -0.320177  0.000205  3.007693  0.0  -0.295521  -2e-05  3.276138  0.0  -0.303677  8.3e-05  3.290929  0.0  -0.295275  -0.290716  -0.000216  3.267123  0.0
N  N65  1  0.76146990  0.57372611  0.85146430  1  -0.320058  9.9e-05  3.007492  0.0  -0.295428  -1.8e-05  3.275866  0.0  -0.303585  7.9e-05  3.290655  0.0  -0.295173  -0.290623  -0.000217  3.266849  0.0
N  N66  1  0.76142967  0.57372461  0.64854995  1  -0.320037  0.000182  3.007347  0.0  -0.295445  -2e-05  3.275737  0.0  -0.303594  8.5e-05  3.290514  0.0  -0.295085  -0.290637  -0.000217  3.266725  0.0
N  N67  1  0.23855607  0.42628161  0.14854306  1  -0.320001  0.00011  3.00732  0.0  -0.29537  -1.8e-05  3.275779  0.0  -0.303513  8.1e-05  3.290541  0.0  -0.295194  -0.290562  -0.000216  3.266769  0.0
Cl  Cl68  1  0.96593396  0.96918284  0.12923286  1  -0.459826  0.090199  1.307317  0.119  -0.426651  0.064609  1.667378  0.089  -0.458449  0.051876  1.648166  0.076  -0.266003  -0.411565  0.068378  1.684298  0.09
Cl  Cl69  1  0.03405803  0.03082458  0.62922629  1  -0.459744  0.090198  1.307438  0.119  -0.426575  0.064607  1.667527  0.089  -0.458374  0.051873  1.648309  0.076  -0.265945  -0.411485  0.068375  1.684441  0.09
Cl  Cl70  1  0.03408252  0.03082192  0.87075518  1  -0.459797  0.0902  1.307287  0.119  -0.426645  0.06461  1.667382  0.089  -0.458432  0.051876  1.648154  0.076  -0.265977  -0.411557  0.068379  1.684301  0.09
Cl  Cl71  1  0.96593329  0.96918568  0.37076032  1  -0.45985  0.090199  1.307335  0.119  -0.426682  0.064609  1.667411  0.089  -0.458467  0.051875  1.648163  0.076  -0.266015  -0.411597  0.068378  1.68433  0.09
Cl  Cl72  1  0.36632162  0.81798206  0.24999701  1  -0.53834  0.01089  1.314283  0.015  -0.490944  0.002755  1.679861  0.005  -0.519916  -0.002518  1.660749  0.0  -0.286235  -0.471987  0.007311  1.695016  0.009
Cl  Cl73  1  0.63366482  0.18202103  0.74999961  1  -0.538275  0.010891  1.314323  0.015  -0.490854  0.002755  1.679849  0.005  -0.51985  -0.002517  1.660784  0.0  -0.286199  -0.471887  0.00731  1.695009  0.009
