# generated using pymatgen
data_Cd2CuH14C10N4(ClO2)4
_symmetry_space_group_name_H-M   'P 1'
_cell_length_a   6.66353244
_cell_length_b   8.06311893
_cell_length_c   10.41427137
_cell_angle_alpha   76.09193334
_cell_angle_beta   75.79837447
_cell_angle_gamma   86.13864122
_symmetry_Int_Tables_number   1
_chemical_formula_structural   Cd2CuH14C10N4(ClO2)4
_chemical_formula_sum   'Cd2 Cu1 H14 C10 N4 Cl4 O8'
_cell_volume   526.52229102
_cell_formula_units_Z   1
loop_
 _symmetry_equiv_pos_site_id
 _symmetry_equiv_pos_as_xyz
  1  'x, y, z'
loop_
 _atom_site_type_symbol
 _atom_site_label
 _atom_site_symmetry_multiplicity
 _atom_site_fract_x
 _atom_site_fract_y
 _atom_site_fract_z
 _atom_site_occupancy
 _atom_site_hle17_ddec_charge
 _atom_site_hle17_ddec_spin_density
 _atom_site_hle17_ddec_sum_bond_order
 _atom_site_hle17_magmom
 _atom_site_hse06_10hf_ddec_charge
 _atom_site_hse06_10hf_ddec_spin_density
 _atom_site_hse06_10hf_ddec_sum_bond_order
 _atom_site_hse06_10hf_magmom
 _atom_site_hse06_ddec_charge
 _atom_site_hse06_ddec_spin_density
 _atom_site_hse06_ddec_sum_bond_order
 _atom_site_hse06_magmom
 _atom_site_pbe_cm5_charge
 _atom_site_pbe_ddec_charge
 _atom_site_pbe_ddec_spin_density
 _atom_site_pbe_ddec_sum_bond_order
 _atom_site_pbe_magmom
Cd  Cd0  1  0.28804952  0.49255908  0.91294264  1  1.001674  8.4e-05  1.931106  0.0  0.843774  2e-06  2.390389  0.0  0.889738  -2.7e-05  2.348332  0.0  0.583367  0.810779  8.1e-05  2.419548  0.0
Cd  Cd1  1  0.71195271  0.50743906  0.08705871  1  1.001606  8.4e-05  1.931284  0.0  0.843708  3e-06  2.390577  0.0  0.889671  -2.7e-05  2.348521  0.0  0.583337  0.810715  8.1e-05  2.41974  0.0
Cu  Cu2  1  0.00000539  0.00000524  0.49999523  1  0.875622  0.717987  1.818368  0.542  0.851652  0.801596  2.19908  0.658  0.935516  0.864166  2.137464  0.742  0.753038  0.80016  0.753943  2.240844  0.598
H  H3  1  0.96033026  0.47695087  0.72806282  1  0.102892  0.000796  0.948838  0.001  0.103886  0.000616  1.021733  0.001  0.107071  0.000374  1.018633  0.001  0.114475  0.10135  0.000856  1.024535  0.001
H  H4  1  0.03966882  0.52305494  0.27193954  1  0.102911  0.000795  0.948837  0.001  0.103877  0.000616  1.021759  0.001  0.107062  0.000374  1.018656  0.001  0.114488  0.10134  0.000856  1.024565  0.001
H  H5  1  0.41279970  0.12016871  0.82648284  1  0.109532  0.000631  0.934029  0.001  0.113045  0.000484  1.000445  0.001  0.116308  0.000326  0.997402  0.0  0.119359  0.110554  0.00063  1.002843  0.001
H  H6  1  0.58719174  0.87982687  0.17352455  1  0.109541  0.00063  0.933982  0.001  0.113015  0.000484  1.000437  0.001  0.116289  0.000326  0.997381  0.0  0.119307  0.110526  0.00063  1.002838  0.001
H  H7  1  0.31952412  0.94004853  0.68293462  1  0.113563  0.001086  0.943714  0.002  0.121367  0.000902  1.002992  0.002  0.123383  0.00064  1.001673  0.001  0.130298  0.119619  0.001104  1.004387  0.002
H  H8  1  0.68046727  0.05995090  0.31706919  1  0.113566  0.001088  0.943707  0.002  0.121363  0.000902  1.002975  0.002  0.123379  0.000641  1.001655  0.001  0.130288  0.119615  0.001105  1.004369  0.002
H  H9  1  0.37937688  0.19212832  0.31764053  1  0.407466  1.8e-05  0.900131  0.0  0.385391  2.1e-05  0.951251  0.0  0.396153  2.1e-05  0.935536  0.0  0.275819  0.37787  2.3e-05  0.962223  0.0
H  H10  1  0.62062992  0.80786859  0.68234880  1  0.407401  1.8e-05  0.900212  0.0  0.385353  2.1e-05  0.951286  0.0  0.396113  2.1e-05  0.935573  0.0  0.275825  0.377835  2.3e-05  0.962253  0.0
H  H11  1  0.22573248  0.15486640  0.23814581  1  0.399684  -1.6e-05  0.908807  0.0  0.374909  -3.6e-05  0.965853  0.0  0.384809  -3.4e-05  0.951358  0.0  0.256505  0.367966  -3e-05  0.976047  0.0
H  H12  1  0.77426498  0.84513817  0.76184648  1  0.399788  -1.8e-05  0.908671  0.0  0.375022  -3.5e-05  0.965705  0.0  0.384919  -3.5e-05  0.95121  0.0  0.256576  0.368075  -3e-05  0.975906  0.0
H  H13  1  0.55289913  0.56641614  0.63756812  1  0.439717  2.8e-05  0.858401  0.0  0.406245  5.3e-05  0.925867  0.0  0.41761  1.2e-05  0.909435  0.0  0.294569  0.39809  0.000108  0.937617  0.0
H  H14  1  0.44711391  0.43358455  0.36243103  1  0.439753  2.8e-05  0.858341  0.0  0.406272  5.3e-05  0.925824  0.0  0.417637  1.2e-05  0.909392  0.0  0.294581  0.398119  0.000108  0.937571  0.0
H  H15  1  0.35305785  0.68526875  0.62720815  1  0.423607  0.000269  0.873341  0.0  0.390528  0.00039  0.944917  0.0  0.403002  0.000272  0.926774  0.0  0.2895  0.38153  0.000489  0.958075  0.0
H  H16  1  0.64695825  0.31473196  0.37278571  1  0.423582  0.000269  0.873334  0.0  0.390517  0.00039  0.944919  0.0  0.402989  0.000272  0.926778  0.0  0.289499  0.381522  0.000489  0.958081  0.0
C  C17  1  0.99098273  0.25906506  0.63658626  1  0.061269  -0.010043  3.691261  -0.006  0.068164  -0.003256  3.932981  -0.002  0.067581  -0.00455  3.950598  -0.003  0.12204  0.067633  -0.002254  3.922787  -0.001
C  C18  1  0.00901480  0.74093948  0.36341563  1  0.061195  -0.010044  3.691435  -0.006  0.068089  -0.003253  3.933208  -0.002  0.067502  -0.004549  3.95083  -0.003  0.121934  0.067562  -0.002253  3.923009  -0.001
C  C19  1  0.04045516  0.35682470  0.71794582  1  0.116157  0.006309  3.637885  0.007  0.078109  0.0025  3.890535  0.003  0.084211  0.002425  3.903891  0.003  0.067882  0.073254  0.002602  3.882889  0.003
C  C20  1  0.95954547  0.64318238  0.28205798  1  0.116188  0.006314  3.637838  0.007  0.078186  0.0025  3.89049  0.003  0.084289  0.002424  3.903849  0.003  0.067965  0.073325  0.002602  3.882848  0.003
C  C21  1  0.29004524  0.15962667  0.77255422  1  0.1231  0.008582  3.595234  0.01  0.090503  0.003769  3.848035  0.005  0.094994  0.003381  3.861619  0.004  0.075119  0.087628  0.004052  3.839326  0.005
C  C22  1  0.70995081  0.84037275  0.22745173  1  0.123061  0.008583  3.595211  0.01  0.090499  0.003768  3.847985  0.005  0.094979  0.00338  3.861572  0.004  0.075161  0.087619  0.004052  3.839283  0.005
C  C23  1  0.23987095  0.05981114  0.69260765  1  0.114211  -0.010501  3.591821  -0.006  0.086716  -0.002759  3.845771  -0.001  0.092204  -0.004435  3.861312  -0.003  0.068753  0.082562  -0.001442  3.836305  0.0
C  C24  1  0.76012662  0.94018956  0.30739494  1  0.114202  -0.010508  3.591971  -0.006  0.08676  -0.002761  3.845857  -0.001  0.092249  -0.004436  3.861397  -0.003  0.068778  0.082604  -0.001443  3.836389  0.0
C  C25  1  0.83487865  0.31374686  0.55199933  1  0.630446  -0.005243  3.901815  -0.004  0.579944  -0.000498  4.20532  0.0  0.615275  -0.000592  4.199631  0.0  0.219042  0.555695  -0.000433  4.208424  -0.001
C  C26  1  0.16511578  0.68625640  0.44800136  1  0.630495  -0.005241  3.901627  -0.004  0.579932  -0.000498  4.205232  0.0  0.615264  -0.000592  4.199543  0.0  0.219065  0.555679  -0.000433  4.20833  -0.001
N  N27  1  0.09237089  0.11172173  0.62431473  1  -0.239817  0.069615  3.316755  0.091  -0.20174  0.046698  3.600602  0.064  -0.225455  0.037443  3.620592  0.055  -0.325122  -0.187602  0.052004  3.589369  0.068
N  N28  1  0.90762506  0.88828409  0.37568526  1  -0.239775  0.069613  3.316878  0.091  -0.201713  0.046696  3.600723  0.064  -0.225427  0.037442  3.620717  0.055  -0.325102  -0.187573  0.052002  3.589486  0.068
N  N29  1  0.19126032  0.30775858  0.78391567  1  -0.261962  -0.008765  3.206689  -0.007  -0.196016  -0.003749  3.469269  -0.003  -0.20963  -0.004357  3.485541  -0.003  -0.297845  -0.186787  -0.003103  3.458821  -0.002
N  N30  1  0.80873261  0.69224339  0.21608934  1  -0.261931  -0.008767  3.206544  -0.007  -0.19602  -0.00375  3.469122  -0.003  -0.209636  -0.004356  3.485399  -0.003  -0.297862  -0.186791  -0.003103  3.458679  -0.002
Cl  Cl31  1  0.39862890  0.69834768  0.04508180  1  -0.557343  0.000286  0.978669  0.0  -0.491055  0.000125  1.244408  0.0  -0.512108  9.5e-05  1.224985  0.0  -0.3023  -0.475483  0.000212  1.257565  0.0
Cl  Cl32  1  0.60136274  0.30163382  0.95493584  1  -0.557355  0.000286  0.978625  0.0  -0.491074  0.000125  1.244365  0.0  -0.512147  9.5e-05  1.224978  0.0  -0.302328  -0.475501  0.000212  1.257521  0.0
Cl  Cl33  1  0.02358156  0.30048342  0.11961439  1  -0.571413  -2.6e-05  1.071691  0.0  -0.506776  -0.000133  1.350435  0.0  -0.527146  -0.000182  1.330211  0.0  -0.279668  -0.492198  3e-06  1.364919  0.0
Cl  Cl34  1  0.97640980  0.69951348  0.88038221  1  -0.571435  -2.5e-05  1.071665  0.0  -0.506805  -0.000133  1.350404  0.0  -0.527176  -0.000182  1.330179  0.0  -0.279677  -0.492227  3e-06  1.364889  0.0
O  O35  1  0.82432182  0.21718128  0.47114166  1  -0.597331  0.070184  2.07238  0.1  -0.560825  0.046444  2.340257  0.072  -0.602934  0.034635  2.333538  0.058  -0.308578  -0.532849  0.054391  2.345572  0.079
O  O36  1  0.17569425  0.78282198  0.52885078  1  -0.597348  0.070161  2.072382  0.1  -0.560815  0.046432  2.340285  0.072  -0.602926  0.034628  2.333567  0.058  -0.308621  -0.532844  0.054382  2.345597  0.079
O  O37  1  0.73216844  0.44805673  0.55778183  1  -0.581386  0.016967  1.981282  0.023  -0.539681  0.007183  2.20867  0.011  -0.566632  0.002962  2.201798  0.005  -0.299385  -0.519003  0.012355  2.212024  0.017
O  O38  1  0.26782757  0.55193634  0.44221185  1  -0.581452  0.01697  1.981024  0.023  -0.539729  0.007182  2.208472  0.011  -0.566686  0.002961  2.201607  0.005  -0.299393  -0.519033  0.012356  2.211786  0.017
O  O39  1  0.29275193  0.09989483  0.31218886  1  -0.846516  -0.000252  1.848997  0.002  -0.81558  -0.000238  2.014061  0.001  -0.835686  -0.000871  1.982888  0.001  -0.610677  -0.800804  0.000407  2.035602  0.002
O  O40  1  0.70724861  0.90010974  0.68780198  1  -0.846569  -0.00025  1.848956  0.002  -0.815668  -0.000237  2.014013  0.001  -0.835771  -0.000871  1.982847  0.001  -0.610767  -0.800899  0.000408  2.035557  0.002
O  O41  1  0.45566036  0.64505513  0.68374215  1  -0.825295  0.00101  1.919417  0.002  -0.756669  0.00069  2.106175  0.001  -0.780424  0.000384  2.071065  0.001  -0.569624  -0.739817  0.000978  2.131083  0.001
O  O42  1  0.54434652  0.35494046  0.31625701  1  -0.825298  0.001011  1.919396  0.002  -0.756661  0.00069  2.106174  0.001  -0.780418  0.000385  2.071066  0.001  -0.569621  -0.739814  0.000979  2.131069  0.001
