# generated using pymatgen
data_ZnH16C14N6(ClO)2
_symmetry_space_group_name_H-M   'P 1'
_cell_length_a   5.56307058
_cell_length_b   9.35689493
_cell_length_c   19.73207622
_cell_angle_alpha   79.91893030
_cell_angle_beta   81.90668277
_cell_angle_gamma   72.69568616
_symmetry_Int_Tables_number   1
_chemical_formula_structural   ZnH16C14N6(ClO)2
_chemical_formula_sum   'Zn2 H32 C28 N12 Cl4 O4'
_cell_volume   961.17638917
_cell_formula_units_Z   2
loop_
 _symmetry_equiv_pos_site_id
 _symmetry_equiv_pos_as_xyz
  1  'x, y, z'
loop_
 _atom_site_type_symbol
 _atom_site_label
 _atom_site_symmetry_multiplicity
 _atom_site_fract_x
 _atom_site_fract_y
 _atom_site_fract_z
 _atom_site_occupancy
 _atom_site_pbe_bader_spin_density
 _atom_site_pbe_cm5_charge
 _atom_site_pbe_ddec_charge
 _atom_site_pbe_ddec_spin_density
 _atom_site_pbe_ddec_sum_bond_order
 _atom_site_pbe_magmom
Zn  Zn0  1  0.97574780  0.24984803  0.75002613  1  0  0.573129  0.656751  0  2.547967  0
Zn  Zn1  1  0.02424068  0.75015286  0.24997577  1  0  0.573081  0.656742  0  2.547953  0
H  H2  1  0.39430596  0.35878704  0.67282164  1  0  0.097119  0.078212  0  1.057037  0
H  H3  1  0.42590482  0.14107585  0.82730166  1  0  0.09689  0.078371  0  1.057276  0
H  H4  1  0.60568927  0.64119688  0.32718082  1  0  0.097176  0.078333  0  1.056799  0
H  H5  1  0.57408628  0.85891929  0.17269583  1  0  0.09689  0.078309  0  1.057325  0
H  H6  1  0.77830091  0.26344710  0.59132302  1  0  0.104755  0.112665  0  1.022887  0
H  H7  1  0.63291347  0.23664454  0.90877403  1  0  0.104991  0.112711  0  1.023756  0
H  H8  1  0.22169757  0.73654587  0.40867869  1  0  0.104799  0.112606  0  1.02317  0
H  H9  1  0.36706724  0.76334953  0.09122670  1  0  0.104999  0.112701  0  1.023709  0
H  H10  1  0.85459402  0.01513861  0.55260637  1  0  0.114173  0.134814  0  1.020591  0
H  H11  1  0.42121924  0.48464115  0.94767562  1  0  0.113927  0.134455  0  1.020512  0
H  H12  1  0.14538488  0.98485322  0.44739543  1  0  0.114115  0.134708  0  1.020696  0
H  H13  1  0.57878020  0.51534731  0.05232740  1  0  0.113914  0.134474  0  1.020464  0
H  H14  1  0.17588753  0.96903751  0.68143287  1  0  0.106916  0.0927  0  1.029007  0
H  H15  1  0.82577474  0.53065665  0.81864554  1  0  0.106746  0.092947  0  1.029739  0
H  H16  1  0.82406743  0.03095885  0.31856855  1  0  0.106877  0.092601  0  1.029291  0
H  H17  1  0.17424637  0.46935547  0.18135117  1  0  0.106745  0.092971  0  1.029699  0
H  H18  1  0.42589301  0.77198275  0.62320022  1  0  0.326163  0.288854  0  0.915595  0
H  H19  1  0.81998311  0.72773738  0.87708265  1  0  0.325739  0.287976  0  0.916757  0
H  H20  1  0.57408203  0.22801346  0.37679317  1  0  0.326175  0.288843  0  0.915583  0
H  H21  1  0.18004744  0.27228046  0.12291750  1  0  0.325782  0.288031  0  0.916792  0
H  H22  1  0.65808868  0.55787581  0.58811270  1  0  0.284012  0.258083  0  1.009835  0
H  H23  1  0.80405524  0.94204372  0.91186924  1  0  0.284216  0.258239  0  1.008902  0
H  H24  1  0.34190320  0.44211035  0.41188843  1  0  0.284061  0.258127  0  1.009782  0
H  H25  1  0.19601400  0.05796508  0.08813173  1  0  0.284205  0.258249  0  1.009027  0
H  H26  1  0.85643203  0.60164792  0.44010469  1  0  0.100886  0.076525  0  1.025102  0
H  H27  1  0.89816732  0.89841198  0.05988645  1  0  0.101024  0.076961  0  1.025387  0
H  H28  1  0.14356355  0.39834403  0.55990331  1  0  0.100854  0.076348  0  1.024832  0
H  H29  1  0.10190638  0.10157991  0.94011871  1  0  0.1011  0.076979  0  1.025644  0
H  H30  1  0.79079783  0.43469843  0.48634805  1  0  0.103722  0.08357  0  0.995415  0
H  H31  1  0.71187406  0.06540747  0.01360956  1  0  0.103118  0.08271  0  0.99524  0
H  H32  1  0.20919995  0.56531926  0.51364400  1  0  0.103664  0.083443  0  0.99505  0
H  H33  1  0.28817748  0.93460368  0.98639626  1  0  0.103069  0.082667  0  0.99537  0
C  C34  1  0.43367839  0.25029060  0.65449726  1  0  0.022156  0.041754  0  3.986281  0
C  C35  1  0.33823164  0.24955182  0.84564201  1  0  0.022157  0.040927  0  3.987666  0
C  C36  1  0.56629793  0.74970806  0.34550677  1  0  0.022019  0.041408  0  3.985772  0
C  C37  1  0.66174965  0.75045586  0.15435975  1  0  0.022194  0.04115  0  3.987494  0
C  C38  1  0.64523878  0.19701657  0.60954494  1  0  -0.084758  -0.10035  0  3.994744  0
C  C39  1  0.45140941  0.30286607  0.89061772  1  0  -0.084625  -0.099389  0  3.996079  0
C  C40  1  0.35472132  0.80297870  0.39045892  1  0  -0.08482  -0.100279  0  3.994877  0
C  C41  1  0.54859042  0.69713144  0.10938546  1  0  -0.084618  -0.099337  0  3.995903  0
C  C42  1  0.69112933  0.05679729  0.58816845  1  0  -0.071819  -0.125904  0  3.883097  0
C  C43  1  0.33531959  0.44296298  0.91205726  1  0  -0.072253  -0.127315  0  3.883571  0
C  C44  1  0.30884430  0.94319227  0.41183264  1  0  -0.071721  -0.125759  0  3.882985  0
C  C45  1  0.66469025  0.55702664  0.08794732  1  0  -0.072327  -0.127479  0  3.883799  0
C  C46  1  0.51981340  0.97117217  0.61296726  1  0  0.111199  0.231658  0  4.033423  0
C  C47  1  0.10305388  0.52850531  0.88725916  1  0  0.111183  0.232592  0  4.033019  0
C  C48  1  0.48017002  0.02881838  0.38702629  1  0  0.111369  0.232029  0  4.03295  0
C  C49  1  0.89695910  0.47149102  0.11274102  1  0  0.111092  0.232461  0  4.033688  0
C  C50  1  0.31317253  0.03111562  0.65927923  1  0  0.038286  -0.013893  0  3.893982  0
C  C51  1  0.00287476  0.46860818  0.84086895  1  0  0.038567  -0.013475  0  3.8948  0
C  C52  1  0.68681205  0.96888858  0.34071806  1  0  0.038419  -0.013639  0  3.894461  0
C  C53  1  0.99712036  0.53140057  0.15912975  1  0  0.038612  -0.01342  0  3.894836  0
C  C54  1  0.70435250  0.76220675  0.54200421  1  0  0.327446  0.626441  0  4.188426  0
C  C55  1  0.00826073  0.73772310  0.95809353  1  0  0.326769  0.624949  0  4.191813  0
C  C56  1  0.29562175  0.23781105  0.45799407  1  0  0.327552  0.62658  0  4.188082  0
C  C57  1  0.99176202  0.26228680  0.04190604  1  0  0.326832  0.625217  0  4.191643  0
C  C58  1  0.86296395  0.52979458  0.49047827  1  0  -0.069613  -0.032458  0  3.932145  0
C  C59  1  0.88328085  0.97023485  0.00949030  1  0  -0.068812  -0.032105  0  3.929525  0
C  C60  1  0.13701981  0.47019118  0.50950110  1  0  -0.069439  -0.032022  0  3.931578  0
C  C61  1  0.11679056  0.02977154  0.99050342  1  0  -0.068609  -0.031723  0  3.929459  0
N  N62  1  0.27223409  0.16688991  0.67918551  1  0  -0.337701  -0.205608  0  3.647304  0
N  N63  1  0.11789281  0.33283967  0.82097373  1  0  -0.337517  -0.20589  0  3.647453  0
N  N64  1  0.72775002  0.83311657  0.32081271  1  0  -0.337765  -0.205712  0  3.647351  0
N  N65  1  0.88209570  0.66717589  0.17902593  1  0  -0.337573  -0.206084  0  3.647425  0
N  N66  1  0.54426920  0.82979233  0.59550899  1  0  -0.40378  -0.416589  0  3.557641  0
N  N67  1  0.96849830  0.66986253  0.90477560  1  0  -0.40276  -0.415519  0  3.56054  0
N  N68  1  0.45570068  0.17020393  0.40448734  1  0  -0.403925  -0.41695  0  3.557367  0
N  N69  1  0.03152551  0.33014519  0.09522892  1  0  -0.402748  -0.415515  0  3.560713  0
N  N70  1  0.69534141  0.61746048  0.54105770  1  0  -0.446626  -0.427746  0  3.523082  0
N  N71  1  0.85386858  0.88257954  0.95893761  1  0  -0.44734  -0.427261  0  3.52094  0
N  N72  1  0.30465475  0.38253237  0.45893802  1  0  -0.44677  -0.427846  0  3.523764  0
N  N73  1  0.14619462  0.11743603  0.04106222  1  0  -0.447451  -0.427555  0  3.52064  0
Cl  Cl74  1  0.88869150  0.02802887  0.79482253  1  0  -0.30837  -0.504767  0  1.215775  0
Cl  Cl75  1  0.71200399  0.47176984  0.70513219  1  0  -0.308308  -0.504933  0  1.216374  0
Cl  Cl76  1  0.11127920  0.97197308  0.20517520  1  0  -0.30838  -0.504779  0  1.215721  0
Cl  Cl77  1  0.28798382  0.52822879  0.29486977  1  0  -0.308284  -0.504918  0  1.216338  0
O  O78  1  0.83421133  0.82770230  0.49867914  1  0  -0.30097  -0.52638  0  2.131567  0
O  O79  1  0.16062960  0.67234349  0.00135822  1  0  -0.300098  -0.52539  0  2.13311  0
O  O80  1  0.16576635  0.17228831  0.50131784  1  0  -0.301022  -0.526415  0  2.131251  0
O  O81  1  0.83940346  0.32765180  0.99864732  1  0  -0.300081  -0.525442  0  2.133596  0
