# generated using pymatgen
data_Cd3H24C38O15
_symmetry_space_group_name_H-M   'P 1'
_cell_length_a   18.48417215
_cell_length_b   19.99147140
_cell_length_c   22.87442653
_cell_angle_alpha   63.25966382
_cell_angle_beta   66.26291439
_cell_angle_gamma   62.46672824
_symmetry_Int_Tables_number   1
_chemical_formula_structural   Cd3H24C38O15
_chemical_formula_sum   'Cd12 H96 C152 O60'
_cell_volume   6488.63318416
_cell_formula_units_Z   4
loop_
 _symmetry_equiv_pos_site_id
 _symmetry_equiv_pos_as_xyz
  1  'x, y, z'
loop_
 _atom_site_type_symbol
 _atom_site_label
 _atom_site_symmetry_multiplicity
 _atom_site_fract_x
 _atom_site_fract_y
 _atom_site_fract_z
 _atom_site_occupancy
 _atom_site_pbe_bader_charge
 _atom_site_pbe_bader_spin_density
 _atom_site_pbe_cm5_charge
 _atom_site_pbe_ddec_charge
 _atom_site_pbe_ddec_spin_density
 _atom_site_pbe_ddec_sum_bond_order
 _atom_site_pbe_magmom
Cd  Cd0  1  0.32173333  0.88900906  0.69841600  1  1.333209  0  0.776645  1.043156  0  1.967067  0
Cd  Cd1  1  0.90934995  0.61107868  0.80121050  1  1.332576  0  0.776678  1.043559  0  1.966484  0
Cd  Cd2  1  0.67826348  0.11098621  0.30159181  1  1.333303  0  0.776616  1.043145  0  1.967078  0
Cd  Cd3  1  0.09064635  0.38892331  0.19878550  1  1.332428  0  0.776728  1.043641  0  1.966394  0
Cd  Cd4  1  0.44684443  0.67626467  0.67892522  1  1.311001  0  0.792397  1.050462  0  2.071648  0
Cd  Cd5  1  0.80256396  0.82399892  0.82068222  1  1.311501  0  0.792899  1.051852  0  2.069919  0
Cd  Cd6  1  0.55315905  0.32372755  0.32107634  1  1.310967  0  0.792392  1.05043  0  2.071743  0
Cd  Cd7  1  0.19743609  0.17600523  0.17931626  1  1.311545  0  0.792899  1.051796  0  2.069972  0
Cd  Cd8  1  0.36947681  0.82677850  0.54213854  1  1.335625  0  0.786379  1.055866  0  2.065412  0
Cd  Cd9  1  0.73867465  0.67376153  0.95720598  1  1.333705  0  0.786588  1.056153  0  2.065612  0
Cd  Cd10  1  0.63053110  0.17321126  0.45786469  1  1.335737  0  0.786443  1.055986  0  2.06526  0
Cd  Cd11  1  0.26132612  0.32624384  0.04279186  1  1.333628  0  0.786596  1.056146  0  2.06564  0
H  H12  1  0.32033799  0.83750929  0.43811176  1  0.624428  0  0.333241  0.417506  0  0.853499  0
H  H13  1  0.59729423  0.66334543  0.06133043  1  0.647519  0  0.332411  0.417288  0  0.85446  0
H  H14  1  0.67965594  0.16249199  0.56189398  1  0.624256  0  0.333224  0.417509  0  0.853478  0
H  H15  1  0.40271253  0.33664740  0.93867078  1  0.64754  0  0.33239  0.417296  0  0.854346  0
H  H16  1  0.33825602  0.75457649  0.49429593  1  0.651308  0  0.305904  0.401388  0  0.917669  0
H  H17  1  0.58761252  0.74608348  0.00493637  1  0.638242  0  0.30584  0.401106  0  0.918043  0
H  H18  1  0.66174141  0.24542214  0.50570615  1  0.651257  0  0.305904  0.401361  0  0.917707  0
H  H19  1  0.41238595  0.25391373  0.99506895  1  0.638135  0  0.305812  0.401065  0  0.918099  0
H  H20  1  0.35444548  0.68050126  0.79479912  1  0.64478  0  0.292832  0.392463  0  0.936129  0
H  H21  1  0.83002726  0.81946234  0.70486640  1  0.647577  0  0.292634  0.391821  0  0.937053  0
H  H22  1  0.64555702  0.31950108  0.20520012  1  0.644806  0  0.292869  0.392526  0  0.936033  0
H  H23  1  0.16997863  0.18053908  0.29512948  1  0.647646  0  0.292589  0.39171  0  0.937217  0
H  H24  1  0.29932402  0.64457051  0.78735464  1  0.591613  0  0.321712  0.406499  0  0.8766  0
H  H25  1  0.73159423  0.85561304  0.71213682  1  0.604167  0  0.321856  0.406334  0  0.87573  0
H  H26  1  0.70068043  0.35542815  0.21264701  1  0.59156  0  0.321689  0.406402  0  0.876589  0
H  H27  1  0.26841259  0.14440292  0.28785243  1  0.60363  0  0.321845  0.406229  0  0.875765  0
H  H28  1  0.46347392  0.89143276  0.42026802  1  0.639644  0  0.311984  0.411906  0  0.890411  0
H  H29  1  0.77495596  0.60847693  0.07966232  1  0.642891  0  0.311428  0.411491  0  0.891319  0
H  H30  1  0.53653217  0.10856466  0.57973444  1  0.639686  0  0.312007  0.411923  0  0.890401  0
H  H31  1  0.22505392  0.39152351  0.92033092  1  0.642728  0  0.311417  0.411423  0  0.891399  0
H  H32  1  0.52766595  0.80724159  0.41799965  1  0.587189  0  0.315335  0.399633  0  0.897106  0
H  H33  1  0.75207600  0.69224563  0.08313510  1  0.607103  0  0.315905  0.399705  0  0.896129  0
H  H34  1  0.47234099  0.19275875  0.58199496  1  0.587355  0  0.315338  0.399624  0  0.89713  0
H  H35  1  0.24792143  0.30775289  0.91686833  1  0.606961  0  0.315889  0.399742  0  0.896092  0
H  H36  1  0.07371430  0.82299590  0.74355076  1  0.146415  0  0.115921  0.12916  0  0.984722  0
H  H37  1  0.64032517  0.67721425  0.75589980  1  0.110845  0  0.115722  0.129143  0  0.984056  0
H  H38  1  0.92628340  0.17700563  0.25644366  1  0.146445  0  0.115943  0.12919  0  0.98473  0
H  H39  1  0.35966429  0.32279783  0.24409438  1  0.110264  0  0.115723  0.12908  0  0.984053  0
H  H40  1  0.06420796  0.66663742  0.66716764  1  0.118472  0  0.110094  0.120586  0  1.017893  0
H  H41  1  0.39832464  0.83305420  0.83279094  1  0.15108  0  0.109518  0.119256  0  1.01937  0
H  H42  1  0.93579777  0.33335685  0.33282989  1  0.118662  0  0.110064  0.120576  0  1.017934  0
H  H43  1  0.60166614  0.16695061  0.16721454  1  0.15129  0  0.109502  0.11927  0  1.019411  0
H  H44  1  0.30143007  0.68407946  0.63536556  1  0.093417  0  0.094451  0.090139  0  1.091135  0
H  H45  1  0.62140744  0.81635709  0.86388143  1  0.095807  0  0.094372  0.089804  0  1.0915  0
H  H46  1  0.69857228  0.31591861  0.36463607  1  0.093363  0  0.094405  0.09002  0  1.091292  0
H  H47  1  0.37858849  0.18365828  0.13610787  1  0.095849  0  0.094442  0.089939  0  1.091628  0
H  H48  1  0.13937076  0.65602410  0.55657279  1  0.088719  0  0.108484  0.112192  0  0.988479  0
H  H49  1  0.35302194  0.84308262  0.94327254  1  0.062007  0  0.109297  0.112972  0  0.986823  0
H  H50  1  0.86063367  0.34396871  0.44342871  1  0.08865  0  0.108502  0.112139  0  0.988537  0
H  H51  1  0.64697482  0.15692072  0.05672899  1  0.0623  0  0.109294  0.112967  0  0.98678  0
H  H52  1  0.22328084  0.57041198  0.48393244  1  0.078312  0  0.107638  0.10976  0  0.982917  0
H  H53  1  0.27832670  0.92849522  0.01609748  1  0.080231  0  0.107738  0.109239  0  0.985144  0
H  H54  1  0.77672004  0.42957768  0.51607211  1  0.078341  0  0.107656  0.109766  0  0.982967  0
H  H55  1  0.72167123  0.07150805  0.98390502  1  0.080333  0  0.107737  0.109225  0  0.985197  0
H  H56  1  0.36062891  0.47402410  0.44239617  1  0.098373  0  0.108852  0.117202  0  0.991987  0
H  H57  1  0.27708229  0.02507114  0.05789576  1  0.09114  0  0.108859  0.117774  0  0.992126  0
H  H58  1  0.63937161  0.52596204  0.55760841  1  0.098356  0  0.108863  0.117253  0  0.992068  0
H  H59  1  0.72291691  0.97493040  0.94210652  1  0.091186  0  0.108889  0.117851  0  0.992148  0
H  H60  1  0.55532988  0.36009447  0.54845197  1  0.076889  0  0.100509  0.101029  0  1.007287  0
H  H61  1  0.46260426  0.14003831  0.95224518  1  0.054703  0  0.099998  0.100453  0  1.008761  0
H  H62  1  0.44467740  0.63990344  0.45154382  1  0.07698  0  0.10048  0.101002  0  1.007301  0
H  H63  1  0.53739122  0.85996681  0.04775613  1  0.054805  0  0.100005  0.100492  0  1.008868  0
H  H64  1  0.46785498  0.44009306  0.62583237  1  0.065111  0  0.104635  0.109996  0  0.98814  0
H  H65  1  0.53286743  0.06023237  0.87470205  1  0.055646  0  0.104768  0.109928  0  0.986939  0
H  H66  1  0.53215398  0.55990976  0.37416032  1  0.064931  0  0.104584  0.109947  0  0.988045  0
H  H67  1  0.46712912  0.93977451  0.12529920  1  0.055585  0  0.104776  0.109902  0  0.986877  0
H  H68  1  0.33900769  0.54817973  0.65723545  1  0.061429  0  0.102101  0.107651  0  1.001854  0
H  H69  1  0.54416083  0.95204789  0.84294018  1  0.066265  0  0.102265  0.108101  0  1.002041  0
H  H70  1  0.66100407  0.45182196  0.34275677  1  0.061519  0  0.102086  0.107606  0  1.001834  0
H  H71  1  0.45583606  0.04795680  0.15705909  1  0.066243  0  0.102321  0.108178  0  1.001982  0
H  H72  1  0.45375749  0.04523408  0.43682752  1  0.089601  0  0.108916  0.11985  0  1.005199  0
H  H73  1  0.93597021  0.45516290  0.06278584  1  0.116559  0  0.108757  0.119694  0  1.004989  0
H  H74  1  0.54625716  0.95475250  0.56318700  1  0.08877  0  0.108939  0.11993  0  1.004874  0
H  H75  1  0.06402573  0.54483829  0.93721318  1  0.117511  0  0.108753  0.119714  0  1.004961  0
H  H76  1  0.37552270  0.24925233  0.49478327  1  0.090734  0  0.102505  0.107256  0  1.018981  0
H  H77  1  0.11925016  0.25087543  0.00518268  1  0.07126  0  0.102354  0.106621  0  1.019169  0
H  H78  1  0.62447587  0.75074295  0.50522444  1  0.090703  0  0.102477  0.10715  0  1.019008  0
H  H79  1  0.88074977  0.74912762  0.99481491  1  0.071416  0  0.102384  0.106633  0  1.01908  0
H  H80  1  0.24370509  0.08035167  0.60745167  1  0.128247  0  0.107954  0.119932  0  1.028377  0
H  H81  1  0.93106137  0.41978018  0.89225076  1  0.117399  0  0.108177  0.120651  0  1.026151  0
H  H82  1  0.75629571  0.91964259  0.39255395  1  0.128369  0  0.10795  0.119964  0  1.028404  0
H  H83  1  0.06893938  0.58022239  0.10774543  1  0.117277  0  0.108085  0.120559  0  1.026356  0
H  H84  1  0.33232338  0.26595881  0.59388804  1  0.022058  0  0.091691  0.081555  0  1.044275  0
H  H85  1  0.19163868  0.23395669  0.90644636  1  -0.000594  0  0.091581  0.081985  0  1.044122  0
H  H86  1  0.66767647  0.73403473  0.40611943  1  0.022103  0  0.091693  0.081599  0  1.04421  0
H  H87  1  0.80836414  0.76604049  0.09355150  1  -0.000867  0  0.091628  0.082086  0  1.044027  0
H  H88  1  0.30087705  0.36543495  0.64448753  1  0.045699  0  0.093182  0.094057  0  1.025026  0
H  H89  1  0.31022599  0.13411069  0.85625495  1  0.054938  0  0.093581  0.094239  0  1.025855  0
H  H90  1  0.69912094  0.63456042  0.35551901  1  0.045602  0  0.093202  0.09407  0  1.024966  0
H  H91  1  0.68976931  0.86588415  0.14375085  1  0.054767  0  0.09352  0.094154  0  1.02595  0
H  H92  1  0.19529350  0.46269641  0.70429077  1  0.086518  0  0.097355  0.102332  0  1.026396  0
H  H93  1  0.36168865  0.03672780  0.79654810  1  0.077909  0  0.097554  0.102155  0  1.026088  0
H  H94  1  0.80470365  0.53729657  0.29571642  1  0.086237  0  0.097383  0.10236  0  1.026472  0
H  H95  1  0.63830828  0.96326591  0.20345715  1  0.077906  0  0.09753  0.102001  0  1.026025  0
H  H96  1  0.99780191  0.39221634  0.72351454  1  0.101015  0  0.105619  0.112148  0  1.003578  0
H  H97  1  0.11339076  0.10792612  0.77601504  1  0.096065  0  0.105303  0.111841  0  1.004475  0
H  H98  1  0.00219294  0.60779450  0.27647271  1  0.10105  0  0.105615  0.112132  0  1.003589  0
H  H99  1  0.88660892  0.89207459  0.22398256  1  0.096128  0  0.105318  0.111861  0  1.004475  0
H  H100  1  0.03163104  0.28645371  0.67707701  1  0.05027  0  0.103463  0.101923  0  0.991418  0
H  H101  1  0.99509187  0.21365189  0.82228845  1  0.051783  0  0.10321  0.101102  0  0.993098  0
H  H102  1  0.96836424  0.71355257  0.32291651  1  0.050311  0  0.103471  0.10196  0  0.991449  0
H  H103  1  0.00490854  0.78635307  0.17770702  1  0.051912  0  0.103217  0.101091  0  0.993121  0
H  H104  1  0.13444899  0.19357759  0.61391739  1  0.062699  0  0.105709  0.108913  0  0.996342  0
H  H105  1  0.94173296  0.30654097  0.88552669  1  0.064286  0  0.105401  0.110278  0  0.994027  0
H  H106  1  0.86555006  0.80641676  0.38608698  1  0.062555  0  0.105711  0.108888  0  0.99628  0
H  H107  1  0.05826817  0.69346537  0.11446588  1  0.06432  0  0.105384  0.110334  0  0.994072  0
C  C108  1  0.19318508  0.75644410  0.69090482  1  -0.029875  0  -0.029999  -0.063565  0  4.038295  0
C  C109  1  0.64085082  0.74395405  0.80837063  1  0.004879  0  -0.029284  -0.060324  0  4.032805  0
C  C110  1  0.80681529  0.24355482  0.30909318  1  -0.029846  0  -0.029981  -0.063606  0  4.038327  0
C  C111  1  0.35914368  0.25605875  0.19162175  1  0.005107  0  -0.029273  -0.060374  0  4.032936  0
C  C112  1  0.10592747  0.77941375  0.71708350  1  -0.015877  0  -0.063008  -0.077283  0  3.881955  0
C  C113  1  0.60259675  0.72078711  0.78237494  1  -0.012774  0  -0.062585  -0.078317  0  3.878905  0
C  C114  1  0.89407197  0.22058465  0.28291366  1  -0.016235  0  -0.063028  -0.077259  0  3.881947  0
C  C115  1  0.39739515  0.27922310  0.21762089  1  -0.012604  0  -0.062505  -0.077971  0  3.879071  0
C  C116  1  0.06023076  0.74721048  0.70733825  1  0.008379  0  -0.013293  -0.02771  0  3.957176  0
C  C117  1  0.51495400  0.75277461  0.79233918  1  0.020633  0  -0.014342  -0.027736  0  3.956849  0
C  C118  1  0.93977123  0.25278430  0.29266025  1  0.008383  0  -0.013327  -0.02782  0  3.95702  0
C  C119  1  0.48503787  0.24723229  0.20766175  1  0.020707  0  -0.014367  -0.027958  0  3.957221  0
C  C120  1  0.10124509  0.69186103  0.67262587  1  -0.020705  0  -0.060922  -0.09264  0  3.858551  0
C  C121  1  0.46604481  0.80799929  0.82716387  1  -0.074488  0  -0.060054  -0.091113  0  3.857902  0
C  C122  1  0.89875888  0.30813310  0.32737356  1  -0.020401  0  -0.060883  -0.092649  0  3.858237  0
C  C123  1  0.53394706  0.19200758  0.17283750  1  -0.074192  0  -0.060018  -0.091152  0  3.857795  0
C  C124  1  0.18890761  0.66666644  0.64811747  1  -0.049715  0  -0.003766  0.071129  0  3.992932  0
C  C125  1  0.50409167  0.83328905  0.85159552  1  -0.019319  0  -0.003459  0.072353  0  3.991059  0
C  C126  1  0.81109684  0.33332948  0.35188163  1  -0.049575  0  -0.003769  0.071179  0  3.992945  0
C  C127  1  0.49590221  0.16672050  0.14840124  1  -0.019393  0  -0.003363  0.072685  0  3.990638  0
C  C128  1  0.23384962  0.69996555  0.65731792  1  -0.044265  0  -0.085714  -0.13869  0  3.943142  0
C  C129  1  0.59154645  0.80033242  0.84206417  1  -0.01918  0  -0.085668  -0.139724  0  3.941774  0
C  C130  1  0.76615238  0.30003208  0.34268178  1  -0.044256  0  -0.085626  -0.138488  0  3.943107  0
C  C131  1  0.40844805  0.19968038  0.15792821  1  -0.019677  0  -0.085828  -0.140096  0  3.942094  0
C  C132  1  0.24385327  0.79363144  0.69494838  1  1.487049  0  0.206695  0.579267  0  4.181016  0
C  C133  1  0.73273244  0.70684617  0.80434846  1  1.490094  0  0.206906  0.578698  0  4.186332  0
C  C134  1  0.75614616  0.20636679  0.30505103  1  1.487082  0  0.206759  0.579321  0  4.181001  0
C  C135  1  0.26726228  0.29316590  0.19564586  1  1.490034  0  0.206716  0.578502  0  4.186416  0
C  C136  1  0.96688810  0.77189456  0.73403130  1  1.554749  0  0.211497  0.594342  0  4.171751  0
C  C137  1  0.47283126  0.72806984  0.76570498  1  1.519964  0  0.210606  0.591065  0  4.175504  0
C  C138  1  0.03311343  0.22810159  0.26596468  1  1.554795  0  0.211352  0.594251  0  4.171929  0
C  C139  1  0.52715881  0.27193375  0.23430115  1  1.519687  0  0.210891  0.591561  0  4.175065  0
C  C140  1  0.23509360  0.60925036  0.61052938  1  -0.004029  0  -0.000292  0.084858  0  4.000523  0
C  C141  1  0.45528453  0.89042628  0.88944800  1  -0.040706  0  -0.001118  0.082531  0  4.000397  0
C  C142  1  0.76491355  0.39074622  0.38946867  1  -0.004307  0  -0.000331  0.084686  0  4.000934  0
C  C143  1  0.54471167  0.10958015  0.11055132  1  -0.040672  0  -0.001314  0.082202  0  4.000379  0
C  C144  1  0.20175597  0.61317990  0.56236336  1  0.035804  0  -0.084329  -0.124657  0  3.98544  0
C  C145  1  0.37799159  0.88611993  0.93760644  1  0.06064  0  -0.084113  -0.123163  0  3.982295  0
C  C146  1  0.79824952  0.38681477  0.43763673  1  0.036065  0  -0.084254  -0.124453  0  3.985575  0
C  C147  1  0.62200553  0.11388406  0.06239432  1  0.059964  0  -0.084068  -0.123191  0  3.982577  0
C  C148  1  0.24852262  0.56585152  0.52178838  1  -0.162817  0  -0.082915  -0.120194  0  3.996014  0
C  C149  1  0.33665170  0.93334403  0.97827693  1  -0.109766  0  -0.082856  -0.120236  0  3.997422  0
C  C150  1  0.75148134  0.43414251  0.47821240  1  -0.163286  0  -0.083012  -0.121277  0  3.995241  0
C  C151  1  0.66334564  0.06665933  0.02172442  1  -0.109544  0  -0.082816  -0.121036  0  3.996905  0
C  C152  1  0.33076501  0.51126749  0.52753211  1  -0.043031  0  -0.006701  0.065052  0  4.018178  0
C  C153  1  0.36959574  0.98817666  0.97270156  1  -0.040773  0  -0.007468  0.065366  0  4.01798  0
C  C154  1  0.66923990  0.48872726  0.47246681  1  -0.043447  0  -0.006689  0.068095  0  4.013932  0
C  C155  1  0.63040196  0.01182730  0.02729946  1  -0.040548  0  -0.007479  0.068243  0  4.013944  0
C  C156  1  0.38292477  0.46637870  0.48322608  1  0.04375  0  -0.075984  -0.130993  0  3.928346  0
C  C157  1  0.33234380  0.03299860  0.01710137  1  -0.014585  0  -0.076198  -0.132288  0  3.931032  0
C  C158  1  0.61707788  0.53361117  0.51677567  1  0.043788  0  -0.076  -0.132077  0  3.927642  0
C  C159  1  0.66765400  0.96700353  0.98290069  1  -0.014282  0  -0.07622  -0.133324  0  3.930163  0
C  C160  1  0.46291968  0.41348455  0.49012838  1  -0.058171  0  -0.027461  -0.052693  0  4.016152  0
C  C161  1  0.36585110  0.08616848  0.01035395  1  -0.029286  0  -0.027087  -0.053433  0  4.017847  0
C  C162  1  0.53708300  0.58650832  0.50987232  1  -0.058264  0  -0.0274  -0.052733  0  4.016615  0
C  C163  1  0.63414543  0.91383543  0.98964789  1  -0.026859  0  -0.027106  -0.0534  0  4.018027  0
C  C164  1  0.49241041  0.40200751  0.54365959  1  -0.120311  0  -0.091227  -0.099341  0  4.016064  0
C  C165  1  0.43715199  0.09794505  0.95690025  1  -0.024491  0  -0.090481  -0.098285  0  4.015317  0
C  C166  1  0.50759580  0.59798855  0.45633760  1  -0.120409  0  -0.091266  -0.099379  0  4.016035  0
C  C167  1  0.56284291  0.90206005  0.04310124  1  -0.02729  0  -0.090478  -0.098454  0  4.01571  0
C  C168  1  0.44379792  0.44629246  0.58655543  1  -0.012189  0  -0.089418  -0.135962  0  3.994468  0
C  C169  1  0.47594040  0.05373246  0.91392635  1  -0.035312  0  -0.089189  -0.134548  0  3.989253  0
C  C170  1  0.55621065  0.55370669  0.41343953  1  -0.009121  0  -0.089299  -0.135917  0  3.994327  0
C  C171  1  0.52405567  0.94627271  0.08607432  1  -0.035406  0  -0.089175  -0.134454  0  3.9894  0
C  C172  1  0.36279800  0.50312673  0.57896811  1  -0.000283  0  -0.003372  0.087822  0  4.004279  0
C  C173  1  0.44467004  0.99665010  0.92133455  1  -0.022553  0  -0.003703  0.086035  0  4.001832  0
C  C174  1  0.63720963  0.49687179  0.42102735  1  -0.002455  0  -0.003424  0.086947  0  4.003641  0
C  C175  1  0.55532744  0.00335449  0.07866589  1  -0.022414  0  -0.003704  0.085124  0  4.001353  0
C  C176  1  0.31365869  0.55345630  0.61910772  1  -0.017695  0  -0.086764  -0.180774  0  3.927903  0
C  C177  1  0.48619747  0.94643941  0.88105902  1  -0.024901  0  -0.08723  -0.180994  0  3.925643  0
C  C178  1  0.68635024  0.44654339  0.38088782  1  -0.017842  0  -0.086762  -0.180751  0  3.928042  0
C  C179  1  0.51379919  0.05356581  0.11894102  1  -0.025234  0  -0.087245  -0.18101  0  3.9258  0
C  C180  1  0.51802975  0.37021485  0.44036671  1  1.550447  0  0.212135  0.601428  0  4.183679  0
C  C181  1  0.32780233  0.12936462  0.06020378  1  1.524833  0  0.212839  0.603323  0  4.179202  0
C  C182  1  0.48197373  0.62977743  0.55963394  1  1.551042  0  0.212298  0.601645  0  4.183515  0
C  C183  1  0.67219453  0.87063685  0.93979923  1  1.525023  0  0.212863  0.603327  0  4.179138  0
C  C184  1  0.34618516  0.05679527  0.52231759  1  0.018094  0  -0.019241  -0.031896  0  3.990326  0
C  C185  1  0.92515159  0.44346441  0.97734248  1  0.017729  0  -0.019073  -0.032702  0  3.991851  0
C  C186  1  0.65382354  0.94319340  0.47769234  1  0.018869  0  -0.019252  -0.031743  0  3.990149  0
C  C187  1  0.07484718  0.55653868  0.02265458  1  0.01763  0  -0.019114  -0.032689  0  3.991866  0
C  C188  1  0.41112878  0.08040396  0.47014108  1  0.037719  0  -0.072451  -0.092968  0  3.922068  0
C  C189  1  0.96164786  0.41989251  0.02956105  1  -0.030414  0  -0.072529  -0.091922  0  3.919509  0
C  C190  1  0.58888109  0.91958454  0.52987118  1  0.034436  0  -0.072482  -0.092981  0  3.921585  0
C  C191  1  0.03834983  0.58010876  0.97043697  1  -0.031226  0  -0.072438  -0.091872  0  3.919361  0
C  C192  1  0.42276048  0.14834724  0.46229563  1  -0.036164  0  -0.022881  -0.037744  0  4.006956  0
C  C193  1  0.03325103  0.35183147  0.03758140  1  0.000779  0  -0.023242  -0.039484  0  4.006328  0
C  C194  1  0.57724671  0.85164376  0.53771440  1  -0.032488  0  -0.02292  -0.037876  0  4.006963  0
C  C195  1  0.96674643  0.64817035  0.96241694  1  -8e-06  0  -0.023321  -0.039572  0  4.006282  0
C  C196  1  0.36713536  0.19442270  0.50435119  1  -0.019199  0  -0.078723  -0.133377  0  3.925378  0
C  C197  1  0.06561113  0.30572160  0.99555539  1  -0.022555  0  -0.077814  -0.130517  0  3.922293  0
C  C198  1  0.63286683  0.80557079  0.49565689  1  -0.018923  0  -0.078665  -0.133171  0  3.925256  0
C  C199  1  0.93438786  0.69428089  0.00444180  1  -0.022199  0  -0.077791  -0.130459  0  3.92216  0
C  C200  1  0.30056032  0.17250756  0.55621534  1  -0.027555  0  -0.004648  0.06746  0  3.998196  0
C  C201  1  0.02890090  0.32761949  0.94362796  1  -0.005974  0  -0.004895  0.067071  0  3.996733  0
C  C202  1  0.69944093  0.82748551  0.44379055  1  -0.02763  0  -0.004636  0.067389  0  3.998147  0
C  C203  1  0.97109997  0.67238425  0.05636822  1  -0.00596  0  -0.004992  0.067044  0  3.996722  0
C  C204  1  0.29182365  0.10182781  0.56557924  1  -0.082962  0  -0.068036  -0.115685  0  3.864533  0
C  C205  1  0.95885456  0.39831862  0.93417094  1  -0.05847  0  -0.068127  -0.116443  0  3.864419  0
C  C206  1  0.70817958  0.89816461  0.43442758  1  -0.083439  0  -0.067986  -0.115733  0  3.864503  0
C  C207  1  0.04114668  0.60168576  0.06582447  1  -0.058333  0  -0.068027  -0.116405  0  3.864655  0
C  C208  1  0.33860776  0.98113127  0.53253492  1  1.529073  0  0.20284  0.584396  0  4.194166  0
C  C209  1  0.85229793  0.51925894  0.96691472  1  1.52679  0  0.20281  0.584371  0  4.197914  0
C  C210  1  0.66139919  0.01885740  0.46747512  1  1.528674  0  0.20275  0.584124  0  4.194119  0
C  C211  1  0.14770142  0.48074420  0.03308170  1  1.527259  0  0.202763  0.584259  0  4.198204  0
C  C212  1  0.49660570  0.16964732  0.41078760  1  1.5262  0  0.211994  0.595042  0  4.174012  0
C  C213  1  0.07682892  0.33041188  0.08929739  1  1.527321  0  0.21147  0.594455  0  4.176352  0
C  C214  1  0.50339929  0.83034493  0.58922136  1  1.526366  0  0.212035  0.59518  0  4.174111  0
C  C215  1  0.92317053  0.66958946  0.91069963  1  1.527495  0  0.21151  0.59451  0  4.176227  0
C  C216  1  0.24110188  0.22394777  0.59833477  1  -0.012871  0  -0.008929  0.07091  0  4.015693  0
C  C217  1  0.06300823  0.27611185  0.90153130  1  0.026487  0  -0.009626  0.070295  0  4.014425  0
C  C218  1  0.75889729  0.77604782  0.40166870  1  -0.012864  0  -0.00896  0.070751  0  4.015773  0
C  C219  1  0.93699313  0.72389376  0.09846320  1  0.02611  0  -0.009541  0.070411  0  4.014357  0
C  C220  1  0.26651731  0.26977111  0.61195084  1  -0.04287  0  -0.090447  -0.180804  0  3.955868  0
C  C221  1  0.14780880  0.23020440  0.88815722  1  -0.049653  0  -0.089933  -0.18092  0  3.955026  0
C  C222  1  0.73348163  0.73022508  0.38805249  1  -0.042822  0  -0.090418  -0.180804  0  3.955764  0
C  C223  1  0.85219195  0.76979820  0.11183852  1  -0.049378  0  -0.089945  -0.18102  0  3.955054  0
C  C224  1  0.20939960  0.32304305  0.64853538  1  0.00384  0  -0.005827  0.088636  0  4.001738  0
C  C225  1  0.18059103  0.17687444  0.85159176  1  -0.009179  0  -0.005615  0.088293  0  4.002  0
C  C226  1  0.79059784  0.67695570  0.35146490  1  0.003878  0  -0.005863  0.088659  0  4.001712  0
C  C227  1  0.81940819  0.82312746  0.14840557  1  -0.009074  0  -0.005665  0.088205  0  4.002123  0
C  C228  1  0.23465018  0.37088561  0.66202220  1  -0.0133  0  -0.09636  -0.140642  0  3.995595  0
C  C229  1  0.26705402  0.12879404  0.83847404  1  0.004216  0  -0.097025  -0.141958  0  3.998952  0
C  C230  1  0.76534840  0.62910997  0.33798145  1  -0.013116  0  -0.096328  -0.140667  0  3.995509  0
C  C231  1  0.73294352  0.87120285  0.16152773  1  0.004147  0  -0.096968  -0.141911  0  3.998856  0
C  C232  1  0.17653005  0.42467785  0.69516978  1  -0.044745  0  -0.089465  -0.0969  0  3.995031  0
C  C233  1  0.29587299  0.07492068  0.80537227  1  -0.086304  0  -0.089691  -0.0959  0  3.996158  0
C  C234  1  0.82346772  0.57531841  0.30483258  1  -0.04466  0  -0.089588  -0.097043  0  3.995233  0
C  C235  1  0.70412455  0.92507617  0.19462995  1  -0.086287  0  -0.089682  -0.095611  0  3.995837  0
C  C236  1  0.09005681  0.43279793  0.71721414  1  -0.017427  0  -0.019426  -0.022822  0  3.977158  0
C  C237  1  0.23972479  0.06696933  0.78295013  1  0.01209  0  -0.02044  -0.024429  0  3.980021  0
C  C238  1  0.90994008  0.56720408  0.28278168  1  -0.018381  0  -0.019386  -0.022713  0  3.977199  0
C  C239  1  0.76027313  0.93303124  0.21704937  1  0.012165  0  -0.02039  -0.024386  0  3.979973  0
C  C240  1  0.06426416  0.38555000  0.70602249  1  0.009719  0  -0.076161  -0.131472  0  3.930822  0
C  C241  1  0.15560535  0.11443248  0.79379618  1  -0.053832  0  -0.075202  -0.131793  0  3.931213  0
C  C242  1  0.93573170  0.61445639  0.29396950  1  0.009531  0  -0.076139  -0.131502  0  3.930778  0
C  C243  1  0.84439306  0.88557000  0.20620120  1  -0.053633  0  -0.075236  -0.131858  0  3.931305  0
C  C244  1  0.12237313  0.33021303  0.67170772  1  -0.051645  0  -0.00678  0.071637  0  4.002252  0
C  C245  1  0.12404849  0.16979073  0.82811490  1  -0.052199  0  -0.007444  0.073957  0  3.99672  0
C  C246  1  0.87762330  0.66979017  0.32828783  1  -0.050873  0  -0.006763  0.071746  0  4.002151  0
C  C247  1  0.87595122  0.83021305  0.17188075  1  -0.052517  0  -0.007441  0.074004  0  3.996762  0
C  C248  1  0.09767377  0.28165453  0.65878231  1  -0.037538  0  -0.085358  -0.12119  0  4.007131  0
C  C249  1  0.03792684  0.21842291  0.84079882  1  -0.051662  0  -0.08433  -0.119707  0  4.006192  0
C  C250  1  0.90232242  0.71834927  0.34121310  1  -0.037856  0  -0.085422  -0.121451  0  4.0073  0
C  C251  1  0.96207429  0.78158334  0.15919510  1  -0.051577  0  -0.084319  -0.119631  0  4.006094  0
C  C252  1  0.15503899  0.22980564  0.62367234  1  -0.043858  0  -0.089307  -0.126615  0  3.992363  0
C  C253  1  0.00825901  0.27027324  0.87594797  1  -0.002564  0  -0.089138  -0.128723  0  3.991414  0
C  C254  1  0.84495927  0.77019253  0.37632789  1  -0.043665  0  -0.089316  -0.126392  0  3.992229  0
C  C255  1  0.99174225  0.72973425  0.12404504  1  -0.002423  0  -0.08922  -0.128957  0  3.991548  0
C  C256  1  0.02612467  0.49395633  0.75017064  1  1.516934  0  0.18611  0.550353  0  4.23567  0
C  C257  1  0.26995662  0.00587924  0.74987642  1  1.549485  0  0.18611  0.550451  0  4.237751  0
C  C258  1  0.97387234  0.50604692  0.24982427  1  1.516994  0  0.186178  0.550447  0  4.235714  0
C  C259  1  0.73003745  0.99412371  0.25012257  1  1.549556  0  0.186026  0.550269  0  4.237845  0
O  O260  1  0.21443095  0.83588761  0.73188361  1  -1.094094  0  -0.290824  -0.475847  0  2.13368  0
O  O261  1  0.78242814  0.66455845  0.76744601  1  -1.113079  0  -0.290908  -0.476255  0  2.137128  0
O  O262  1  0.78556394  0.16411492  0.26811308  1  -1.094178  0  -0.29085  -0.475862  0  2.13369  0
O  O263  1  0.21756740  0.33545301  0.23254870  1  -1.112845  0  -0.290918  -0.476303  0  2.137109  0
O  O264  1  0.32151537  0.78026772  0.65785991  1  -1.196883  0  -0.364269  -0.6876  0  2.564275  0
O  O265  1  0.75996450  0.72023548  0.84149355  1  -1.189989  0  -0.365178  -0.688492  0  2.565276  0
O  O266  1  0.67848566  0.21972605  0.34214449  1  -1.196856  0  -0.36433  -0.687693  0  2.564382  0
O  O267  1  0.24002868  0.27977286  0.15850386  1  -1.190025  0  -0.365102  -0.688349  0  2.56527  0
O  O268  1  0.93250288  0.82178141  0.76621414  1  -1.140579  0  -0.326118  -0.538488  0  2.19718  0
O  O269  1  0.52035894  0.67818828  0.73351372  1  -1.138325  0  -0.325763  -0.537129  0  2.197802  0
O  O270  1  0.06749807  0.17821472  0.23378203  1  -1.140674  0  -0.325972  -0.538352  0  2.197373  0
O  O271  1  0.47963055  0.32181533  0.26649215  1  -1.138081  0  -0.32587  -0.537249  0  2.197828  0
O  O272  1  0.92540743  0.74322897  0.72373970  1  -1.19305  0  -0.332665  -0.611109  0  2.246791  0
O  O273  1  0.39243548  0.75672649  0.77601970  1  -1.170664  0  -0.331646  -0.608641  0  2.248574  0
O  O274  1  0.07459541  0.25676850  0.27625411  1  -1.193039  0  -0.332691  -0.61114  0  2.246688  0
O  O275  1  0.60755317  0.24327450  0.22398997  1  -1.170805  0  -0.33176  -0.60891  0  2.248217  0
O  O276  1  0.58170561  0.30854632  0.45531936  1  -1.206363  0  -0.332061  -0.613713  0  2.335116  0
O  O277  1  0.34473322  0.19096216  0.04546859  1  -1.204224  0  -0.333058  -0.615716  0  2.335505  0
O  O278  1  0.41830154  0.69145029  0.54467824  1  -1.206681  0  -0.332181  -0.613862  0  2.334985  0
O  O279  1  0.65526386  0.80903849  0.95453771  1  -1.204143  0  -0.3331  -0.615725  0  2.335373  0
O  O280  1  0.49796882  0.39907361  0.38407487  1  -1.134399  0  -0.33051  -0.555289  0  2.239452  0
O  O281  1  0.28028411  0.10054666  0.11634637  1  -1.139715  0  -0.330322  -0.554898  0  2.235833  0
O  O282  1  0.50202797  0.60091612  0.61592874  1  -1.134559  0  -0.330585  -0.555343  0  2.239327  0
O  O283  1  0.71971100  0.89945488  0.88365585  1  -1.139699  0  -0.330323  -0.554938  0  2.235848  0
O  O284  1  0.37899516  0.95049918  0.48466292  1  -1.169147  0  -0.33535  -0.580139  0  2.225923  0
O  O285  1  0.81437679  0.55007313  0.01468323  1  -1.169192  0  -0.335514  -0.580222  0  2.22664  0
O  O286  1  0.62101472  0.04948952  0.51534664  1  -1.169081  0  -0.335353  -0.580084  0  2.225846  0
O  O287  1  0.18562398  0.44993245  0.98531191  1  -1.169257  0  -0.335483  -0.580206  0  2.22679  0
O  O288  1  0.29515621  0.94666864  0.58755944  1  -1.177683  0  -0.328168  -0.574067  0  2.261789  0
O  O289  1  0.82938129  0.55365065  0.91182319  1  -1.171074  0  -0.327869  -0.573743  0  2.26379  0
O  O290  1  0.70484514  0.05332257  0.41244794  1  -1.177534  0  -0.328127  -0.573977  0  2.261755  0
O  O291  1  0.17061641  0.44635068  0.08817393  1  -1.171382  0  -0.327865  -0.573668  0  2.263946  0
O  O292  1  0.53961116  0.13378560  0.36800337  1  -1.151499  0  -0.305346  -0.535387  0  2.2703  0
O  O293  1  0.04128404  0.36633372  0.13203755  1  -1.146957  0  -0.304903  -0.53465  0  2.270228  0
O  O294  1  0.46039253  0.86620543  0.63200642  1  -1.151075  0  -0.305394  -0.535528  0  2.270361  0
O  O295  1  0.95871600  0.63366763  0.86795928  1  -1.14692  0  -0.304912  -0.534677  0  2.27018  0
O  O296  1  0.51254548  0.22355520  0.41591155  1  -1.178968  0  -0.354349  -0.633752  0  2.399576  0
O  O297  1  0.15165764  0.27629747  0.08440379  1  -1.187993  0  -0.354093  -0.63377  0  2.404009  0
O  O298  1  0.48746022  0.77643837  0.58409542  1  -1.179595  0  -0.35429  -0.633686  0  2.39948  0
O  O299  1  0.84834276  0.72370455  0.91559182  1  -1.188011  0  -0.354056  -0.63374  0  2.403984  0
O  O300  1  0.94976488  0.49626461  0.77377257  1  -1.150937  0  -0.335781  -0.56029  0  2.149758  0
O  O301  1  0.21977907  0.00393990  0.72567501  1  -1.149497  0  -0.336247  -0.560535  0  2.149963  0
O  O302  1  0.05022825  0.50374945  0.22621060  1  -1.150787  0  -0.335743  -0.560317  0  2.149818  0
O  O303  1  0.78021684  0.99607240  0.27431624  1  -1.149464  0  -0.336227  -0.56053  0  2.150029  0
O  O304  1  0.04902755  0.54390065  0.75275800  1  -1.143431  0  -0.336317  -0.564042  0  2.164359  0
O  O305  1  0.34522661  0.95567022  0.74771921  1  -1.152146  0  -0.335084  -0.56308  0  2.167376  0
O  O306  1  0.95097334  0.45609174  0.24724911  1  -1.143052  0  -0.336363  -0.564076  0  2.164361  0
O  O307  1  0.65476388  0.04432337  0.25228763  1  -1.15228  0  -0.33501  -0.562941  0  2.167345  0
O  O308  1  0.29941871  0.81055650  0.48571075  1  -1.20435  0  -0.56451  -0.719622  0  1.958287  0
O  O309  1  0.59622625  0.69001206  0.01382859  1  -1.213455  0  -0.564639  -0.7195  0  1.957924  0
O  O310  1  0.70058024  0.18944243  0.51429513  1  -1.204173  0  -0.564529  -0.719649  0  1.958234  0
O  O311  1  0.40377656  0.30998481  0.98617331  1  -1.213417  0  -0.564588  -0.719461  0  1.957843  0
O  O312  1  0.35657602  0.63456672  0.78634886  1  -1.196016  0  -0.577902  -0.742449  0  1.970262  0
O  O313  1  0.77788992  0.86552184  0.71317128  1  -1.209608  0  -0.578251  -0.742081  0  1.969328  0
O  O314  1  0.64342798  0.36543316  0.21365208  1  -1.196051  0  -0.577928  -0.742398  0  1.970111  0
O  O315  1  0.22212058  0.13448439  0.28682283  1  -1.209157  0  -0.578193  -0.741852  0  1.969409  0
O  O316  1  0.46832262  0.83964817  0.42203450  1  -1.198094  0  -0.583426  -0.768981  0  1.944232  0
O  O317  1  0.72965366  0.66014965  0.07813058  1  -1.221569  0  -0.582963  -0.768903  0  1.944173  0
O  O318  1  0.53168289  0.16034927  0.57796769  1  -1.19829  0  -0.583442  -0.768978  0  1.944243  0
O  O319  1  0.27034961  0.33984607  0.92187114  1  -1.221182  0  -0.582928  -0.768873  0  1.944235  0
