# generated using pymatgen
data_Zr6H20C51(O17F5)2
_symmetry_space_group_name_H-M   'P 1'
_cell_length_a   14.79098892
_cell_length_b   14.81110378
_cell_length_c   14.80062977
_cell_angle_alpha   60.05678054
_cell_angle_beta   59.94720431
_cell_angle_gamma   60.00782004
_symmetry_Int_Tables_number   1
_chemical_formula_structural   Zr6H20C51(O17F5)2
_chemical_formula_sum   'Zr6 H20 C51 O34 F10'
_cell_volume   2292.91407459
_cell_formula_units_Z   1
loop_
 _symmetry_equiv_pos_site_id
 _symmetry_equiv_pos_as_xyz
  1  'x, y, z'
loop_
 _atom_site_type_symbol
 _atom_site_label
 _atom_site_symmetry_multiplicity
 _atom_site_fract_x
 _atom_site_fract_y
 _atom_site_fract_z
 _atom_site_occupancy
 _atom_site_pbe_bader_charge
 _atom_site_pbe_bader_spin_density
 _atom_site_pbe_cm5_charge
 _atom_site_pbe_ddec_charge
 _atom_site_pbe_ddec_spin_density
 _atom_site_pbe_ddec_sum_bond_order
 _atom_site_pbe_magmom
Zr  Zr0  1  0.87800741  0.88499173  0.61934903  1  2.637228  0  1.631655  2.375869  0  2.75497  0
Zr  Zr1  1  0.12030831  0.12046403  0.38095982  1  2.641283  0  1.632378  2.379007  0  2.750768  0
Zr  Zr2  1  0.11759993  0.88284638  0.62036864  1  2.636169  0  1.628078  2.375398  0  2.752769  0
Zr  Zr3  1  0.88076709  0.12273286  0.37937236  1  2.635811  0  1.627391  2.373294  0  2.749908  0
Zr  Zr4  1  0.11840211  0.88265331  0.38109419  1  2.635826  0  1.632413  2.377958  0  2.752546  0
Zr  Zr5  1  0.87930445  0.12313661  0.61908647  1  2.63309  0  1.630214  2.378093  0  2.743539  0
H  H6  1  0.09169303  0.72109737  0.59424909  1  0.622065  0  0.332244  0.424928  0  0.855449  0
H  H7  1  0.09653716  0.09385654  0.21781193  1  0.627204  0  0.33331  0.426482  0  0.850941  0
H  H8  1  0.09322926  0.09628755  0.59498157  1  0.619329  0  0.331526  0.424349  0  0.85709  0
H  H9  1  0.71618774  0.09931655  0.59269516  1  0.605091  0  0.332444  0.425753  0  0.854615  0
H  H10  1  0.13855846  0.59403513  0.35854568  1  0.150665  0  0.125126  0.158313  0  0.971624  0
H  H11  1  0.83834322  0.43223804  0.62180622  1  0.147162  0  0.124364  0.157198  0  0.974344  0
H  H12  1  0.62463252  0.10164151  0.94907591  1  0.154286  0  0.123109  0.154581  0  0.974898  0
H  H13  1  0.39104995  0.88437803  0.07001768  1  0.124866  0  0.122637  0.153741  0  0.975209  0
H  H14  1  0.83635895  0.12073240  0.11233949  1  0.145263  0  0.122876  0.153875  0  0.978501  0
H  H15  1  0.13868633  0.86034615  0.91134143  1  0.175307  0  0.12391  0.155487  0  0.972435  0
H  H16  1  0.58625679  0.41160289  0.36029891  1  0.138322  0  0.121709  0.150193  0  0.982627  0
H  H17  1  0.43514422  0.61678874  0.61469976  1  0.14837  0  0.124416  0.155925  0  0.972298  0
H  H18  1  0.16052264  0.56853362  0.89544467  1  0.06855  0  0.112835  0.126089  0  0.985473  0
H  H19  1  0.73259039  0.65171205  0.98090228  1  0.071494  0  0.100462  0.11496  0  0.981374  0
H  H20  1  0.80048263  0.56797169  0.89621869  1  0.064047  0  0.103229  0.117348  0  0.974887  0
H  H21  1  0.80152069  0.39696212  0.06607842  1  0.059109  0  0.102284  0.114383  0  0.975132  0
H  H22  1  0.73509929  0.48031716  0.15113993  1  0.055696  0  0.098843  0.11117  0  0.9866  0
H  H23  1  0.59722920  0.85494139  0.63310796  1  0.132713  0  0.124439  0.157024  0  0.974071  0
H  H24  1  0.42424915  0.12759302  0.34321703  1  0.198085  0  0.126043  0.161166  0  0.971405  0
H  H25  1  0.16124034  0.43706845  0.15925746  1  0.615391  0  0.331957  0.370159  0  0.885697  0
C  C26  1  0.98891988  0.70577523  0.49813026  1  1.601536  0  0.237711  0.655759  0  4.099946  0
C  C27  1  0.30970472  0.99626078  0.20472262  1  1.584679  0  0.240734  0.659329  0  4.088132  0
C  C28  1  0.99672021  0.31150664  0.49137504  1  1.583567  0  0.236573  0.653526  0  4.103843  0
C  C29  1  0.69880695  0.99817942  0.80694061  1  1.567561  0  0.238848  0.658338  0  4.09738  0
C  C30  1  0.99690394  0.70271058  0.80566469  1  1.53247  0  0.236445  0.643957  0  4.110801  0
C  C31  1  0.70164496  0.00164129  0.48963135  1  1.59209  0  0.238767  0.657892  0  4.094456  0
C  C32  1  0.99969963  0.30494492  0.19626354  1  1.542126  0  0.233785  0.641302  0  4.122595  0
C  C33  1  0.30793947  0.99294794  0.49855941  1  1.568687  0  0.238098  0.656341  0  4.096673  0
C  C34  1  0.30723907  0.70418431  0.49276672  1  1.596776  0  0.237074  0.655335  0  4.101691  0
C  C35  1  0.98873891  0.99889699  0.81019220  1  1.597922  0  0.239316  0.658637  0  4.09663  0
C  C36  1  0.70421941  0.31409761  0.49341164  1  1.587358  0  0.238004  0.656835  0  4.097111  0
C  C37  1  0.99643075  0.99360248  0.20262335  1  1.596905  0  0.238126  0.657126  0  4.09902  0
C  C38  1  0.99319505  0.41644175  0.48688877  1  0.012945  0  -0.016082  -0.117718  0  3.958434  0
C  C39  1  0.98478152  0.60859690  0.49470249  1  0.038028  0  -0.013971  -0.113645  0  3.950004  0
C  C40  1  0.07549422  0.46597087  0.41200104  1  0.478986  0  0.102868  0.261618  0  4.046813  0
C  C41  1  0.90011341  0.56175476  0.56690261  1  0.44146  0  0.107185  0.269455  0  4.039366  0
C  C42  1  0.07233002  0.55890831  0.41605843  1  0.052062  0  -0.086347  -0.203039  0  3.974748  0
C  C43  1  0.90427089  0.46768645  0.56381078  1  0.013072  0  -0.084185  -0.198408  0  3.961339  0
C  C44  1  0.41387875  0.99345829  0.10709447  1  0.060559  0  -0.011957  -0.111824  0  3.947893  0
C  C45  1  0.60137064  0.99325185  0.91123511  1  0.044361  0  -0.0146  -0.11679  0  3.95738  0
C  C46  1  0.48263489  0.05264908  0.07183025  1  0.476696  0  0.112717  0.280823  0  4.032091  0
C  C47  1  0.53430216  0.93151285  0.94854972  1  0.456017  0  0.1031  0.26364  0  4.050581  0
C  C48  1  0.57381233  0.05354200  0.97559061  1  0.013408  0  -0.081889  -0.193782  0  3.945414  0
C  C49  1  0.44257577  0.93157065  0.04391889  1  0.051214  0  -0.086953  -0.202847  0  3.975878  0
C  C50  1  0.98383823  0.99459420  0.91566953  1  0.027861  0  -0.015416  -0.116594  0  3.953376  0
C  C51  1  0.99267608  0.98820970  0.10633167  1  0.088629  0  -0.014562  -0.115417  0  3.949984  0
C  C52  1  0.89842994  0.06588493  0.97574775  1  0.450661  0  0.106031  0.267683  0  4.041566  0
C  C53  1  0.07581148  0.91395837  0.04885689  1  0.438223  0  0.105175  0.268098  0  4.044845  0
C  C54  1  0.90278624  0.06342900  0.06835592  1  -0.009765  0  -0.085454  -0.200707  0  3.966263  0
C  C55  1  0.07197832  0.91724710  0.95562340  1  0.022398  0  -0.086371  -0.201601  0  3.973268  0
C  C56  1  0.41296854  0.60824305  0.48634900  1  0.055693  0  -0.014073  -0.115375  0  3.951525  0
C  C57  1  0.60766614  0.41920851  0.48959727  1  -0.023588  0  -0.015125  -0.117082  0  3.955319  0
C  C58  1  0.45935589  0.54964168  0.41361380  1  0.441712  0  0.105262  0.268541  0  4.043492  0
C  C59  1  0.56390151  0.48047768  0.55914879  1  0.453789  0  0.108819  0.273081  0  4.035896  0
C  C60  1  0.55389327  0.45713500  0.41545928  1  0.079017  0  -0.08793  -0.206314  0  3.984983  0
C  C61  1  0.46849421  0.57219340  0.55836174  1  0.041899  0  -0.083981  -0.197317  0  3.960399  0
C  C62  1  0.99767435  0.60102865  0.90448953  1  0.010704  0  -0.010015  -0.073802  0  3.975167  0
C  C63  1  0.00144851  0.40357561  0.09488594  1  0.064851  0  -0.011132  -0.10851  0  3.96166  0
C  C64  1  0.91078713  0.55893240  0.96232561  1  -0.056651  0  0.00034  0.067293  0  3.881243  0
C  C65  1  0.09311567  0.44246638  0.03325447  1  -0.035057  0  -0.01125  -0.074208  0  3.983797  0
C  C66  1  0.91253880  0.46359482  0.05542964  1  -0.074816  0  -0.000105  0.071371  0  3.879604  0
C  C67  1  0.08945850  0.53983569  0.94185297  1  0.066393  0  -0.079436  -0.123229  0  3.946379  0
C  C68  1  0.79894255  0.57513513  0.96741623  1  -0.012759  0  -0.146665  -0.197977  0  3.861423  0
C  C69  1  0.80022755  0.46776553  0.07358163  1  -0.029372  0  -0.147035  -0.195048  0  3.864409  0
C  C70  1  0.41379312  0.98781060  0.49369245  1  0.041077  0  -0.014515  -0.116425  0  3.953707  0
C  C71  1  0.60576611  0.99667676  0.48459070  1  -0.030308  0  -0.014721  -0.117551  0  3.953011  0
C  C72  1  0.46644889  0.91005123  0.57299257  1  0.495316  0  0.105762  0.268938  0  4.044059  0
C  C73  1  0.55621273  0.07118909  0.40235314  1  0.473188  0  0.106253  0.26966  0  4.039287  0
C  C74  1  0.55958902  0.91458918  0.56922590  1  0.071932  0  -0.085587  -0.20002  0  3.968512  0
C  C75  1  0.46219538  0.06756613  0.40684294  1  -0.014109  0  -0.084336  -0.200673  0  3.96108  0
C  C76  1  0.20387458  0.37366031  0.05130830  1  1.55628  0  0.231824  0.592382  0  4.125324  0
O  O77  1  0.91511684  0.74355386  0.57665387  1  -1.165453  0  -0.354476  -0.615035  0  2.309402  0
O  O78  1  0.26812173  0.07380303  0.24339628  1  -1.170311  0  -0.353202  -0.606986  0  2.311239  0
O  O79  1  0.07467760  0.26942647  0.41697312  1  -1.170862  0  -0.355746  -0.618035  0  2.306304  0
O  O80  1  0.73748514  0.92401675  0.76450130  1  -1.168109  0  -0.359441  -0.620604  0  2.317364  0
O  O81  1  0.07520379  0.74078164  0.76527587  1  -1.176076  0  -0.360545  -0.622244  0  2.282402  0
O  O82  1  0.73851468  0.08100764  0.41683458  1  -1.167156  0  -0.357624  -0.619201  0  2.304379  0
O  O83  1  0.92191929  0.26672878  0.23546779  1  -1.171477  0  -0.352126  -0.606901  0  2.27484  0
O  O84  1  0.26491198  0.91956806  0.57724122  1  -1.168988  0  -0.357507  -0.619249  0  2.307768  0
O  O85  1  0.26390851  0.74163328  0.41976813  1  -1.170165  0  -0.357009  -0.616183  0  2.316555  0
O  O86  1  0.91621374  0.07862135  0.76680782  1  -1.173519  0  -0.354464  -0.614559  0  2.304487  0
O  O87  1  0.74045320  0.27094575  0.57305208  1  -1.163783  0  -0.354308  -0.612717  0  2.306119  0
O  O88  1  0.07480350  0.91996605  0.24053713  1  -1.170758  0  -0.356222  -0.616118  0  2.312148  0
O  O89  1  0.06782323  0.92341420  0.77014788  1  -1.185063  0  -0.349938  -0.611981  0  2.268537  0
O  O90  1  0.74079150  0.27396795  0.41792141  1  -1.182808  0  -0.348751  -0.611849  0  2.26501  0
O  O91  1  0.92136504  0.07330288  0.23814077  1  -1.181097  0  -0.347826  -0.609544  0  2.271705  0
O  O92  1  0.26763561  0.74010584  0.57206338  1  -1.177085  0  -0.345869  -0.607304  0  2.263175  0
O  O93  1  0.91885044  0.74334436  0.76764320  1  -1.169765  0  -0.34461  -0.601504  0  2.264031  0
O  O94  1  0.26726249  0.07282695  0.42412260  1  -1.177175  0  -0.346651  -0.604317  0  2.273236  0
O  O95  1  0.07527687  0.26624601  0.23700410  1  -1.182359  0  -0.345288  -0.613414  0  2.320935  0
O  O96  1  0.73762288  0.92670906  0.56892402  1  -1.177075  0  -0.347688  -0.606848  0  2.272749  0
O  O97  1  0.73584314  0.07652683  0.76769757  1  -1.16974  0  -0.346036  -0.605476  0  2.254962  0
O  O98  1  0.06843503  0.74154441  0.42275632  1  -1.177883  0  -0.346812  -0.607517  0  2.268074  0
O  O99  1  0.26811727  0.92233021  0.23981312  1  -1.170636  0  -0.35007  -0.611825  0  2.262953  0
O  O100  1  0.92177846  0.27127271  0.57128110  1  -1.173717  0  -0.345742  -0.604216  0  2.268515  0
O  O101  1  0.79651368  0.07236690  0.56611133  1  -1.233844  0  -0.693221  -1.072509  0  2.357253  0
O  O102  1  0.06624774  0.06994400  0.56807913  1  -1.24738  0  -0.692902  -1.072203  0  2.357531  0
O  O103  1  0.06801767  0.06836937  0.29804368  1  -1.254058  0  -0.694195  -1.072542  0  2.359715  0
O  O104  1  0.06512696  0.80121375  0.56765570  1  -1.251321  0  -0.694818  -1.074101  0  2.365253  0
O  O105  1  0.14799037  0.95203045  0.45145394  1  -1.200506  0  -0.791537  -1.151876  0  2.133812  0
O  O106  1  0.94896775  0.95392804  0.45014670  1  -1.19963  0  -0.791108  -1.151128  0  2.126604  0
O  O107  1  0.95055953  0.15129257  0.44984580  1  -1.199971  0  -0.790297  -1.152674  0  2.126642  0
O  O108  1  0.94858872  0.95429547  0.64856824  1  -1.195109  0  -0.790988  -1.152389  0  2.131039  0
O  O109  1  0.22826878  0.39402410  0.11487221  1  -1.097516  0  -0.334068  -0.472459  0  2.235228  0
O  O110  1  0.27331496  0.30806515  0.00251197  1  -1.110803  0  -0.284881  -0.452202  0  2.039889  0
F  F111  1  0.16286314  0.42368746  0.33251244  1  -0.631661  0  -0.091554  -0.129854  0  1.366258  0
F  F112  1  0.81084391  0.60681870  0.64301698  1  -0.627275  0  -0.094391  -0.130269  0  1.35001  0
F  F113  1  0.46328696  0.10917219  0.13207293  1  -0.626014  0  -0.088545  -0.124536  0  1.361147  0
F  F114  1  0.55521807  0.87144061  0.89057313  1  -0.632628  0  -0.099533  -0.137618  0  1.350684  0
F  F115  1  0.80828009  0.14035343  0.94502000  1  -0.624047  0  -0.093285  -0.128278  0  1.350786  0
F  F116  1  0.16456747  0.83720271  0.08113915  1  -0.6262  0  -0.096755  -0.131397  0  1.347338  0
F  F117  1  0.41206023  0.57979100  0.34010115  1  -0.626515  0  -0.097137  -0.131313  0  1.347487  0
F  F118  1  0.61347573  0.45205169  0.62999363  1  -0.62636  0  -0.093251  -0.128561  0  1.349684  0
F  F119  1  0.42694915  0.82822604  0.65766365  1  -0.626376  0  -0.09753  -0.132503  0  1.347225  0
F  F120  1  0.59812605  0.15055790  0.31563399  1  -0.627829  0  -0.097071  -0.131762  0  1.34685  0
