# generated using pymatgen
data_CuH18PdC18(N3O)2
_symmetry_space_group_name_H-M   'P 1'
_cell_length_a   8.10795070
_cell_length_b   8.34095324
_cell_length_c   8.92547064
_cell_angle_alpha   116.90810938
_cell_angle_beta   107.32206589
_cell_angle_gamma   95.56086503
_symmetry_Int_Tables_number   1
_chemical_formula_structural   CuH18PdC18(N3O)2
_chemical_formula_sum   'Cu1 H18 Pd1 C18 N6 O2'
_cell_volume   494.45851678
_cell_formula_units_Z   1
loop_
 _symmetry_equiv_pos_site_id
 _symmetry_equiv_pos_as_xyz
  1  'x, y, z'
loop_
 _atom_site_type_symbol
 _atom_site_label
 _atom_site_symmetry_multiplicity
 _atom_site_fract_x
 _atom_site_fract_y
 _atom_site_fract_z
 _atom_site_occupancy
 _atom_site_hle17_ddec_charge
 _atom_site_hle17_ddec_spin_density
 _atom_site_hle17_ddec_sum_bond_order
 _atom_site_hle17_magmom
 _atom_site_hse06_10hf_ddec_charge
 _atom_site_hse06_10hf_ddec_spin_density
 _atom_site_hse06_10hf_ddec_sum_bond_order
 _atom_site_hse06_10hf_magmom
 _atom_site_hse06_ddec_charge
 _atom_site_hse06_ddec_spin_density
 _atom_site_hse06_ddec_sum_bond_order
 _atom_site_hse06_magmom
 _atom_site_pbe_cm5_charge
 _atom_site_pbe_ddec_charge
 _atom_site_pbe_ddec_spin_density
 _atom_site_pbe_ddec_sum_bond_order
 _atom_site_pbe_magmom
Cu  Cu0  1  0.99999771  0.49999787  0.99999871  1  0.879223  0.725783  1.951754  0.542  0.842131  0.788893  2.348373  0.641  0.917485  0.853377  2.292514  0.721  0.814609  0.796485  0.741738  2.387102  0.586
H  H1  1  0.29026949  0.83099953  0.09180415  1  0.369811  3.3e-05  0.936206  0.0  0.341783  -8e-06  1.012865  0.0  0.353213  -1e-05  0.996272  0.0  0.288526  0.333911  8e-06  1.024271  0.0
H  H2  1  0.70972757  0.16899861  0.90819762  1  0.369743  3.2e-05  0.936298  0.0  0.341753  -8e-06  1.012905  0.0  0.353183  -1e-05  0.996312  0.0  0.288509  0.333884  8e-06  1.024308  0.0
H  H3  1  0.00416581  0.14678943  0.96783716  1  0.083781  0.001473  0.962508  0.002  0.088994  0.001071  1.03105  0.002  0.089909  0.000685  1.029807  0.001  0.119417  0.088211  0.001393  1.032019  0.002
H  H4  1  0.99583381  0.85320870  0.03216194  1  0.083769  0.001473  0.962524  0.002  0.088983  0.001072  1.031055  0.002  0.089897  0.000685  1.029813  0.001  0.119416  0.088205  0.001394  1.032008  0.002
H  H5  1  0.10159873  0.86246460  0.81084118  1  0.110973  0.000695  0.96064  0.001  0.120451  0.000571  1.019327  0.001  0.122863  0.000392  1.019377  0.0  0.108248  0.118616  0.000725  1.01958  0.001
H  H6  1  0.89840845  0.13753771  0.18916169  1  0.111037  0.000695  0.960629  0.001  0.120545  0.000571  1.019272  0.001  0.122958  0.000392  1.019322  0.0  0.108288  0.118711  0.000725  1.019526  0.001
H  H7  1  0.25256304  0.85351454  0.59658449  1  0.095347  0.000438  0.950384  0.001  0.106029  6e-06  1.009818  0.0  0.106973  -9e-05  1.009746  0.0  0.105612  0.105403  0.000125  1.009862  0.0
H  H8  1  0.74744062  0.14648918  0.40341581  1  0.095363  0.000438  0.950376  0.001  0.106049  6e-06  1.009817  0.0  0.106992  -9e-05  1.009746  0.0  0.10563  0.105422  0.000125  1.00986  0.0
H  H9  1  0.29557404  0.12678025  0.55355289  1  0.115858  0.000903  0.95636  0.001  0.124105  0.000706  1.016892  0.001  0.125673  0.000475  1.018466  0.001  0.105734  0.122996  0.000907  1.015942  0.001
H  H10  1  0.70442632  0.87322068  0.44644758  1  0.115815  0.000905  0.956369  0.001  0.124084  0.000706  1.01688  0.001  0.125653  0.000475  1.018452  0.001  0.105724  0.122977  0.000907  1.01593  0.001
H  H11  1  0.06119620  0.46573430  0.65324336  1  0.104466  -0.000262  0.928381  0.0  0.123486  -4.2e-05  0.982082  0.0  0.124022  -0.000109  0.983146  0.0  0.102869  0.123173  2.3e-05  0.981337  0.0
H  H12  1  0.93880213  0.53426383  0.34675539  1  0.104445  -0.000264  0.928335  0.0  0.123479  -4.2e-05  0.98204  0.0  0.124016  -0.000109  0.983103  0.0  0.102868  0.123167  2.3e-05  0.981295  0.0
H  H13  1  0.24829914  0.40703997  0.59881353  1  0.075619  -0.000214  0.983006  0.0  0.080296  -0.0001  1.068753  0.0  0.082814  -8.2e-05  1.065466  0.0  0.077218  0.078516  -0.000105  1.071039  0.0
H  H14  1  0.75169992  0.59296096  0.40118661  1  0.075602  -0.000217  0.982985  0.0  0.080278  -0.0001  1.068762  0.0  0.082795  -8.2e-05  1.065476  0.0  0.077211  0.078496  -0.000105  1.071046  0.0
H  H15  1  0.43670956  0.60202585  0.94908603  1  0.036564  0.00012  0.923201  0.0  0.051814  7.2e-05  0.987129  0.0  0.052481  2.7e-05  0.986806  0.0  0.088926  0.051346  0.000142  0.987415  0.0
H  H16  1  0.56328877  0.39797228  0.05091384  1  0.03658  0.000117  0.923202  0.0  0.051835  7.2e-05  0.987116  0.0  0.052501  2.6e-05  0.986795  0.0  0.088933  0.051367  0.000142  0.987403  0.0
H  H17  1  0.36152764  0.72197484  0.83171855  1  0.03498  0.000263  0.941022  0.0  0.049331  9.6e-05  1.009449  0.0  0.049381  3.6e-05  1.0095  0.0  0.088293  0.04941  0.000195  1.009351  0.0
H  H18  1  0.63846886  0.27802609  0.16828426  1  0.034969  0.000259  0.940995  0.0  0.049311  9.6e-05  1.009424  0.0  0.049363  3.6e-05  1.009468  0.0  0.088269  0.049391  0.000195  1.009335  0.0
Pd  Pd19  1  0.50000120  0.50000186  0.50000166  1  0.156195  0.005664  3.583982  0.01  0.162288  0.00291  4.113744  0.005  0.16122  0.001113  4.078833  0.004  0.657553  0.164387  0.00528  4.138308  0.007
C  C20  1  0.41949764  0.22419954  0.34336629  1  0.027679  0.000384  3.553942  0.0  0.003528  9.1e-05  3.902152  0.0  0.011619  -0.000112  3.909291  0.0  -0.030324  -0.002348  0.000304  3.89754  0.0
C  C21  1  0.58050402  0.77580138  0.65663789  1  0.027702  0.000381  3.55394  0.0  0.003552  9.1e-05  3.902165  0.0  0.011642  -0.000113  3.909304  0.0  -0.0303  -0.002323  0.000304  3.897551  0.0
C  C22  1  0.30210816  0.52129205  0.32345985  1  0.091292  -0.020093  3.467619  -0.005  0.077434  -0.005127  3.800154  0.004  0.093508  -0.00793  3.804221  0.001  -0.007094  0.066047  -0.002703  3.798268  0.006
C  C23  1  0.69789422  0.47871167  0.67654123  1  0.091378  -0.020101  3.467695  -0.005  0.077524  -0.005127  3.800225  0.004  0.0936  -0.007931  3.804289  0.001  -0.007053  0.066137  -0.002702  3.798341  0.006
C  C24  1  0.06770070  0.13458557  0.87306570  1  0.134617  -0.014549  3.693038  -0.009  0.103636  -0.003405  3.953849  -0.002  0.112664  -0.005311  3.975161  -0.004  0.046545  0.097931  -0.001916  3.939345  -0.001
C  C25  1  0.93230022  0.86541256  0.12693486  1  0.134651  -0.014554  3.693137  -0.009  0.103714  -0.003404  3.953947  -0.002  0.11274  -0.00531  3.97526  -0.004  0.046584  0.098011  -0.001916  3.939441  -0.001
C  C26  1  0.12243716  0.97700703  0.78483844  1  -0.120792  0.012479  3.718673  0.014  -0.132845  0.004296  3.969102  0.005  -0.142064  0.003752  3.992392  0.005  -0.083585  -0.12679  0.004928  3.953414  0.006
C  C27  1  0.87757001  0.02299528  0.21516219  1  -0.120906  0.012489  3.718506  0.014  -0.132993  0.004297  3.96893  0.005  -0.142213  0.003752  3.992218  0.005  -0.083652  -0.126939  0.004929  3.953244  0.006
C  C28  1  0.20587209  0.97300389  0.66792765  1  0.017925  -0.016902  3.722008  -0.011  -0.002756  -0.00531  3.971943  -0.003  0.002485  -0.005824  3.991096  -0.003  -0.064599  -0.006105  -0.00498  3.958872  -0.003
C  C29  1  0.79413252  0.02699842  0.33207679  1  0.017929  -0.016912  3.721936  -0.011  -0.002768  -0.00531  3.971876  -0.003  0.002473  -0.005824  3.991028  -0.003  -0.064585  -0.006118  -0.00498  3.958803  -0.003
C  C30  1  0.23054471  0.12586599  0.64391835  1  -0.162645  0.013591  3.683381  0.015  -0.178548  0.005007  3.925545  0.006  -0.18797  0.00427  3.948978  0.005  -0.082276  -0.172352  0.005787  3.909791  0.007
C  C31  1  0.76945766  0.87413773  0.35608049  1  -0.162561  0.01359  3.683428  0.015  -0.178472  0.005006  3.925569  0.006  -0.187894  0.004269  3.949004  0.005  -0.082269  -0.172277  0.005786  3.909813  0.007
C  C32  1  0.16897302  0.27931320  0.73354781  1  0.267011  -0.010518  3.685079  -0.007  0.272843  -0.001291  3.932735  0.0  0.282596  -0.003313  3.955176  -0.002  0.124802  0.26645  0.000237  3.917494  0.001
C  C33  1  0.83102568  0.72068633  0.26645275  1  0.266829  -0.010524  3.685064  -0.007  0.2727  -0.001292  3.932741  0.0  0.282451  -0.003314  3.955182  -0.002  0.124728  0.266307  0.000237  3.9175  0.001
C  C34  1  0.19262560  0.44255546  0.70455406  1  -0.231783  0.001918  3.711156  0.003  -0.279039  0.001238  3.968368  0.002  -0.282946  0.000707  3.980196  0.001  -0.167554  -0.276201  0.001736  3.960044  0.002
C  C35  1  0.80737347  0.55744547  0.29544607  1  -0.231658  0.001924  3.711134  0.003  -0.27898  0.001238  3.968415  0.002  -0.282885  0.000707  3.98024  0.001  -0.167524  -0.276138  0.001735  3.960088  0.002
C  C36  1  0.31561129  0.62615949  0.87398240  1  0.171142  -0.000835  3.647805  -0.001  0.11623  -0.000349  3.923507  0.0  0.12385  -0.000388  3.928686  0.0  -0.077635  0.111099  -0.00027  3.919551  0.0
C  C37  1  0.68438742  0.37384004  0.12602041  1  0.1711  -0.000819  3.647722  -0.001  0.116222  -0.000349  3.923421  0.0  0.123842  -0.000385  3.928602  0.0  -0.077612  0.111079  -0.00027  3.919478  0.0
N  N38  1  0.37502873  0.06099353  0.25461539  1  -0.404522  0.000198  2.873124  0.0  -0.354717  0.000125  3.122232  0.0  -0.369087  5.2e-05  3.135268  0.0  -0.342212  -0.344983  0.00022  3.11344  0.0
N  N39  1  0.62496644  0.93900742  0.74537924  1  -0.404512  0.000201  2.873064  0.0  -0.354722  0.000126  3.122167  0.0  -0.369093  5.3e-05  3.135197  0.0  -0.342241  -0.344995  0.00022  3.113384  0.0
N  N40  1  0.18390522  0.53054661  0.21701381  1  -0.414096  0.061603  3.176445  0.078  -0.378757  0.042074  3.492913  0.056  -0.403495  0.036329  3.500172  0.05  -0.394363  -0.364271  0.044986  3.489599  0.057
N  N41  1  0.81609109  0.46944874  0.78298433  1  -0.414195  0.061608  3.176549  0.078  -0.378866  0.042075  3.49303  0.056  -0.403603  0.03633  3.500284  0.05  -0.394415  -0.364379  0.044987  3.48972  0.057
N  N42  1  0.08857000  0.28097929  0.84715843  1  -0.321248  0.104577  3.235073  0.135  -0.283555  0.066012  3.518607  0.092  -0.316977  0.051219  3.544104  0.077  -0.327003  -0.262225  0.075656  3.50192  0.1
N  N43  1  0.91143034  0.71902164  0.15283980  1  -0.321148  0.104582  3.235054  0.135  -0.283531  0.066011  3.51864  0.092  -0.316947  0.051218  3.54413  0.077  -0.327007  -0.262203  0.075656  3.501955  0.1
O  O44  1  0.21717559  0.70476572  0.98454185  1  -0.599707  -0.001026  2.18742  0.001  -0.55195  -0.001634  2.442734  0.0  -0.570865  -0.002019  2.425373  -0.001  -0.415619  -0.538266  -0.000907  2.454368  0.0
O  O45  1  0.78282369  0.29523100  0.01546215  1  -0.599622  -0.001027  2.187428  0.001  -0.551908  -0.001634  2.442734  0.0  -0.570824  -0.002021  2.42537  -0.001  -0.415588  -0.53822  -0.000908  2.454365  0.0
