# generated using pymatgen
data_CuH4C7N4
_symmetry_space_group_name_H-M   'P 1'
_cell_length_a   10.27273909
_cell_length_b   14.67936907
_cell_length_c   19.27287315
_cell_angle_alpha   89.99997891
_cell_angle_beta   90.00003499
_cell_angle_gamma   89.99994321
_symmetry_Int_Tables_number   1
_chemical_formula_structural   CuH4C7N4
_chemical_formula_sum   'Cu16 H64 C112 N64'
_cell_volume   2906.29778189
_cell_formula_units_Z   16
loop_
 _symmetry_equiv_pos_site_id
 _symmetry_equiv_pos_as_xyz
  1  'x, y, z'
loop_
 _atom_site_type_symbol
 _atom_site_label
 _atom_site_symmetry_multiplicity
 _atom_site_fract_x
 _atom_site_fract_y
 _atom_site_fract_z
 _atom_site_occupancy
 _atom_site_pbe_bader_charge
 _atom_site_pbe_bader_spin_density
 _atom_site_pbe_cm5_charge
 _atom_site_pbe_ddec_charge
 _atom_site_pbe_ddec_spin_density
 _atom_site_pbe_ddec_sum_bond_order
 _atom_site_pbe_magmom
Cu  Cu0  1  0.75562415  0.34433257  0.37982928  1  0.705685  0  0.55315  0.313159  0  2.337943  0
Cu  Cu1  1  0.25562409  0.15566802  0.12017100  1  0.705589  0  0.553117  0.313125  0  2.337924  0
Cu  Cu2  1  0.74437571  0.65566748  0.37982871  1  0.705723  0  0.553149  0.313158  0  2.337975  0
Cu  Cu3  1  0.24437538  0.84433250  0.12017142  1  0.705576  0  0.553105  0.313058  0  2.338009  0
Cu  Cu4  1  0.24437580  0.65566759  0.62017058  1  0.705576  0  0.553116  0.313088  0  2.337964  0
Cu  Cu5  1  0.74437489  0.84433350  0.87982938  1  0.705721  0  0.553141  0.313142  0  2.338012  0
Cu  Cu6  1  0.25562424  0.34433200  0.62017063  1  0.705566  0  0.553139  0.313144  0  2.337968  0
Cu  Cu7  1  0.75562457  0.15566698  0.87982792  1  0.705617  0  0.553118  0.313066  0  2.337941  0
Cu  Cu8  1  0.24999995  0.99999991  0.26693519  1  0.724976  0  0.557869  0.281772  0  2.460694  0
Cu  Cu9  1  0.75000033  0.50000006  0.23306598  1  0.724956  0  0.557893  0.281816  0  2.460695  0
Cu  Cu10  1  0.75000026  0.99999963  0.73306557  1  0.724962  0  0.557886  0.281802  0  2.460728  0
Cu  Cu11  1  0.25000059  0.50000010  0.76693544  1  0.724964  0  0.557895  0.281802  0  2.460709  0
Cu  Cu12  1  0.74999952  0.50000067  0.50727263  1  0.653964  0  0.530851  0.330144  0  2.137664  0
Cu  Cu13  1  0.25000037  0.99999974  0.99272630  1  0.653937  0  0.530848  0.330085  0  2.137711  0
Cu  Cu14  1  0.25000044  0.50000017  0.49272568  1  0.653915  0  0.530855  0.330129  0  2.13772  0
Cu  Cu15  1  0.74999887  0.99999912  0.00727342  1  0.653935  0  0.530853  0.330147  0  2.13772  0
H  H16  1  0.17331324  0.09749586  0.40354389  1  0.054244  0  0.112917  0.084258  0  0.995502  0
H  H17  1  0.27007512  0.21611739  0.48015105  1  0.106462  0  0.108339  0.122016  0  1.016897  0
H  H18  1  0.61117493  0.20907477  0.35095293  1  0.11289  0  0.095972  0.089811  0  1.12072  0
H  H19  1  0.49779722  0.09691333  0.27546548  1  0.118658  0  0.112475  0.087193  0  1.017802  0
H  H20  1  0.42105229  0.60352492  0.80991815  1  0.08638  0  0.092426  0.081104  0  1.116126  0
H  H21  1  0.52618780  0.72273775  0.88495730  1  0.120542  0  0.108654  0.084293  0  1.034063  0
H  H22  1  0.83035097  0.75321174  0.74562524  1  0.069341  0  0.107084  0.072766  0  1.038838  0
H  H23  1  0.74000607  0.63329179  0.66710244  1  0.116871  0  0.110629  0.128172  0  1.007608  0
H  H24  1  0.67331192  0.40250478  0.09645583  1  0.054152  0  0.112904  0.084222  0  0.995525  0
H  H25  1  0.77007388  0.28388250  0.01984871  1  0.106455  0  0.108347  0.122019  0  1.016879  0
H  H26  1  0.11117471  0.29092524  0.14904729  1  0.112977  0  0.095975  0.089825  0  1.12069  0
H  H27  1  0.99779701  0.40308641  0.22453435  1  0.118662  0  0.112482  0.08719  0  1.017805  0
H  H28  1  0.92105109  0.89647469  0.69008240  1  0.086299  0  0.092407  0.081045  0  1.116163  0
H  H29  1  0.02618853  0.77726145  0.61504312  1  0.120549  0  0.108656  0.084297  0  1.034065  0
H  H30  1  0.33035289  0.74678793  0.75437528  1  0.121277  0  0.107078  0.072755  0  1.038848  0
H  H31  1  0.24000693  0.86670795  0.83289805  1  0.116849  0  0.110608  0.128142  0  1.007637  0
H  H32  1  0.32668753  0.90250452  0.40354381  1  0.054237  0  0.112907  0.084254  0  0.995504  0
H  H33  1  0.22992574  0.78388227  0.48015148  1  0.106454  0  0.108342  0.122003  0  1.016891  0
H  H34  1  0.88882490  0.79092529  0.35095290  1  0.112886  0  0.095971  0.089817  0  1.120711  0
H  H35  1  0.00220341  0.90308643  0.27546529  1  0.11866  0  0.112473  0.087193  0  1.017802  0
H  H36  1  0.07894797  0.39647458  0.80991812  1  0.086167  0  0.09242  0.081085  0  1.116139  0
H  H37  1  0.97381069  0.27726137  0.88495691  1  0.120568  0  0.108664  0.084325  0  1.034052  0
H  H38  1  0.66964930  0.24678880  0.74562320  1  0.121286  0  0.107105  0.072817  0  1.038782  0
H  H39  1  0.75999412  0.36670948  0.66710144  1  0.116841  0  0.110598  0.128129  0  1.007633  0
H  H40  1  0.82668859  0.59749608  0.09645583  1  0.054234  0  0.112906  0.084242  0  0.995501  0
H  H41  1  0.72992654  0.71611771  0.01984864  1  0.106451  0  0.108336  0.122005  0  1.016886  0
H  H42  1  0.38882480  0.70907458  0.14904676  1  0.11289  0  0.095967  0.089803  0  1.120725  0
H  H43  1  0.50220364  0.59691371  0.22453476  1  0.118663  0  0.11246  0.087192  0  1.017773  0
H  H44  1  0.57894913  0.10352520  0.69008193  1  0.086264  0  0.092403  0.081038  0  1.116173  0
H  H45  1  0.47381248  0.22273814  0.61504275  1  0.120525  0  0.108635  0.084268  0  1.034085  0
H  H46  1  0.16964829  0.25321228  0.75437480  1  0.121285  0  0.107092  0.07278  0  1.038818  0
H  H47  1  0.25999336  0.13329222  0.83289815  1  0.116865  0  0.110622  0.128174  0  1.007607  0
H  H48  1  0.82668769  0.90250430  0.59645648  1  0.05422  0  0.11291  0.084238  0  0.995515  0
H  H49  1  0.72992580  0.78388277  0.51984881  1  0.106461  0  0.108348  0.122009  0  1.016882  0
H  H50  1  0.38882503  0.79092539  0.64904693  1  0.112964  0  0.095969  0.089812  0  1.12072  0
H  H51  1  0.50220274  0.90308683  0.72453490  1  0.118654  0  0.112471  0.087182  0  1.017796  0
H  H52  1  0.57894863  0.39647456  0.19008223  1  0.086163  0  0.092429  0.081089  0  1.116123  0
H  H53  1  0.47381118  0.27726172  0.11504360  1  0.120571  0  0.108672  0.084308  0  1.034066  0
H  H54  1  0.16964898  0.24678842  0.25437670  1  0.121279  0  0.107104  0.072795  0  1.038778  0
H  H55  1  0.25999388  0.36670905  0.33289846  1  0.116834  0  0.110591  0.128113  0  1.007658  0
H  H56  1  0.32668804  0.59749538  0.90354455  1  0.054247  0  0.112924  0.084249  0  0.995452  0
H  H57  1  0.22992510  0.71611765  0.98015167  1  0.106451  0  0.108329  0.122  0  1.016912  0
H  H58  1  0.88882525  0.70907560  0.85095257  1  0.112965  0  0.095973  0.089795  0  1.120714  0
H  H59  1  0.00220294  0.59691375  0.77546551  1  0.118662  0  0.112482  0.0872  0  1.017806  0
H  H60  1  0.07894886  0.10352478  0.30991798  1  0.086381  0  0.092414  0.081053  0  1.116155  0
H  H61  1  0.97381239  0.22273803  0.38495778  1  0.120532  0  0.108667  0.084304  0  1.034006  0
H  H62  1  0.66964901  0.25321223  0.24562458  1  0.121287  0  0.107086  0.072758  0  1.038855  0
H  H63  1  0.75999399  0.13329153  0.16710233  1  0.116857  0  0.110611  0.128152  0  1.007637  0
H  H64  1  0.67331242  0.09749564  0.59645605  1  0.054239  0  0.112911  0.08425  0  0.995501  0
H  H65  1  0.77007421  0.21611721  0.51984890  1  0.106463  0  0.108351  0.122019  0  1.016875  0
H  H66  1  0.11117408  0.20907487  0.64904748  1  0.112965  0  0.095975  0.089822  0  1.120722  0
H  H67  1  0.99779654  0.09691373  0.72453457  1  0.118657  0  0.112471  0.087188  0  1.017804  0
H  H68  1  0.92105101  0.60352557  0.19008174  1  0.086264  0  0.092416  0.081056  0  1.11616  0
H  H69  1  0.02618926  0.72273879  0.11504347  1  0.120534  0  0.108657  0.084311  0  1.034051  0
H  H70  1  0.33035162  0.75321135  0.25437666  1  0.121281  0  0.107106  0.072783  0  1.03882  0
H  H71  1  0.24000584  0.63329068  0.33289894  1  0.116833  0  0.110591  0.128117  0  1.007644  0
H  H72  1  0.17331233  0.40250408  0.90354351  1  0.054222  0  0.112914  0.084253  0  0.995497  0
H  H73  1  0.27007536  0.28388244  0.98015070  1  0.106474  0  0.108338  0.122005  0  1.016908  0
H  H74  1  0.61117515  0.29092557  0.85095310  1  0.11289  0  0.095966  0.089803  0  1.120744  0
H  H75  1  0.49779728  0.40308645  0.77546510  1  0.118651  0  0.112467  0.08717  0  1.017813  0
H  H76  1  0.42105180  0.89647564  0.30991845  1  0.086533  0  0.092412  0.081054  0  1.116144  0
H  H77  1  0.52618747  0.77726201  0.38495763  1  0.120539  0  0.108659  0.084301  0  1.034008  0
H  H78  1  0.83035069  0.74678788  0.24562454  1  0.121283  0  0.107096  0.072776  0  1.038834  0
H  H79  1  0.74000659  0.86670862  0.16710222  1  0.116857  0  0.110619  0.128156  0  1.007607  0
C  C80  1  0.26951832  0.12533899  0.39214913  1  0.458581  0  0.02991  0.067122  0  3.977299  0
C  C81  1  0.32389133  0.19046097  0.43553135  1  -0.006727  0  -0.082968  -0.152624  0  3.918777  0
C  C82  1  0.44865744  0.22491881  0.42049106  1  -0.072204  0  0.0107  0.075889  0  3.992889  0
C  C83  1  0.51276400  0.18744989  0.36306891  1  -0.036106  0  -0.093309  -0.173588  0  3.977375  0
C  C84  1  0.45026365  0.12427963  0.32149441  1  0.467504  0  0.032347  0.09171  0  3.941947  0
C  C85  1  0.50480505  0.29699000  0.46260932  1  0.954182  0  0.202084  0.256181  0  4.024086  0
C  C86  1  0.52329961  0.39393964  0.54340370  1  0.99175  0  0.206983  0.222944  0  4.096772  0
C  C87  1  0.49831990  0.44837386  0.60412686  1  1.0188  0  0.197474  0.207861  0  4.11558  0
C  C88  1  0.51591888  0.54222936  0.68583185  1  0.904846  0  0.192094  0.232542  0  4.075482  0
C  C89  1  0.57123809  0.60994205  0.73175650  1  0.000783  0  0.009595  0.073245  0  4.002856  0
C  C90  1  0.51198517  0.63569998  0.79435276  1  -0.065702  0  -0.095462  -0.178091  0  3.991668  0
C  C91  1  0.56932623  0.70142620  0.83584475  1  0.435832  0  0.02874  0.079259  0  3.94553  0
C  C92  1  0.73967120  0.71841940  0.75835919  1  0.520641  0  0.029485  0.076398  0  3.958781  0
C  C93  1  0.68951809  0.65255693  0.71455150  1  -0.072742  0  -0.081254  -0.146633  0  3.912703  0
C  C94  1  0.76951803  0.37466091  0.10785166  1  0.458629  0  0.029919  0.067183  0  3.97736  0
C  C95  1  0.82388914  0.30953889  0.06446946  1  -0.006714  0  -0.082959  -0.152617  0  3.918714  0
C  C96  1  0.94865628  0.27508028  0.07950928  1  -0.072183  0  0.010661  0.075826  0  3.992896  0
C  C97  1  0.01276276  0.31255018  0.13693180  1  -0.036151  0  -0.093322  -0.173612  0  3.977334  0
C  C98  1  0.95026149  0.37572082  0.17850592  1  0.467506  0  0.032375  0.091768  0  3.941926  0
C  C99  1  0.00480483  0.20301008  0.03739035  1  0.954198  0  0.202133  0.256258  0  4.024135  0
C  C100  1  0.02330000  0.10605950  0.95659633  1  0.991755  0  0.206994  0.222943  0  4.096737  0
C  C101  1  0.99831942  0.05162495  0.89587333  1  1.018804  0  0.197393  0.207762  0  4.115501  0
C  C102  1  0.01591862  0.95776984  0.81416856  1  0.90482  0  0.192107  0.232527  0  4.07548  0
C  C103  1  0.07123884  0.89005780  0.76824445  1  0.000834  0  0.009618  0.073323  0  4.002881  0
C  C104  1  0.01198588  0.86429923  0.70564817  1  -0.065642  0  -0.095477  -0.178078  0  3.99172  0
C  C105  1  0.06932699  0.79857365  0.66415516  1  0.435661  0  0.028741  0.079229  0  3.945542  0
C  C106  1  0.23967110  0.78158101  0.74164130  1  0.468693  0  0.029506  0.076418  0  3.958784  0
C  C107  1  0.18951698  0.84744352  0.78544949  1  -0.072747  0  -0.081256  -0.14665  0  3.912743  0
C  C108  1  0.23048146  0.87466140  0.39214850  1  0.458564  0  0.029895  0.067087  0  3.977353  0
C  C109  1  0.17611045  0.80953940  0.43553072  1  -0.006711  0  -0.082958  -0.152582  0  3.918738  0
C  C110  1  0.05134335  0.77508088  0.42049092  1  -0.072172  0  0.010708  0.075881  0  3.992895  0
C  C111  1  0.98723584  0.81255016  0.36306838  1  -0.036087  0  -0.0933  -0.173574  0  3.977368  0
C  C112  1  0.04973800  0.87572079  0.32149424  1  0.467511  0  0.032377  0.091738  0  3.941964  0
C  C113  1  0.99519490  0.70301000  0.46260935  1  0.954197  0  0.202106  0.25619  0  4.024054  0
C  C114  1  0.97670044  0.60606100  0.54340374  1  0.991758  0  0.206904  0.222745  0  4.096986  0
C  C115  1  0.00168013  0.55162642  0.60412677  1  1.018796  0  0.197482  0.207879  0  4.115614  0
C  C116  1  0.98408035  0.45777053  0.68583245  1  0.904822  0  0.192064  0.232475  0  4.075513  0
C  C117  1  0.92876217  0.39005850  0.73175607  1  0.000799  0  0.009583  0.07323  0  4.003  0
C  C118  1  0.98801419  0.36430055  0.79435183  1  -0.065546  0  -0.095474  -0.178077  0  3.991755  0
C  C119  1  0.93067318  0.29857430  0.83584383  1  0.435687  0  0.028699  0.079163  0  3.94551  0
C  C120  1  0.76032909  0.28158114  0.75835717  1  0.468687  0  0.029458  0.076328  0  3.958828  0
C  C121  1  0.81048410  0.34744363  0.71455001  1  -0.07275  0  -0.081225  -0.146585  0  3.912722  0
C  C122  1  0.73048152  0.62533927  0.10785110  1  0.458595  0  0.02993  0.067175  0  3.977294  0
C  C123  1  0.67610939  0.69046131  0.06446887  1  -0.006716  0  -0.082964  -0.152633  0  3.918766  0
C  C124  1  0.55134226  0.72491855  0.07950863  1  -0.072185  0  0.010682  0.075893  0  3.992877  0
C  C125  1  0.48723576  0.68744964  0.13693131  1  -0.036103  0  -0.093306  -0.173594  0  3.977356  0
C  C126  1  0.54973814  0.62427864  0.17850530  1  0.467538  0  0.032398  0.091761  0  3.94189  0
C  C127  1  0.49519358  0.79698980  0.03739035  1  0.95421  0  0.202137  0.256239  0  4.02403  0
C  C128  1  0.47669945  0.89394061  0.95659682  1  0.991753  0  0.206917  0.222747  0  4.096798  0
C  C129  1  0.50168103  0.94837416  0.89587364  1  1.018792  0  0.197445  0.20795  0  4.115563  0
C  C130  1  0.48408165  0.04222965  0.81416825  1  0.904831  0  0.192104  0.232548  0  4.075431  0
C  C131  1  0.42876235  0.10994172  0.76824358  1  0.000832  0  0.009634  0.073341  0  4.002925  0
C  C132  1  0.48801426  0.13570100  0.70564783  1  -0.065686  0  -0.095494  -0.178091  0  3.991739  0
C  C133  1  0.43067116  0.20142524  0.66415374  1  0.435877  0  0.028735  0.079218  0  3.945473  0
C  C134  1  0.26032811  0.21841920  0.74164138  1  0.468673  0  0.029464  0.076383  0  3.958729  0
C  C135  1  0.31048326  0.15255667  0.78544857  1  -0.072714  0  -0.081231  -0.146651  0  3.912694  0
C  C136  1  0.73048163  0.87466117  0.60785176  1  0.45858  0  0.029907  0.067147  0  3.977345  0
C  C137  1  0.67610959  0.80953919  0.56446903  1  -0.006703  0  -0.082945  -0.152582  0  3.918685  0
C  C138  1  0.55134251  0.77508066  0.57950932  1  -0.072193  0  0.010711  0.075896  0  3.992878  0
C  C139  1  0.48723595  0.81254959  0.63693147  1  -0.036169  0  -0.093318  -0.173612  0  3.977377  0
C  C140  1  0.54973825  0.87572053  0.67850596  1  0.467531  0  0.032381  0.09178  0  3.941867  0
C  C141  1  0.49519490  0.70301016  0.53739002  1  0.954177  0  0.20212  0.256199  0  4.024062  0
C  C142  1  0.47669937  0.60605983  0.45659564  1  0.991751  0  0.206922  0.222805  0  4.09689  0
C  C143  1  0.50168103  0.55162630  0.39587248  1  1.018862  0  0.197498  0.207851  0  4.115726  0
C  C144  1  0.48408107  0.45777147  0.31416750  1  0.904848  0  0.192118  0.232628  0  4.075355  0
C  C145  1  0.42876186  0.39005879  0.26824388  1  0.000821  0  0.009607  0.073238  0  4.00297  0
C  C146  1  0.48801478  0.36430018  0.20564814  1  -0.065549  0  -0.095497  -0.178129  0  3.991798  0
C  C147  1  0.43067372  0.29857463  0.16415614  1  0.435668  0  0.02873  0.079288  0  3.945535  0
C  C148  1  0.26032875  0.28158075  0.24164275  1  0.468701  0  0.029466  0.076385  0  3.958758  0
C  C149  1  0.31048381  0.34744391  0.28545044  1  -0.072747  0  -0.081227  -0.146586  0  3.912712  0
C  C150  1  0.23048193  0.62533925  0.89214924  1  0.458568  0  0.029941  0.067197  0  3.977274  0
C  C151  1  0.17610887  0.69046127  0.93553144  1  -0.006711  0  -0.082956  -0.152633  0  3.918769  0
C  C152  1  0.05134172  0.72491920  0.92049110  1  -0.072189  0  0.010684  0.07591  0  3.992856  0
C  C153  1  0.98723622  0.68744998  0.86306858  1  -0.036173  0  -0.09332  -0.173586  0  3.977346  0
C  C154  1  0.04973749  0.62427934  0.82149446  1  0.467514  0  0.032356  0.091712  0  3.941973  0
C  C155  1  0.99519318  0.79699008  0.96260951  1  0.954195  0  0.202101  0.256159  0  4.024088  0
C  C156  1  0.97669995  0.89393998  0.04340301  1  0.991871  0  0.206922  0.222767  0  4.096803  0
C  C157  1  0.00168054  0.94837384  0.10412601  1  1.018676  0  0.197426  0.207908  0  4.115561  0
C  C158  1  0.98408036  0.04222895  0.18583129  1  0.90484  0  0.192099  0.232555  0  4.075412  0
C  C159  1  0.92876208  0.10994236  0.23175593  1  0.00077  0  0.009613  0.07328  0  4.002897  0
C  C160  1  0.98801504  0.13570092  0.29435221  1  -0.065734  0  -0.095495  -0.17807  0  3.991694  0
C  C161  1  0.93067199  0.20142515  0.33584574  1  0.435891  0  0.028711  0.079162  0  3.945424  0
C  C162  1  0.76032983  0.21841982  0.25835856  1  0.4687  0  0.029468  0.076402  0  3.958779  0
C  C163  1  0.81048298  0.15255663  0.21455037  1  -0.07273  0  -0.081237  -0.146644  0  3.912712  0
C  C164  1  0.76951849  0.12533876  0.60785136  1  0.458589  0  0.029913  0.067148  0  3.977273  0
C  C165  1  0.82389048  0.19046076  0.56446914  1  -0.006708  0  -0.082948  -0.152597  0  3.918745  0
C  C166  1  0.94865758  0.22491860  0.57950946  1  -0.072167  0  0.010688  0.075881  0  3.992897  0
C  C167  1  0.01276411  0.18745000  0.63693199  1  -0.036195  0  -0.09331  -0.173604  0  3.9774  0
C  C168  1  0.95026195  0.12427937  0.67850613  1  0.467517  0  0.032368  0.09174  0  3.941982  0
C  C169  1  0.00480505  0.29699015  0.53739000  1  0.954195  0  0.202144  0.256251  0  4.024021  0
C  C170  1  0.02330146  0.39393984  0.45659612  1  0.991753  0  0.206911  0.2228  0  4.096805  0
C  C171  1  0.99831982  0.44837373  0.39587309  1  1.018805  0  0.197422  0.207773  0  4.115562  0
C  C172  1  0.01591863  0.54222894  0.31416793  1  0.904843  0  0.192087  0.232538  0  4.075482  0
C  C173  1  0.07123778  0.60994166  0.26824379  1  0.000824  0  0.009606  0.073255  0  4.002949  0
C  C174  1  0.01198576  0.63570029  0.20564803  1  -0.065663  0  -0.095486  -0.178073  0  3.991725  0
C  C175  1  0.06932677  0.70142654  0.16415603  1  0.435704  0  0.028748  0.079227  0  3.945562  0
C  C176  1  0.23967086  0.71841902  0.24164268  1  0.46871  0  0.029487  0.076435  0  3.95876  0
C  C177  1  0.18951585  0.65255652  0.28545037  1  -0.072743  0  -0.081217  -0.14659  0  3.912711  0
C  C178  1  0.26951843  0.37466089  0.89214876  1  0.458574  0  0.029918  0.067152  0  3.977288  0
C  C179  1  0.32389154  0.30953953  0.93553099  1  -0.006723  0  -0.082948  -0.15261  0  3.918775  0
C  C180  1  0.44865769  0.27508161  0.92049123  1  -0.072186  0  0.010677  0.07589  0  3.992915  0
C  C181  1  0.51276420  0.31255051  0.86306855  1  -0.036094  0  -0.093321  -0.173618  0  3.977422  0
C  C182  1  0.45026278  0.37572083  0.82149404  1  0.467509  0  0.03239  0.091791  0  3.94192  0
C  C183  1  0.50480735  0.20301036  0.96260951  1  0.955102  0  0.202089  0.256125  0  4.024128  0
C  C184  1  0.52330050  0.10606022  0.04340304  1  0.991875  0  0.206916  0.222748  0  4.096867  0
C  C185  1  0.49832087  0.05162600  0.10412622  1  1.01868  0  0.19745  0.207931  0  4.115532  0
C  C186  1  0.51591928  0.95777119  0.18583161  1  0.904857  0  0.192108  0.232536  0  4.075488  0
C  C187  1  0.57123761  0.89005775  0.23175628  1  0.000838  0  0.009631  0.073339  0  4.002864  0
C  C188  1  0.51198569  0.86429916  0.29435203  1  -0.065956  0  -0.095515  -0.178143  0  3.991746  0
C  C189  1  0.56932879  0.79857492  0.33584560  1  0.435902  0  0.028737  0.079255  0  3.945407  0
C  C190  1  0.73967087  0.78158028  0.25835796  1  0.468701  0  0.02945  0.076395  0  3.958808  0
C  C191  1  0.68951669  0.84744349  0.21455078  1  -0.072734  0  -0.081237  -0.146643  0  3.912688  0
N  N192  1  0.32824754  0.09344592  0.33395129  1  -1.214336  0  -0.360638  -0.235081  0  3.6379  0
N  N193  1  0.44563973  0.32621061  0.52146094  1  -1.212916  0  -0.336356  -0.418045  0  3.311803  0
N  N194  1  0.61574231  0.34462144  0.44854449  1  -0.701795  0  -0.279263  -0.20762  0  3.534779  0
N  N195  1  0.62650671  0.40719223  0.50106856  1  -0.730092  0  -0.303307  -0.182765  0  3.63232  0
N  N196  1  0.58137561  0.51013533  0.62999898  1  -1.164029  0  -0.335247  -0.398872  0  3.25903  0
N  N197  1  0.38550483  0.44212771  0.64040945  1  -0.708453  0  -0.278747  -0.21266  0  3.576795  0
N  N198  1  0.39629941  0.50297022  0.69345861  1  -0.721766  0  -0.267173  -0.223554  0  3.519081  0
N  N199  1  0.68211889  0.74366913  0.81879334  1  -1.226546  0  -0.371714  -0.222383  0  3.650313  0
N  N200  1  0.82824629  0.40655461  0.16604901  1  -1.214389  0  -0.360667  -0.23515  0  3.637979  0
N  N201  1  0.94564015  0.17378892  0.97853871  1  -1.212915  0  -0.336341  -0.41805  0  3.311836  0
N  N202  1  0.11574315  0.15537788  0.05145522  1  -0.701755  0  -0.279296  -0.207644  0  3.53472  0
N  N203  1  0.12650718  0.09280684  0.99893047  1  -0.730144  0  -0.303284  -0.182709  0  3.632259  0
N  N204  1  0.08137537  0.98986315  0.87000197  1  -1.16404  0  -0.335217  -0.398826  0  3.258988  0
N  N205  1  0.88550527  0.05787118  0.85959019  1  -0.708453  0  -0.278704  -0.212536  0  3.576718  0
N  N206  1  0.89629917  0.99703008  0.80654140  1  -0.721782  0  -0.267199  -0.223618  0  3.519098  0
N  N207  1  0.18211973  0.75633201  0.68120765  1  -1.226251  0  -0.371636  -0.222244  0  3.650194  0
N  N208  1  0.17175316  0.90655381  0.33395115  1  -1.214389  0  -0.360678  -0.23513  0  3.637979  0
N  N209  1  0.05436020  0.67378971  0.52146134  1  -1.212946  0  -0.336289  -0.417887  0  3.311867  0
N  N210  1  0.88425665  0.65537857  0.44854345  1  -0.70186  0  -0.279275  -0.207634  0  3.534724  0
N  N211  1  0.87349329  0.59280843  0.50106858  1  -0.730075  0  -0.303281  -0.182669  0  3.632267  0
N  N212  1  0.91862551  0.48986459  0.62999904  1  -1.164003  0  -0.33528  -0.398872  0  3.259137  0
N  N213  1  0.11449524  0.55787187  0.64040887  1  -0.708342  0  -0.27875  -0.212665  0  3.576821  0
N  N214  1  0.10370072  0.49703069  0.69345857  1  -0.721863  0  -0.267134  -0.223502  0  3.519009  0
N  N215  1  0.81788050  0.25633138  0.81879083  1  -1.226234  0  -0.371621  -0.222233  0  3.650182  0
N  N216  1  0.67175333  0.59344485  0.16604896  1  -1.214378  0  -0.360684  -0.23517  0  3.637969  0
N  N217  1  0.55435845  0.82621083  0.97853856  1  -1.212891  0  -0.336338  -0.418004  0  3.311808  0
N  N218  1  0.38425430  0.84462267  0.05145621  1  -0.701811  0  -0.27932  -0.207685  0  3.534696  0
N  N219  1  0.37349233  0.90719393  0.99893143  1  -0.73016  0  -0.303207  -0.182502  0  3.632057  0
N  N220  1  0.41862594  0.01013564  0.87000164  1  -1.163985  0  -0.335264  -0.398978  0  3.259128  0
N  N221  1  0.61449611  0.94212795  0.85959106  1  -0.708377  0  -0.278759  -0.212672  0  3.576806  0
N  N222  1  0.60370118  0.00296839  0.80654149  1  -0.721878  0  -0.267163  -0.223555  0  3.519008  0
N  N223  1  0.31788038  0.24366892  0.68120670  1  -1.22643  0  -0.371645  -0.222265  0  3.650196  0
N  N224  1  0.67175339  0.90655492  0.66604909  1  -1.214399  0  -0.360672  -0.235157  0  3.637987  0
N  N225  1  0.55435925  0.67378955  0.47853788  1  -1.212893  0  -0.336338  -0.417987  0  3.311842  0
N  N226  1  0.38425667  0.65537804  0.55145485  1  -0.701741  0  -0.279279  -0.207593  0  3.534676  0
N  N227  1  0.37349129  0.59280656  0.49892974  1  -0.730154  0  -0.303288  -0.182705  0  3.632235  0
N  N228  1  0.41862531  0.48986482  0.37000140  1  -1.16408  0  -0.335316  -0.398969  0  3.259133  0
N  N229  1  0.61449512  0.55787245  0.35959041  1  -0.708494  0  -0.27875  -0.212626  0  3.576814  0
N  N230  1  0.60370152  0.49703062  0.30654125  1  -0.721782  0  -0.26716  -0.223567  0  3.519029  0
N  N231  1  0.31788106  0.25633171  0.18120912  1  -1.226219  0  -0.371643  -0.222338  0  3.65026  0
N  N232  1  0.17175366  0.59344554  0.83395085  1  -1.214357  0  -0.360676  -0.235149  0  3.638029  0
N  N233  1  0.05435883  0.82621055  0.02146115  1  -1.212907  0  -0.33631  -0.417918  0  3.311829  0
N  N234  1  0.88425486  0.84462160  0.94854360  1  -0.70187  0  -0.279284  -0.207631  0  3.534842  0
N  N235  1  0.87349180  0.90719264  0.00106836  1  -0.73012  0  -0.303254  -0.18267  0  3.632261  0
N  N236  1  0.91862556  0.01013564  0.12999789  1  -1.164009  0  -0.335254  -0.398944  0  3.259159  0
N  N237  1  0.11449565  0.94212761  0.14040915  1  -0.708053  0  -0.278733  -0.212644  0  3.576781  0
N  N238  1  0.10370176  0.00296939  0.19345794  1  -0.722159  0  -0.267165  -0.223535  0  3.51895  0
N  N239  1  0.81788119  0.24366951  0.31879325  1  -1.226553  0  -0.371641  -0.222242  0  3.650193  0
N  N240  1  0.82824777  0.09344499  0.66604923  1  -1.214378  0  -0.360674  -0.235155  0  3.637954  0
N  N241  1  0.94564073  0.32621044  0.47853800  1  -1.212895  0  -0.33634  -0.418  0  3.311815  0
N  N242  1  0.11574330  0.34462295  0.55145589  1  -0.701763  0  -0.279306  -0.207657  0  3.534691  0
N  N243  1  0.12650861  0.40719377  0.49893076  1  -0.73016  0  -0.303253  -0.182646  0  3.632127  0
N  N244  1  0.08137542  0.51013557  0.37000134  1  -1.164025  0  -0.335236  -0.398834  0  3.259031  0
N  N245  1  0.88550374  0.44212760  0.35959047  1  -0.708471  0  -0.278741  -0.212626  0  3.576764  0
N  N246  1  0.89629923  0.50296946  0.30654129  1  -0.72178  0  -0.267158  -0.22356  0  3.519077  0
N  N247  1  0.18211848  0.74366946  0.18120851  1  -1.226249  0  -0.371651  -0.222302  0  3.650249  0
N  N248  1  0.32824663  0.40655462  0.83395090  1  -1.214375  0  -0.360674  -0.235157  0  3.637961  0
N  N249  1  0.44564247  0.17379001  0.02146078  1  -1.213797  0  -0.336276  -0.41786  0  3.311853  0
N  N250  1  0.61574468  0.15537817  0.94854417  1  -0.701856  0  -0.279256  -0.207525  0  3.534764  0
N  N251  1  0.62650859  0.09280691  0.00106843  1  -0.730137  0  -0.303278  -0.182742  0  3.632333  0
N  N252  1  0.58137596  0.98986452  0.12999822  1  -1.164056  0  -0.335279  -0.398922  0  3.259094  0
N  N253  1  0.38550579  0.05787153  0.14040932  1  -0.708312  0  -0.278733  -0.212673  0  3.576832  0
N  N254  1  0.39629974  0.99703109  0.19345837  1  -0.721875  0  -0.267185  -0.223567  0  3.51917  0
N  N255  1  0.68211957  0.75632988  0.31879264  1  -1.226575  0  -0.371658  -0.222344  0  3.650304  0
