# generated using pymatgen
data_Zn4H3C35Cl8O13F10
_symmetry_space_group_name_H-M   'P 1'
_cell_length_a   18.32739802
_cell_length_b   18.52958691
_cell_length_c   18.40211042
_cell_angle_alpha   120.04760540
_cell_angle_beta   119.48300423
_cell_angle_gamma   90.13076766
_symmetry_Int_Tables_number   1
_chemical_formula_structural   Zn4H3C35Cl8O13F10
_chemical_formula_sum   'Zn8 H6 C70 Cl16 O26 F20'
_cell_volume   4445.04846194
_cell_formula_units_Z   2
loop_
 _symmetry_equiv_pos_site_id
 _symmetry_equiv_pos_as_xyz
  1  'x, y, z'
loop_
 _atom_site_type_symbol
 _atom_site_label
 _atom_site_symmetry_multiplicity
 _atom_site_fract_x
 _atom_site_fract_y
 _atom_site_fract_z
 _atom_site_occupancy
 _atom_site_pbe_bader_charge
 _atom_site_pbe_bader_spin_density
 _atom_site_pbe_cm5_charge
 _atom_site_pbe_ddec_charge
 _atom_site_pbe_ddec_spin_density
 _atom_site_pbe_ddec_sum_bond_order
 _atom_site_pbe_magmom
Zn  Zn0  1  0.05043944  0.12980379  0.59172872  1  1.305834  0  0.676793  0.964377  0  2.363337  0
Zn  Zn1  1  0.87332944  0.96316433  0.41914089  1  1.30838  0  0.677588  0.964064  0  2.378734  0
Zn  Zn2  1  0.04521764  0.95703754  0.58874490  1  1.326178  0  0.682239  0.972369  0  2.357412  0
Zn  Zn3  1  0.04222967  0.95130369  0.40815402  1  1.324264  0  0.682587  0.981239  0  2.31165  0
Zn  Zn4  1  0.46279049  0.36795861  0.41537350  1  1.321302  0  0.680235  0.978735  0  2.339573  0
Zn  Zn5  1  0.46002273  0.53959189  0.41123549  1  1.328733  0  0.678565  0.973724  0  2.334451  0
Zn  Zn6  1  0.63096687  0.54894982  0.59480778  1  1.317965  0  0.677144  0.969705  0  2.367728  0
Zn  Zn7  1  0.45150697  0.53623356  0.58182385  1  1.318959  0  0.682806  0.977508  0  2.338097  0
H  H8  1  0.85521820  0.15781289  0.27089627  1  0.1285  0  0.118304  0.159984  0  0.974498  0
H  H9  1  0.17853165  0.77466441  0.30087950  1  0.111783  0  0.108212  0.089634  0  0.96507  0
H  H10  1  0.84595470  0.76477427  0.90014565  1  0.123123  0  0.112889  0.120308  0  0.949711  0
H  H11  1  0.56970655  0.59686257  0.25746607  1  0.150295  0  0.107253  0.119122  0  0.976513  0
H  H12  1  0.92295957  0.32325335  0.65509816  1  0.135649  0  0.123756  0.156754  0  0.963106  0
H  H13  1  0.63121569  0.03858636  0.33401170  1  0.135544  0  0.115022  0.129478  0  0.946115  0
C  C14  1  0.85785901  0.85768610  0.22580377  1  1.597405  0  0.233876  0.631638  0  4.155604  0
C  C15  1  0.07361429  0.33847424  0.52515761  1  0.493044  0  0.10694  0.228698  0  4.034393  0
C  C16  1  0.99312604  0.35286362  0.50661285  1  0.168093  0  -0.008056  -0.046238  0  4.077406  0
C  C17  1  0.91419015  0.28732555  0.41297041  1  0.10415  0  0.013753  0.132881  0  4.079334  0
C  C18  1  0.21987932  0.30336193  0.47483888  1  0.482831  0  0.110399  0.226089  0  4.006716  0
C  C19  1  0.30181964  0.29653289  0.49140020  1  0.086048  0  -0.010286  -0.152037  0  3.925759  0
C  C20  1  0.33294242  0.23473803  0.51170219  1  0.072034  0  -0.000664  0.006918  0  3.975024  0
C  C21  1  0.27914751  0.18404390  0.51465650  1  0.469654  0  0.106756  0.217179  0  4.01606  0
C  C22  1  0.19693128  0.19018565  0.49651604  1  0.044924  0  -0.006904  -0.139468  0  3.947207  0
C  C23  1  0.16598209  0.25161079  0.47658834  1  0.144145  0  -0.002944  -0.00059  0  4.007395  0
C  C24  1  0.42587872  0.13980129  0.47944791  1  0.468879  0  0.103995  0.21835  0  4.03178  0
C  C25  1  0.13052105  0.13408060  0.77764974  1  1.627875  0  0.232795  0.628398  0  4.1745  0
C  C26  1  0.50678250  0.12514452  0.50162617  1  0.175134  0  -0.00579  -0.028276  0  4.090242  0
C  C27  1  0.58594835  0.19758630  0.57955124  1  0.13952  0  0.00631  0.060411  0  4.065782  0
C  C28  1  0.58243888  0.28305176  0.63293462  1  0.217801  0  -0.00965  -0.037745  0  4.095252  0
C  C29  1  0.49995735  0.29336376  0.60949797  1  0.482039  0  0.09762  0.208543  0  4.044246  0
C  C30  1  0.41965545  0.22320294  0.53317073  1  0.194528  0  -0.023629  -0.12166  0  4.050675  0
C  C31  1  0.23614995  0.27705579  0.94906802  1  0.064749  0  -0.012902  -0.031645  0  3.959247  0
C  C32  1  0.17915709  0.19157629  0.89105543  1  0.016101  0  -0.006612  -0.116997  0  3.93234  0
C  C33  1  0.17531063  0.16494057  0.94853867  1  0.55901  0  0.119742  0.228549  0  3.985308  0
C  C34  1  0.22822484  0.21793085  0.05683550  1  0.129495  0  0.025692  0.030474  0  3.998784  0
C  C35  1  0.28927630  0.30211546  0.11318805  1  0.076298  0  0.000516  -0.060647  0  3.887634  0
C  C36  1  0.87334416  0.14702570  0.50795133  1  1.594348  0  0.229991  0.607517  0  4.171666  0
C  C37  1  0.28858226  0.32978484  0.05489274  1  0.002098  0  -0.011151  0.001164  0  3.94566  0
C  C38  1  0.33729653  0.40358034  0.06449016  1  0.274822  0  0.051028  0.114265  0  3.852929  0
C  C39  1  0.27485628  0.34127287  0.93958641  1  0.752336  0  0.129124  0.281348  0  3.895359  0
C  C40  1  0.21031668  0.75731476  0.42487282  1  -0.016488  0  -0.007415  0.012756  0  3.937132  0
C  C41  1  0.20296243  0.81047393  0.50631310  1  0.096604  0  -0.004843  -0.125726  0  3.934077  0
C  C42  1  0.26136259  0.81307009  0.59383799  1  0.571556  0  0.11724  0.178614  0  4.011964  0
C  C43  1  0.32054417  0.76408028  0.59766814  1  0.523175  0  0.116462  0.176221  0  4.010634  0
C  C44  1  0.32590369  0.70951994  0.51464055  1  0.099688  0  -0.004541  -0.112519  0  3.929545  0
C  C45  1  0.26919919  0.71006291  0.42918360  1  0.007249  0  -0.011745  -0.045538  0  3.939166  0
C  C46  1  0.24060389  0.67295698  0.32128396  1  0.715933  0  0.130085  0.290615  0  3.898675  0
C  C47  1  0.13901078  0.86075260  0.49976885  1  1.574597  0  0.236587  0.633911  0  4.158476  0
C  C48  1  0.17146908  0.72561585  0.31583984  1  0.571556  0  0.029612  0.077615  0  3.849039  0
C  C49  1  0.82884642  0.77133486  0.04991884  1  0.094368  0  -0.013506  -0.018596  0  3.945032  0
C  C50  1  0.79795613  0.79549847  0.11220367  1  0.04197  0  -0.006832  -0.120585  0  3.922445  0
C  C51  1  0.70576684  0.75690262  0.05764242  1  0.574654  0  0.115045  0.174525  0  4.00708  0
C  C52  1  0.64967836  0.70146570  0.94968567  1  0.561167  0  0.116884  0.18002  0  4.008123  0
C  C53  1  0.68166240  0.68129709  0.88867027  1  0.097382  0  -0.008206  -0.136743  0  3.934661  0
C  C54  1  0.77380938  0.71811814  0.94412312  1  -0.04059  0  -0.006815  0.043142  0  3.932068  0
C  C55  1  0.84746135  0.72634835  0.93043957  1  0.140935  0  -0.043445  -0.025899  0  3.819834  0
C  C56  1  0.91225675  0.78544143  0.05345214  1  0.27362  0  0.05873  0.18498  0  3.833082  0
C  C57  1  0.73826287  0.74343063  0.42389161  1  0.002074  0  -0.017554  -0.063375  0  3.959974  0
C  C58  1  0.86290071  0.87882256  0.51450066  1  1.62211  0  0.23377  0.630072  0  4.176872  0
C  C59  1  0.80417307  0.82234897  0.51398786  1  0.103573  0  -0.004236  -0.103253  0  3.956017  0
C  C60  1  0.81434847  0.83906587  0.60200624  1  0.544767  0  0.110157  0.166115  0  4.026147  0
C  C61  1  0.76205918  0.78015065  0.59880739  1  0.566478  0  0.115  0.178262  0  4.014467  0
C  C62  1  0.69728221  0.69983631  0.50749542  1  0.025208  0  -0.007635  -0.133734  0  3.944083  0
C  C63  1  0.68817239  0.68431918  0.42059703  1  0.031443  0  -0.006211  0.05133  0  3.944689  0
C  C64  1  0.64186252  0.61430757  0.30748217  1  0.100567  0  -0.043619  -0.054668  0  3.798305  0
C  C65  1  0.69694440  0.68414308  0.31036205  1  0.733647  0  0.132035  0.323249  0  3.876692  0
C  C66  1  0.72734169  0.17390935  0.43356397  1  0.019797  0  -0.012384  0.026139  0  3.964918  0
C  C67  1  0.81754284  0.20521649  0.51078066  1  0.043899  0  -0.003597  -0.022213  0  3.955629  0
C  C68  1  0.85285127  0.29440536  0.59244055  1  0.009064  0  -0.078853  -0.20925  0  3.931622  0
C  C69  1  0.14339213  0.13307540  0.50112848  1  1.622684  0  0.234851  0.635744  0  4.162325  0
C  C70  1  0.79921921  0.34798069  0.59549145  1  0.509662  0  0.117862  0.284094  0  4.016819  0
C  C71  1  0.70810558  0.31771110  0.51815691  1  0.032129  0  -0.012561  -0.135879  0  3.936273  0
C  C72  1  0.67571870  0.22855412  0.43761978  1  -0.003524  0  -0.016099  -0.083419  0  3.942582  0
C  C73  1  0.59368461  0.15508937  0.33462984  1  1.149623  0  0.20378  0.462621  0  3.920616  0
C  C74  1  0.65294922  0.09240658  0.33209560  1  0.131427  0  -0.048484  -0.093608  0  3.838644  0
C  C75  1  0.38080091  0.64985484  0.51307494  1  1.617999  0  0.234717  0.632453  0  4.159984  0
C  C76  1  0.64908285  0.37276306  0.51668455  1  1.580861  0  0.227661  0.622953  0  4.175911  0
C  C77  1  0.35471219  0.35871576  0.22683487  1  1.615184  0  0.231508  0.621657  0  4.160978  0
C  C78  1  0.62487496  0.62839071  0.77486821  1  1.576416  0  0.231082  0.624802  0  4.165952  0
C  C79  1  0.64170659  0.63673179  0.50309174  1  1.617802  0  0.23339  0.631926  0  4.16738  0
C  C80  1  0.91630828  0.20882791  0.34289015  1  0.125865  0  -0.110331  -0.2869  0  4.004242  0
C  C81  1  0.35497471  0.35412881  0.48702961  1  1.600144  0  0.229917  0.627438  0  4.176478  0
C  C82  1  0.99802837  0.19797704  0.36601498  1  0.420857  0  0.101173  0.280069  0  4.05471  0
C  C83  1  0.07903896  0.26194533  0.45604939  1  0.121245  0  -0.029732  -0.149992  0  4.058935  0
Cl  Cl84  1  0.81378875  0.30366968  0.38220698  1  -0.168985  0  0.012445  -0.044045  0  1.565562  0
Cl  Cl85  1  0.68602224  0.18188756  0.60965093  1  -0.156631  0  0.017128  -0.025667  0  1.618235  0
Cl  Cl86  1  0.67618889  0.37438010  0.72534408  1  -0.136641  0  0.013844  -0.020852  0  1.569408  0
Cl  Cl87  1  0.21283417  0.17575351  0.11427373  1  -0.128626  0  0.027258  -0.010382  0  1.51181  0
Cl  Cl88  1  0.31886588  0.50532211  0.11811876  1  -0.148175  0  -0.026183  -0.074127  0  1.487344  0
Cl  Cl89  1  0.45238187  0.42017429  0.12259648  1  -0.171904  0  -0.029656  -0.099941  0  1.594766  0
Cl  Cl90  1  0.32939302  0.30359032  0.87770076  1  -0.179908  0  -0.032052  -0.107221  0  1.380879  0
Cl  Cl91  1  0.32182250  0.70858037  0.30935863  1  -0.194718  0  -0.039857  -0.127509  0  1.347959  0
Cl  Cl92  1  0.86545918  0.62824237  0.86176273  1  -0.199228  0  -0.046335  -0.088488  0  1.458658  0
Cl  Cl93  1  0.98934881  0.74035906  0.10621882  1  -0.157172  0  -0.025499  -0.0908  0  1.509392  0
Cl  Cl94  1  0.96599469  0.89654351  0.10703776  1  -0.190566  0  -0.042971  -0.11059  0  1.358227  0
Cl  Cl95  1  0.66673476  0.51467127  0.27735232  1  -0.214487  0  -0.048671  -0.08983  0  1.450865  0
Cl  Cl96  1  0.76980208  0.65326213  0.27262703  1  -0.186921  0  -0.037655  -0.125763  0  1.358319  0
Cl  Cl97  1  0.66610120  0.04554363  0.22999744  1  -0.220839  0  -0.056986  -0.098309  0  1.362981  0
Cl  Cl98  1  0.99336723  0.44820665  0.59654651  1  -0.148298  0  0.011823  -0.023556  0  1.53442  0
Cl  Cl99  1  0.50701869  0.02003617  0.43365295  1  -0.141918  0  0.00835  -0.028435  0  1.538623  0
O  O100  1  0.00379650  0.99991044  0.50147720  1  -1.224809  0  -0.570802  -1.036323  0  2.517751  0
O  O101  1  0.95711445  0.18436739  0.56527298  1  -1.164063  0  -0.305719  -0.526391  0  2.328915  0
O  O102  1  0.11734944  0.88003081  0.43607365  1  -1.144471  0  -0.299873  -0.524592  0  2.30841  0
O  O103  1  0.82131168  0.88860510  0.27317877  1  -1.146954  0  -0.306678  -0.534173  0  2.378526  0
O  O104  1  0.12054582  0.05241406  0.73545129  1  -1.146646  0  -0.302334  -0.523874  0  2.329731  0
O  O105  1  0.50074593  0.49765592  0.49957433  1  -1.234164  0  -0.571586  -1.037797  0  2.516421  0
O  O106  1  0.39745527  0.62486305  0.57089369  1  -1.154174  0  -0.304871  -0.531048  0  2.335488  0
O  O107  1  0.56633758  0.32880421  0.45177411  1  -1.157586  0  -0.307228  -0.530386  0  2.348352  0
O  O108  1  0.37136007  0.44142859  0.26884459  1  -1.143525  0  -0.303148  -0.528715  0  2.364279  0
O  O109  1  0.66607355  0.62854571  0.73573042  1  -1.165195  0  -0.306854  -0.536792  0  2.367941  0
O  O110  1  0.56103994  0.59829211  0.42586506  1  -1.164674  0  -0.305423  -0.533835  0  2.310086  0
O  O111  1  0.94080090  0.87497600  0.26439914  1  -1.147716  0  -0.30426  -0.536568  0  2.374414  0
O  O112  1  0.36276884  0.43544392  0.53451417  1  -1.148844  0  -0.305073  -0.530384  0  2.333576  0
O  O113  1  0.67975996  0.62730562  0.57541195  1  -1.150215  0  -0.302859  -0.524005  0  2.330603  0
O  O114  1  0.38779012  0.31567828  0.43658637  1  -1.161694  0  -0.304684  -0.534178  0  2.338994  0
O  O115  1  0.38918063  0.31982929  0.26933654  1  -1.163457  0  -0.303978  -0.532017  0  2.362654  0
O  O116  1  0.54279285  0.58944011  0.72724514  1  -1.149608  0  -0.303766  -0.527277  0  2.333238  0
O  O117  1  0.40256200  0.62791678  0.45088108  1  -1.162299  0  -0.303803  -0.529796  0  2.339071  0
O  O118  1  0.68523375  0.45619818  0.57722399  1  -1.140333  0  -0.306254  -0.536881  0  2.378601  0
O  O119  1  0.10639235  0.17456911  0.73505693  1  -1.163524  0  -0.305458  -0.531476  0  2.342216  0
O  O120  1  0.83073977  0.06446673  0.44796736  1  -1.147914  0  -0.305157  -0.528701  0  2.352531  0
O  O121  1  0.11226382  0.87866686  0.55695120  1  -1.143871  0  -0.305926  -0.532744  0  2.339028  0
O  O122  1  0.82318383  0.89611283  0.44895019  1  -1.157714  0  -0.301851  -0.52299  0  2.323415  0
O  O123  1  0.11705778  0.05040068  0.43543668  1  -1.158012  0  -0.300476  -0.530176  0  2.323992  0
O  O124  1  0.94582826  0.90032570  0.57726600  1  -1.147863  0  -0.302412  -0.527049  0  2.321403  0
O  O125  1  0.12965529  0.17444825  0.57043813  1  -1.152081  0  -0.303667  -0.529006  0  2.335435  0
F  F126  1  0.49795101  0.37568165  0.66364167  1  -0.624045  0  -0.084529  -0.109017  0  1.396949  0
F  F127  1  0.11822187  0.08568182  0.89984724  1  -0.61385  0  -0.079411  -0.10446  0  1.394628  0
F  F128  1  0.21777755  0.37850204  0.89868929  1  -0.612456  0  -0.115145  -0.150277  0  1.341826  0
F  F129  1  0.26488326  0.86393287  0.67990810  1  -0.603148  0  -0.077166  -0.093725  0  1.380064  0
F  F130  1  0.37293676  0.77331861  0.68671328  1  -0.603749  0  -0.07786  -0.094217  0  1.37826  0
F  F131  1  0.20180977  0.58278515  0.25235767  1  -0.610546  0  -0.118759  -0.159607  0  1.306948  0
F  F132  1  0.08343034  0.67001758  0.24607080  1  -0.614926  0  -0.138734  -0.15749  0  1.297041  0
F  F133  1  0.66555366  0.77016517  0.10544375  1  -0.611009  0  -0.074694  -0.089526  0  1.408715  0
F  F134  1  0.56300842  0.67005613  0.90818787  1  -0.60059  0  -0.075327  -0.088681  0  1.385791  0
F  F135  1  0.99954884  0.12198350  0.29657467  1  -0.631843  0  -0.099195  -0.133496  0  1.336739  0
F  F136  1  0.87461101  0.91413659  0.69412544  1  -0.610818  0  -0.084307  -0.102106  0  1.359098  0
F  F137  1  0.77592859  0.80538441  0.68833699  1  -0.606391  0  -0.083722  -0.101954  0  1.368469  0
F  F138  1  0.64143177  0.71439305  0.25577483  1  -0.611513  0  -0.122026  -0.167797  0  1.273022  0
F  F139  1  0.83907640  0.43256248  0.67841923  1  -0.623124  0  -0.087424  -0.117146  0  1.389214  0
F  F140  1  0.52329373  0.12865380  0.33427772  1  -0.622555  0  -0.120528  -0.194219  0  1.303698  0
F  F141  1  0.14983512  0.40138502  0.61397834  1  -0.6177  0  -0.084511  -0.108009  0  1.365904  0
F  F142  1  0.56045020  0.16772457  0.25872613  1  -0.615584  0  -0.120069  -0.189504  0  1.297148  0
F  F143  1  0.18834473  0.36007185  0.45140154  1  -0.620293  0  -0.090523  -0.116835  0  1.359962  0
F  F144  1  0.31003194  0.12887255  0.54160109  1  -0.621109  0  -0.094193  -0.124487  0  1.362389  0
F  F145  1  0.35043677  0.07017661  0.40187145  1  -0.620577  0  -0.084964  -0.108304  0  1.384768  0
