# generated using pymatgen
data_ZnH8C8(N3O)2
_symmetry_space_group_name_H-M   'P 1'
_cell_length_a   9.35888499
_cell_length_b   9.91149081
_cell_length_c   12.67262772
_cell_angle_alpha   76.23885163
_cell_angle_beta   68.36501666
_cell_angle_gamma   86.10212665
_symmetry_Int_Tables_number   1
_chemical_formula_structural   ZnH8C8(N3O)2
_chemical_formula_sum   'Zn4 H32 C32 N24 O8'
_cell_volume   1061.08725643
_cell_formula_units_Z   4
loop_
 _symmetry_equiv_pos_site_id
 _symmetry_equiv_pos_as_xyz
  1  'x, y, z'
loop_
 _atom_site_type_symbol
 _atom_site_label
 _atom_site_symmetry_multiplicity
 _atom_site_fract_x
 _atom_site_fract_y
 _atom_site_fract_z
 _atom_site_occupancy
 _atom_site_hle17_bader_spin_density
 _atom_site_hle17_ddec_charge
 _atom_site_hle17_ddec_spin_density
 _atom_site_hle17_ddec_sum_bond_order
 _atom_site_hle17_magmom
 _atom_site_hse06_10hf_bader_spin_density
 _atom_site_hse06_10hf_ddec_charge
 _atom_site_hse06_10hf_ddec_spin_density
 _atom_site_hse06_10hf_ddec_sum_bond_order
 _atom_site_hse06_10hf_magmom
 _atom_site_hse06_bader_spin_density
 _atom_site_hse06_ddec_charge
 _atom_site_hse06_ddec_spin_density
 _atom_site_hse06_ddec_sum_bond_order
 _atom_site_hse06_magmom
 _atom_site_pbe_bader_spin_density
 _atom_site_pbe_cm5_charge
 _atom_site_pbe_ddec_charge
 _atom_site_pbe_ddec_spin_density
 _atom_site_pbe_ddec_sum_bond_order
 _atom_site_pbe_magmom
Zn  Zn0  1  0.46419326  0.91466642  0.90180626  1  0  0.945949  0  1.984847  0  0  0.753134  0  2.471028  0  0  0.794724  0  2.421033  0  0  0.719193  0.724276  0  2.504336  0
Zn  Zn1  1  0.53580524  0.08533735  0.09819726  1  0  0.945976  0  1.984885  0  0  0.753161  0  2.471045  0  0  0.794742  0  2.42106  0  0  0.71921  0.724308  0  2.504352  0
Zn  Zn2  1  0.88361857  0.56229988  0.12409670  1  0  0.97524  0  1.917906  0  0  0.77835  0  2.401936  0  0  0.82062  0  2.352086  0  0  0.72058  0.749289  0  2.435234  0
Zn  Zn3  1  0.11638357  0.43770360  0.87590043  1  0  0.975246  0  1.917965  0  0  0.778322  0  2.40201  0  0  0.820589  0  2.352158  0  0  0.720551  0.749261  0  2.435306  0
H  H4  1  0.92082547  0.27553856  0.78689944  1  0  0.348606  0  0.927013  0  0  0.329967  0  0.98842  0  0  0.338016  0  0.981558  0  0  0.302196  0.324252  0  0.993339  0
H  H5  1  0.07917917  0.72446465  0.21309157  1  0  0.348667  0  0.926921  0  0  0.330014  0  0.988361  0  0  0.338064  0  0.981491  0  0  0.302223  0.324298  0  0.993289  0
H  H6  1  0.75987223  0.16491225  0.85754578  1  0  0.361425  0  0.89752  0  0  0.339363  0  0.968184  0  0  0.347364  0  0.960664  0  0  0.30632  0.333641  0  0.973786  0
H  H7  1  0.24012973  0.83508487  0.14244957  1  0  0.361415  0  0.89754  0  0  0.339368  0  0.96816  0  0  0.347365  0  0.960648  0  0  0.306342  0.333647  0  0.97376  0
H  H8  1  0.77255465  0.00608972  0.30502779  1  0  0.090515  0  0.978171  0  0  0.103741  0  1.035021  0  0  0.106717  0  1.034359  0  0  0.101814  0.101425  0  1.036072  0
H  H9  1  0.22743723  0.99391495  0.69497091  1  0  0.090446  0  0.978281  0  0  0.103722  0  1.035072  0  0  0.106696  0  1.034412  0  0  0.101819  0.101419  0  1.036108  0
H  H10  1  0.57405531  0.62044330  0.92070383  1  0  0.326176  0  0.889364  0  0  0.313684  0  0.949479  0  0  0.319549  0  0.944957  0  0  0.309659  0.309529  0  0.952726  0
H  H11  1  0.42594218  0.37956143  0.07929738  1  0  0.326139  0  0.889334  0  0  0.313634  0  0.949477  0  0  0.319499  0  0.944955  0  0  0.309638  0.30948  0  0.952726  0
H  H12  1  0.73159676  0.54150954  0.94488069  1  0  0.321432  0  0.927337  0  0  0.302899  0  0.995333  0  0  0.30937  0  0.990502  0  0  0.30094  0.298318  0  0.998497  0
H  H13  1  0.26839846  0.45849410  0.05511896  1  0  0.32144  0  0.927299  0  0  0.302845  0  0.995377  0  0  0.309313  0  0.990553  0  0  0.300902  0.298266  0  0.99854  0
H  H14  1  0.61824179  0.93638306  0.51759720  1  0  0.09627  0  0.938921  0  0  0.110405  0  0.994068  0  0  0.113303  0  0.992067  0  0  0.107951  0.108561  0  0.994986  0
H  H15  1  0.38175574  0.06362271  0.48240378  1  0  0.096211  0  0.938952  0  0  0.110376  0  0.99407  0  0  0.113274  0  0.992069  0  0  0.107957  0.10853  0  0.994993  0
H  H16  1  0.00252386  0.16637547  0.23641238  1  0  0.0698  0  0.918146  0  0  0.081393  0  0.97384  0  0  0.084081  0  0.971715  0  0  0.106914  0.079411  0  0.975372  0
H  H17  1  0.99747338  0.83362406  0.76358998  1  0  0.0698  0  0.918129  0  0  0.08134  0  0.973878  0  0  0.084026  0  0.971753  0  0  0.106881  0.079357  0  0.975409  0
H  H18  1  0.65424664  0.34730649  0.29560751  1  0  0.349446  0  0.895829  0  0  0.331877  0  0.957771  0  0  0.339615  0  0.951116  0  0  0.30663  0.326269  0  0.962773  0
H  H19  1  0.34576024  0.65269786  0.70438586  1  0  0.349362  0  0.89595  0  0  0.3318  0  0.957884  0  0  0.339538  0  0.951233  0  0  0.306585  0.326191  0  0.962887  0
H  H20  1  0.54610026  0.21464507  0.28431869  1  0  0.348329  0  0.911379  0  0  0.328812  0  0.977746  0  0  0.3368  0  0.970529  0  0  0.30187  0.323103  0  0.98294  0
H  H21  1  0.45390667  0.78535921  0.71567310  1  0  0.34827  0  0.911395  0  0  0.328768  0  0.977749  0  0  0.336757  0  0.970531  0  0  0.301842  0.323059  0  0.982942  0
H  H22  1  0.92449921  0.18933039  0.57600022  1  0  0.079354  0  0.936211  0  0  0.086507  0  1.002487  0  0  0.089962  0  0.999368  0  0  0.111499  0.083765  0  1.00528  0
H  H23  1  0.07550024  0.81066592  0.42400067  1  0  0.079382  0  0.936172  0  0  0.08653  0  1.00245  0  0  0.089986  0  0.99933  0  0  0.111515  0.083787  0  1.005246  0
H  H24  1  0.57330330  0.39143018  0.81839303  1  0  0.059253  0  0.965903  0  0  0.067476  0  1.032646  0  0  0.069295  0  1.031427  0  0  0.101002  0.065909  0  1.03387  0
H  H25  1  0.42670332  0.60857662  0.18160937  1  0  0.059262  0  0.965891  0  0  0.067467  0  1.032648  0  0  0.069288  0  1.031428  0  0  0.101014  0.065902  0  1.033874  0
H  H26  1  0.59676557  0.36574800  0.49159528  1  0  0.066909  0  0.937113  0  0  0.076557  0  0.999746  0  0  0.079319  0  0.997834  0  0  0.10763  0.074507  0  1.001198  0
H  H27  1  0.40322986  0.63423809  0.50841115  1  0  0.066903  0  0.937179  0  0  0.076531  0  0.999823  0  0  0.079294  0  0.997906  0  0  0.107631  0.074483  0  1.001272  0
H  H28  1  0.77968330  0.57929360  0.73204387  1  0  0.095277  0  0.961082  0  0  0.103092  0  1.025648  0  0  0.107032  0  1.02373  0  0  0.099247  0.100166  0  1.027482  0
H  H29  1  0.22032346  0.42071414  0.26795592  1  0  0.09532  0  0.961099  0  0  0.103148  0  1.025636  0  0  0.107088  0  1.023716  0  0  0.099301  0.100221  0  1.027474  0
H  H30  1  0.88786118  0.66606967  0.51701117  1  0  0.102438  0  0.971336  0  0  0.107158  0  1.044051  0  0  0.110546  0  1.040814  0  0  0.106859  0.104778  0  1.046213  0
H  H31  1  0.11213160  0.33392761  0.48298648  1  0  0.102454  0  0.971436  0  0  0.107181  0  1.044158  0  0  0.110572  0  1.040916  0  0  0.106854  0.1048  0  1.04632  0
H  H32  1  0.82838970  0.99963179  0.13221243  1  0  0.321646  0  0.896666  0  0  0.311773  0  0.951107  0  0  0.317458  0  0.946799  0  0  0.30745  0.307922  0  0.953875  0
H  H33  1  0.17160521  0.00036892  0.86779265  1  0  0.321657  0  0.896599  0  0  0.311795  0  0.951029  0  0  0.317478  0  0.946725  0  0  0.307451  0.307949  0  0.953792  0
H  H34  1  0.86683895  0.83184450  0.19387478  1  0  0.339454  0  0.929111  0  0  0.320272  0  0.997297  0  0  0.328354  0  0.989849  0  0  0.296944  0.314439  0  1.002789  0
H  H35  1  0.13315711  0.16815509  0.80612866  1  0  0.3393  0  0.929323  0  0  0.320229  0  0.997365  0  0  0.328311  0  0.989917  0  0  0.296894  0.314396  0  1.002857  0
C  C36  1  0.66709221  0.71773139  0.00491211  1  0  0.60264  0  3.85585  0  0  0.552084  0  4.135833  0  0  0.577413  0  4.143227  0  0  0.327358  0.535035  0  4.130541  0
C  C37  1  0.33290148  0.28226723  0.99509292  1  0  0.602623  0  3.855865  0  0  0.551974  0  4.135978  0  0  0.577302  0  4.143374  0  0  0.327345  0.534931  0  4.130685  0
C  C38  1  0.76054887  0.05852437  0.56270794  1  0  -0.11771  0  3.760763  0  0  -0.091141  0  3.993514  0  0  -0.103778  0  4.018561  0  0  -0.016026  -0.082934  0  3.976108  0
C  C39  1  0.23945172  0.94147630  0.43729727  1  0  -0.117638  0  3.760711  0  0  -0.091102  0  3.993492  0  0  -0.10374  0  4.018545  0  0  -0.016002  -0.082898  0  3.976088  0
C  C40  1  0.80461158  0.04523723  0.36660392  1  0  -0.128365  0  3.761397  0  0  -0.138181  0  4.010382  0  0  -0.145637  0  4.03239  0  0  -0.091679  -0.13394  0  3.996415  0
C  C41  1  0.19538206  0.95476035  0.63340135  1  0  -0.128373  0  3.761662  0  0  -0.138244  0  4.010655  0  0  -0.145701  0  4.032662  0  0  -0.091728  -0.134013  0  3.996682  0
C  C42  1  0.80697037  0.28403482  0.95602323  1  0  0.625688  0  3.878279  0  0  0.569431  0  4.161254  0  0  0.596605  0  4.168385  0  0  0.325446  0.550862  0  4.156119  0
C  C43  1  0.19303624  0.71596215  0.04396938  1  0  0.625331  0  3.878465  0  0  0.569136  0  4.161343  0  0  0.596305  0  4.168478  0  0  0.325346  0.55057  0  4.156209  0
C  C44  1  0.67499576  0.02117312  0.69139363  1  0  0.656819  0  3.90724  0  0  0.603335  0  4.201897  0  0  0.63786  0  4.194239  0  0  0.20706  0.579913  0  4.206411  0
C  C45  1  0.32501257  0.97882228  0.30861230  1  0  0.656638  0  3.90725  0  0  0.603149  0  4.201915  0  0  0.637669  0  4.194267  0  0  0.20703  0.579729  0  4.206427  0
C  C46  1  0.71764004  0.00643571  0.48522473  1  0  -0.01649  0  3.712005  0  0  -0.045888  0  3.9563  0  0  -0.041466  0  3.974975  0  0  -0.066469  -0.04822  0  3.942817  0
C  C47  1  0.28235730  0.99356917  0.51478043  1  0  -0.016388  0  3.711804  0  0  -0.045802  0  3.956115  0  0  -0.04138  0  3.974795  0  0  -0.066491  -0.048133  0  3.942634  0
C  C48  1  0.71655060  0.30802820  0.13485565  1  0  0.615199  0  3.887014  0  0  0.5599  0  4.172795  0  0  0.58696  0  4.1796  0  0  0.321912  0.541953  0  4.1673  0
C  C49  1  0.28346066  0.69196974  0.86513558  1  0  0.615181  0  3.88726  0  0  0.559739  0  4.173203  0  0  0.586805  0  4.180007  0  0  0.321884  0.541791  0  4.167702  0
C  C50  1  0.75460819  0.84975856  0.08071570  1  0  0.614446  0  3.852025  0  0  0.563969  0  4.131627  0  0  0.590026  0  4.138067  0  0  0.327689  0.546209  0  4.12723  0
C  C51  1  0.24538782  0.15024110  0.91928932  1  0  0.614487  0  3.85213  0  0  0.564012  0  4.131736  0  0  0.59007  0  4.138173  0  0  0.327725  0.546259  0  4.127338  0
C  C52  1  0.93155146  0.13471542  0.32912029  1  0  0.133521  0  3.727155  0  0  0.105923  0  3.991879  0  0  0.113133  0  4.007575  0  0  0.043858  0.101444  0  3.981325  0
C  C53  1  0.06844262  0.86529151  0.67088290  1  0  0.13356  0  3.727291  0  0  0.106013  0  3.991992  0  0  0.113227  0  4.007686  0  0  0.043902  0.101534  0  3.981437  0
C  C54  1  0.88946392  0.14826254  0.51622945  1  0  0.117941  0  3.704623  0  0  0.082261  0  3.965043  0  0  0.088806  0  3.983193  0  0  0.051254  0.078256  0  3.952468  0
C  C55  1  0.11053898  0.85173589  0.48377249  1  0  0.11787  0  3.704657  0  0  0.082211  0  3.965066  0  0  0.088756  0  3.983216  0  0  0.051256  0.078207  0  3.952489  0
C  C56  1  0.75081370  0.52204180  0.48705289  1  0  -0.134623  0  3.764539  0  0  -0.106629  0  3.995689  0  0  -0.12046  0  4.02146  0  0  -0.020497  -0.097096  0  3.977241  0
C  C57  1  0.24917670  0.47795562  0.51294771  1  0  -0.134434  0  3.764542  0  0  -0.106427  0  3.995658  0  0  -0.120258  0  4.021433  0  0  -0.020381  -0.096892  0  3.977208  0
C  C58  1  0.81472533  0.57290529  0.35768500  1  0  0.672808  0  3.890173  0  0  0.617253  0  4.183418  0  0  0.652463  0  4.175445  0  0  0.217081  0.593566  0  4.187297  0
C  C59  1  0.18526599  0.42708798  0.64231702  1  0  0.672567  0  3.890132  0  0  0.616981  0  4.183428  0  0  0.65219  0  4.17546  0  0  0.216945  0.593291  0  4.187303  0
C  C60  1  0.62591500  0.42979399  0.72411133  1  0  0.136888  0  3.729184  0  0  0.111139  0  3.989541  0  0  0.118875  0  4.005731  0  0  0.040449  0.10649  0  3.978778  0
C  C61  1  0.37408691  0.57020647  0.27588886  1  0  0.136934  0  3.729321  0  0  0.111196  0  3.989677  0  0  0.11893  0  4.005868  0  0  0.040483  0.106545  0  3.97892  0
C  C62  1  0.63846338  0.41558233  0.54321077  1  0  0.115291  0  3.729974  0  0  0.079341  0  3.994739  0  0  0.086464  0  4.012335  0  0  0.04588  0.074854  0  3.982302  0
C  C63  1  0.36153484  0.58441300  0.45679143  1  0  0.115203  0  3.729963  0  0  0.079278  0  3.994716  0  0  0.086402  0  4.012312  0  0  0.045826  0.074791  0  3.982277  0
C  C64  1  0.73970782  0.53444178  0.67689488  1  0  -0.134064  0  3.758265  0  0  -0.141977  0  4.005681  0  0  -0.150384  0  4.027216  0  0  -0.093803  -0.137312  0  3.991548  0
C  C65  1  0.26029974  0.46555867  0.32310624  1  0  -0.134137  0  3.758344  0  0  -0.142055  0  4.005771  0  0  -0.150461  0  4.027305  0  0  -0.093894  -0.137391  0  3.991643  0
C  C66  1  0.80144245  0.58276156  0.55660360  1  0  -0.013604  0  3.70923  0  0  -0.042597  0  3.952235  0  0  -0.037853  0  3.971559  0  0  -0.066623  -0.045181  0  3.938327  0
C  C67  1  0.19855556  0.41722964  0.44340032  1  0  -0.013691  0  3.70922  0  0  -0.042717  0  3.952248  0  0  -0.037974  0  3.971571  0  0  -0.066683  -0.045299  0  3.93834  0
N  N68  1  0.89402533  0.38433313  0.96061659  1  0  -0.474445  0  3.149105  0  0  -0.400689  0  3.455178  0  0  -0.421754  0  3.461881  0  0  -0.314779  -0.386251  0  3.44984  0
N  N69  1  0.10597702  0.61566903  0.03937365  1  0  -0.474361  0  3.149283  0  0  -0.400661  0  3.455328  0  0  -0.421719  0  3.46203  0  0  -0.314836  -0.386226  0  3.449993  0
N  N70  1  0.64956718  0.92272252  0.04440408  1  0  -0.408195  0  3.180011  0  0  -0.341955  0  3.48687  0  0  -0.361168  0  3.49448  0  0  -0.295243  -0.32924  0  3.481655  0
N  N71  1  0.35043015  0.07728020  0.95559917  1  0  -0.40824  0  3.179768  0  0  -0.34205  0  3.486713  0  0  -0.361261  0  3.494311  0  0  -0.295286  -0.329336  0  3.481499  0
N  N72  1  0.59449233  0.83763757  0.99368063  1  0  -0.41029  0  3.202589  0  0  -0.34319  0  3.511398  0  0  -0.362202  0  3.519138  0  0  -0.295936  -0.330565  0  3.505958  0
N  N73  1  0.40550498  0.16236624  0.00632397  1  0  -0.410184  0  3.2023  0  0  -0.343094  0  3.511208  0  0  -0.362107  0  3.51895  0  0  -0.295931  -0.330471  0  3.505767  0
N  N74  1  0.83770277  0.39532847  0.07861273  1  0  -0.452863  0  3.163289  0  0  -0.385487  0  3.474509  0  0  -0.406141  0  3.482452  0  0  -0.316761  -0.371436  0  3.468283  0
N  N75  1  0.16229731  0.60467480  0.92137865  1  0  -0.452905  0  3.163176  0  0  -0.385422  0  3.474369  0  0  -0.406078  0  3.482308  0  0  -0.316758  -0.371367  0  3.468135  0
N  N76  1  0.69491229  0.23448452  0.06273677  1  0  -0.652  0  3.101029  0  0  -0.561243  0  3.391397  0  0  -0.586844  0  3.390925  0  0  -0.38922  -0.543553  0  3.39076  0
N  N77  1  0.30509123  0.76551868  0.93725374  1  0  -0.651781  0  3.100915  0  0  -0.560973  0  3.391267  0  0  -0.586575  0  3.390798  0  0  -0.389121  -0.543284  0  3.390628  0
N  N78  1  0.82486826  0.24196186  0.85959499  1  0  -0.713793  0  3.114802  0  0  -0.676574  0  3.358006  0  0  -0.697549  0  3.352494  0  0  -0.580223  -0.662161  0  3.36235  0
N  N79  1  0.17512949  0.75804148  0.14039776  1  0  -0.713727  0  3.114683  0  0  -0.676538  0  3.35789  0  0  -0.697526  0  3.352421  0  0  -0.580236  -0.66212  0  3.362215  0
N  N80  1  0.76778752  0.71960033  0.05974557  1  0  -0.615028  0  3.082677  0  0  -0.528651  0  3.370796  0  0  -0.554102  0  3.371321  0  0  -0.37414  -0.51128  0  3.369824  0
N  N81  1  0.23220963  0.28039930  0.94025916  1  0  -0.615023  0  3.082838  0  0  -0.528539  0  3.370907  0  0  -0.553991  0  3.371431  0  0  -0.374067  -0.511189  0  3.369954  0
N  N82  1  0.64069565  0.60493284  0.96992537  1  0  -0.701068  0  3.065906  0  0  -0.670001  0  3.305728  0  0  -0.687696  0  3.300822  0  0  -0.588513  -0.657523  0  3.308725  0
N  N83  1  0.35929931  0.39506780  0.03007813  1  0  -0.701044  0  3.065771  0  0  -0.669886  0  3.305692  0  0  -0.687581  0  3.300793  0  0  -0.58847  -0.657409  0  3.308685  0
N  N84  1  0.62118686  0.29768319  0.24619967  1  0  -0.718731  0  3.081984  0  0  -0.683071  0  3.319537  0  0  -0.703767  0  3.31437  0  0  -0.585041  -0.668758  0  3.323321  0
N  N85  1  0.37881872  0.70231806  0.75379468  1  0  -0.718564  0  3.082249  0  0  -0.682876  0  3.319843  0  0  -0.703574  0  3.314676  0  0  -0.584915  -0.668563  0  3.323623  0
N  N86  1  0.97417105  0.18654537  0.40221886  1  0  -0.322463  0  3.064285  0  0  -0.286932  0  3.340119  0  0  -0.298699  0  3.355505  0  0  -0.324867  -0.279004  0  3.329199  0
N  N87  1  0.02583070  0.81345307  0.59778337  1  0  -0.32246  0  3.064275  0  0  -0.286937  0  3.34008  0  0  -0.298702  0  3.355461  0  0  -0.32486  -0.279007  0  3.329157  0
N  N88  1  0.57447817  0.37082597  0.65930954  1  0  -0.309761  0  3.034876  0  0  -0.279171  0  3.310656  0  0  -0.290101  0  3.324547  0  0  -0.331352  -0.272217  0  3.301143  0
N  N89  1  0.42552491  0.62917555  0.34069092  1  0  -0.309757  0  3.03472  0  0  -0.279165  0  3.310479  0  0  -0.290095  0  3.32437  0  0  -0.331352  -0.272212  0  3.300971  0
N  N90  1  0.84475930  0.89911466  0.12650826  1  0  -0.705588  0  3.061173  0  0  -0.677227  0  3.296143  0  0  -0.69519  0  3.289464  0  0  -0.591342  -0.664376  0  3.300756  0
N  N91  1  0.15523560  0.10088605  0.87349682  1  0  -0.705488  0  3.061228  0  0  -0.677262  0  3.296101  0  0  -0.695221  0  3.289419  0  0  -0.591346  -0.664414  0  3.3007  0
O  O92  1  0.55194099  0.94223472  0.72829399  1  0  -0.667586  0  2.04143  0  0  -0.587089  0  2.304306  0  0  -0.615782  0  2.289359  0  0  -0.337786  -0.567315  0  2.313968  0
O  O93  1  0.44805881  0.05776994  0.27170585  1  0  -0.667541  0  2.041509  0  0  -0.586986  0  2.30434  0  0  -0.615667  0  2.289393  0  0  -0.33774  -0.567214  0  2.314004  0
O  O94  1  0.72088596  0.06392071  0.75877333  1  0  -0.611477  0  1.954248  0  0  -0.561705  0  2.186819  0  0  -0.585556  0  2.17843  0  0  -0.310945  -0.544961  0  2.192014  0
O  O95  1  0.27912570  0.93606821  0.24122838  1  0  -0.611423  0  1.954144  0  0  -0.561634  0  2.186637  0  0  -0.58548  0  2.178251  0  0  -0.310975  -0.544892  0  2.191835  0
O  O96  1  0.79296558  0.49472234  0.29621970  1  0  -0.644894  0  2.078291  0  0  -0.565752  0  2.35228  0  0  -0.594402  0  2.337372  0  0  -0.320117  -0.545792  0  2.361454  0
O  O97  1  0.20703933  0.50526654  0.70377978  1  0  -0.644754  0  2.078301  0  0  -0.565628  0  2.352302  0  0  -0.594277  0  2.337402  0  0  -0.320059  -0.545677  0  2.361497  0
O  O98  1  0.88663011  0.68814147  0.31416546  1  0  -0.635776  0  1.982239  0  0  -0.576005  0  2.201717  0  0  -0.600254  0  2.192112  0  0  -0.311318  -0.559085  0  2.207784  0
O  O99  1  0.11337020  0.31184532  0.68583326  1  0  -0.635671  0  1.982206  0  0  -0.575864  0  2.201656  0  0  -0.600114  0  2.192057  0  0  -0.311227  -0.558942  0  2.207719  0
