# generated using pymatgen
data_ZnH8C14I3N5O4
_symmetry_space_group_name_H-M   'P 1'
_cell_length_a   8.26929669
_cell_length_b   14.22494370
_cell_length_c   16.40528406
_cell_angle_alpha   90.00006970
_cell_angle_beta   89.99985609
_cell_angle_gamma   90.00049223
_symmetry_Int_Tables_number   1
_chemical_formula_structural   ZnH8C14I3N5O4
_chemical_formula_sum   'Zn4 H32 C56 I12 N20 O16'
_cell_volume   1929.75815520
_cell_formula_units_Z   4
loop_
 _symmetry_equiv_pos_site_id
 _symmetry_equiv_pos_as_xyz
  1  'x, y, z'
loop_
 _atom_site_type_symbol
 _atom_site_label
 _atom_site_symmetry_multiplicity
 _atom_site_fract_x
 _atom_site_fract_y
 _atom_site_fract_z
 _atom_site_occupancy
 _atom_site_hle17_bader_spin_density
 _atom_site_hle17_ddec_charge
 _atom_site_hle17_ddec_spin_density
 _atom_site_hle17_ddec_sum_bond_order
 _atom_site_hle17_magmom
 _atom_site_hse06_10hf_bader_spin_density
 _atom_site_hse06_10hf_ddec_charge
 _atom_site_hse06_10hf_ddec_spin_density
 _atom_site_hse06_10hf_ddec_sum_bond_order
 _atom_site_hse06_10hf_magmom
 _atom_site_hse06_bader_spin_density
 _atom_site_hse06_ddec_charge
 _atom_site_hse06_ddec_spin_density
 _atom_site_hse06_ddec_sum_bond_order
 _atom_site_hse06_magmom
 _atom_site_pbe_bader_spin_density
 _atom_site_pbe_cm5_charge
 _atom_site_pbe_ddec_charge
 _atom_site_pbe_ddec_spin_density
 _atom_site_pbe_ddec_sum_bond_order
 _atom_site_pbe_magmom
Zn  Zn0  1  0.64193819  0.79712853  0.09607050  1  0  1.064268  0  1.749419  0  0  0.874331  0  2.216966  0  0  0.92544  0  2.157948  0  0  0.688474  0.838513  0  2.257573  0
Zn  Zn1  1  0.35807201  0.29713160  0.90393122  1  0  1.064375  0  1.749263  0  0  0.874431  0  2.216814  0  0  0.925538  0  2.1578  0  0  0.688533  0.838616  0  2.257413  0
Zn  Zn2  1  0.85807305  0.79713121  0.59607438  1  0  1.064324  0  1.749311  0  0  0.874375  0  2.216857  0  0  0.925482  0  2.157846  0  0  0.688511  0.838564  0  2.257461  0
Zn  Zn3  1  0.14191538  0.29712470  0.40392247  1  0  1.064302  0  1.74932  0  0  0.87436  0  2.216893  0  0  0.92546  0  2.157889  0  0  0.688493  0.838547  0  2.25749  0
H  H4  1  0.86283583  0.34174767  0.91917562  1  0  0.301159  0  0.919275  0  0  0.293044  0  0.97342  0  0  0.300116  0  0.967165  0  0  0.284317  0.288026  0  0.977833  0
H  H5  1  0.13716668  0.84175218  0.08082920  1  0  0.301109  0  0.91925  0  0  0.293008  0  0.973393  0  0  0.300084  0  0.967131  0  0  0.284289  0.287989  0  0.977808  0
H  H6  1  0.63716932  0.34175349  0.41917843  1  0  0.301135  0  0.919281  0  0  0.293004  0  0.973453  0  0  0.300077  0  0.967193  0  0  0.284289  0.287984  0  0.977876  0
H  H7  1  0.36282473  0.84175972  0.58081664  1  0  0.301194  0  0.919176  0  0  0.293041  0  0.973377  0  0  0.300117  0  0.967113  0  0  0.284302  0.288021  0  0.977795  0
H  H8  1  0.00380445  0.27037820  0.96440646  1  0  0.315177  0  0.926393  0  0  0.299922  0  0.993417  0  0  0.307476  0  0.986327  0  0  0.283064  0.294506  0  0.99854  0
H  H9  1  0.99619658  0.77037592  0.03560109  1  0  0.315153  0  0.926493  0  0  0.299937  0  0.993457  0  0  0.307493  0  0.986362  0  0  0.283051  0.294519  0  0.998579  0
H  H10  1  0.49618812  0.27038102  0.46440372  1  0  0.315123  0  0.92639  0  0  0.299914  0  0.993353  0  0  0.307468  0  0.98626  0  0  0.283022  0.294498  0  0.998469  0
H  H11  1  0.50379718  0.77038505  0.53559042  1  0  0.315287  0  0.926065  0  0  0.29994  0  0.993206  0  0  0.307488  0  0.986129  0  0  0.283065  0.294526  0  0.998323  0
H  H12  1  0.54363378  0.89341997  0.81257851  1  0  0.336262  0  0.855612  0  0  0.324195  0  0.903259  0  0  0.332317  0  0.896421  0  0  0.331497  0.318377  0  0.908295  0
H  H13  1  0.45633374  0.39341456  0.18743175  1  0  0.336189  0  0.855661  0  0  0.324088  0  0.903285  0  0  0.332206  0  0.896455  0  0  0.331493  0.318281  0  0.908313  0
H  H14  1  0.95635529  0.89339875  0.31257076  1  0  0.336097  0  0.855754  0  0  0.324029  0  0.903377  0  0  0.332151  0  0.896544  0  0  0.331513  0.31822  0  0.908407  0
H  H15  1  0.04366181  0.39340274  0.68742243  1  0  0.33607  0  0.855839  0  0  0.324011  0  0.903453  0  0  0.332132  0  0.896622  0  0  0.33144  0.318199  0  0.908491  0
H  H16  1  0.68353826  0.04565607  0.88739050  1  0  0.336689  0  0.82933  0  0  0.323723  0  0.877656  0  0  0.331423  0  0.87122  0  0  0.341677  0.318223  0  0.882386  0
H  H17  1  0.31643939  0.54564952  0.11261686  1  0  0.33669  0  0.829443  0  0  0.323697  0  0.877775  0  0  0.331396  0  0.871344  0  0  0.341701  0.3182  0  0.882504  0
H  H18  1  0.81646089  0.04563895  0.38737560  1  0  0.336601  0  0.829277  0  0  0.323633  0  0.877602  0  0  0.33133  0  0.871174  0  0  0.341663  0.318133  0  0.882326  0
H  H19  1  0.18355788  0.54564344  0.61260799  1  0  0.336491  0  0.829254  0  0  0.323563  0  0.877577  0  0  0.331264  0  0.871139  0  0  0.341576  0.318062  0  0.882312  0
H  H20  1  0.35266257  0.67900930  0.96265743  1  0  0.095041  0  0.992056  0  0  0.101687  0  1.06017  0  0  0.103878  0  1.059821  0  0  0.108877  0.1001  0  1.060546  0
H  H21  1  0.64734037  0.17901931  0.03735250  1  0  0.095102  0  0.992177  0  0  0.101815  0  1.060216  0  0  0.104009  0  1.059867  0  0  0.108902  0.100227  0  1.060587  0
H  H22  1  0.14734725  0.67900936  0.46266210  1  0  0.095121  0  0.991966  0  0  0.101724  0  1.06012  0  0  0.103918  0  1.05977  0  0  0.108876  0.10014  0  1.060492  0
H  H23  1  0.85265569  0.17900379  0.53734539  1  0  0.095118  0  0.991929  0  0  0.101754  0  1.06004  0  0  0.103946  0  1.059697  0  0  0.1089  0.100165  0  1.06041  0
H  H24  1  0.32433116  0.76310324  0.81061316  1  0  0.116348  0  0.943665  0  0  0.127165  0  0.998851  0  0  0.130385  0  0.996704  0  0  0.120797  0.124841  0  1.000454  0
H  H25  1  0.67565847  0.26311374  0.18939693  1  0  0.116259  0  0.943749  0  0  0.127129  0  0.998888  0  0  0.130347  0  0.996744  0  0  0.120783  0.124812  0  1.000489  0
H  H26  1  0.17566998  0.76309024  0.31061304  1  0  0.116341  0  0.943721  0  0  0.127155  0  0.998915  0  0  0.130374  0  0.996769  0  0  0.120761  0.124832  0  1.000514  0
H  H27  1  0.82434987  0.26309229  0.68939155  1  0  0.116262  0  0.943638  0  0  0.127133  0  0.998786  0  0  0.130353  0  0.99664  0  0  0.120759  0.124807  0  1.00039  0
H  H28  1  0.88281690  0.12437650  0.98592442  1  0  0.10887  0  0.979006  0  0  0.11267  0  1.049714  0  0  0.116172  0  1.047162  0  0  0.115813  0.110114  0  1.051586  0
H  H29  1  0.11719059  0.62437436  0.01407462  1  0  0.108846  0  0.979093  0  0  0.112668  0  1.049771  0  0  0.116154  0  1.04724  0  0  0.115816  0.110126  0  1.051619  0
H  H30  1  0.61720261  0.12436854  0.48591193  1  0  0.108842  0  0.978994  0  0  0.112615  0  1.049703  0  0  0.116149  0  1.047116  0  0  0.115813  0.110055  0  1.05157  0
H  H31  1  0.38282423  0.62436474  0.51406821  1  0  0.108729  0  0.979199  0  0  0.112585  0  1.04985  0  0  0.116078  0  1.047305  0  0  0.115756  0.110082  0  1.051671  0
H  H32  1  0.89083757  0.00463388  0.12041443  1  0  0.106865  0  0.95651  0  0  0.111995  0  1.024425  0  0  0.115489  0  1.021679  0  0  0.111833  0.109468  0  1.026474  0
H  H33  1  0.10918552  0.50463624  0.87958308  1  0  0.106846  0  0.956516  0  0  0.11201  0  1.024375  0  0  0.115504  0  1.02163  0  0  0.111847  0.109495  0  1.026427  0
H  H34  1  0.60918524  0.00463729  0.62040654  1  0  0.106699  0  0.956763  0  0  0.111806  0  1.024685  0  0  0.115299  0  1.02194  0  0  0.111747  0.109286  0  1.026732  0
H  H35  1  0.39082092  0.50462650  0.37957573  1  0  0.106801  0  0.956523  0  0  0.111916  0  1.024445  0  0  0.115408  0  1.021702  0  0  0.111887  0.109402  0  1.026492  0
C  C36  1  0.72344617  0.61028091  0.10636058  1  0  0.654566  0  3.929073  0  0  0.605563  0  4.228775  0  0  0.639071  0  4.220727  0  0  0.188963  0.58275  0  4.233436  0
C  C37  1  0.27654822  0.11028916  0.89364779  1  0  0.654608  0  3.929115  0  0  0.605568  0  4.228882  0  0  0.639071  0  4.220841  0  0  0.188979  0.582764  0  4.23353  0
C  C38  1  0.77655387  0.61028475  0.60636176  1  0  0.654593  0  3.929687  0  0  0.605583  0  4.229345  0  0  0.639087  0  4.221302  0  0  0.188964  0.582774  0  4.233997  0
C  C39  1  0.22343931  0.11028532  0.39362710  1  0  0.654353  0  3.92992  0  0  0.605516  0  4.229238  0  0  0.639022  0  4.22119  0  0  0.188924  0.582709  0  4.233888  0
C  C40  1  0.82755223  0.52189597  0.10467404  1  0  -0.070011  0  3.760381  0  0  -0.067801  0  4.013803  0  0  -0.067096  0  4.030941  0  0  -0.033122  -0.068167  0  4.002256  0
C  C41  1  0.17244186  0.02190082  0.89533239  1  0  -0.069739  0  3.760309  0  0  -0.06753  0  4.013758  0  0  -0.066821  0  4.030895  0  0  -0.033056  -0.067889  0  4.002206  0
C  C42  1  0.67244150  0.52189708  0.60467733  1  0  -0.069686  0  3.760268  0  0  -0.067384  0  4.013577  0  0  -0.066678  0  4.030721  0  0  -0.033052  -0.067744  0  4.002018  0
C  C43  1  0.32755743  0.02189620  0.39531448  1  0  -0.069914  0  3.760483  0  0  -0.067493  0  4.01355  0  0  -0.066783  0  4.030695  0  0  -0.03298  -0.067855  0  4.001992  0
C  C44  1  0.92744669  0.49871832  0.17092739  1  0  -0.045574  0  3.646427  0  0  -0.037894  0  3.917009  0  0  -0.038521  0  3.938937  0  0  -0.071509  -0.037857  0  3.90254  0
C  C45  1  0.07254773  0.99871318  0.82908579  1  0  -0.045558  0  3.646571  0  0  -0.037902  0  3.91712  0  0  -0.038527  0  3.939047  0  0  -0.071477  -0.03787  0  3.902655  0
C  C46  1  0.57254388  0.49870890  0.67092426  1  0  -0.045704  0  3.646595  0  0  -0.038088  0  3.9171  0  0  -0.038712  0  3.939029  0  0  -0.0715  -0.038054  0  3.902627  0
C  C47  1  0.42746626  0.99872471  0.32906149  1  0  -0.045622  0  3.646427  0  0  -0.038086  0  3.916974  0  0  -0.038715  0  3.9389  0  0  -0.071582  -0.038058  0  3.90249  0
C  C48  1  0.00462015  0.41111405  0.17612480  1  0  -0.073969  0  3.779463  0  0  -0.073891  0  4.036825  0  0  -0.073135  0  4.053712  0  0  -0.03574  -0.07436  0  4.025559  0
C  C49  1  0.99537161  0.91111746  0.82387792  1  0  -0.073991  0  3.779951  0  0  -0.073846  0  4.037199  0  0  -0.073093  0  4.054082  0  0  -0.035725  -0.074312  0  4.025932  0
C  C50  1  0.49536846  0.41111407  0.67612851  1  0  -0.073965  0  3.779854  0  0  -0.07374  0  4.036952  0  0  -0.072988  0  4.053838  0  0  -0.035652  -0.074206  0  4.025684  0
C  C51  1  0.50463903  0.91111955  0.32387116  1  0  -0.073852  0  3.779317  0  0  -0.073692  0  4.036491  0  0  -0.07294  0  4.053373  0  0  -0.035591  -0.074124  0  4.025153  0
C  C52  1  0.98887769  0.34863796  0.11102214  1  0  -0.112243  0  3.604094  0  0  -0.095363  0  3.868616  0  0  -0.097985  0  3.890378  0  0  -0.067805  -0.093959  0  3.854239  0
C  C53  1  0.01112290  0.84864823  0.88898320  1  0  -0.112327  0  3.604195  0  0  -0.095479  0  3.868651  0  0  -0.098097  0  3.890405  0  0  -0.067844  -0.094072  0  3.854279  0
C  C54  1  0.51112041  0.34864277  0.61102247  1  0  -0.112472  0  3.604409  0  0  -0.095563  0  3.868795  0  0  -0.098185  0  3.890552  0  0  -0.067863  -0.094164  0  3.854423  0
C  C55  1  0.48889106  0.84863429  0.38897434  1  0  -0.112456  0  3.604764  0  0  -0.095592  0  3.869133  0  0  -0.098222  0  3.890889  0  0  -0.067902  -0.09419  0  3.854741  0
C  C56  1  0.90747706  0.37317079  0.03800818  1  0  0.271878  0  3.875724  0  0  0.253074  0  4.137006  0  0  0.263984  0  4.159011  0  0  0.083665  0.245821  0  4.121923  0
C  C57  1  0.09252045  0.87317571  0.96199867  1  0  0.271956  0  3.875875  0  0  0.253239  0  4.137014  0  0  0.264153  0  4.159011  0  0  0.083751  0.24598  0  4.121947  0
C  C58  1  0.59251960  0.37317373  0.53800999  1  0  0.271756  0  3.876076  0  0  0.252933  0  4.137384  0  0  0.263857  0  4.159365  0  0  0.083561  0.245684  0  4.1223  0
C  C59  1  0.40747670  0.87317698  0.46198528  1  0  0.271282  0  3.876499  0  0  0.252625  0  4.13752  0  0  0.263562  0  4.159486  0  0  0.083475  0.245366  0  4.12244  0
C  C60  1  0.82209563  0.45959283  0.03862620  1  0  -0.115083  0  3.580742  0  0  -0.099091  0  3.844335  0  0  -0.101683  0  3.866814  0  0  -0.068759  -0.097763  0  3.829503  0
C  C61  1  0.17789236  0.95959794  0.96137468  1  0  -0.115203  0  3.580886  0  0  -0.099234  0  3.844438  0  0  -0.101829  0  3.866915  0  0  -0.068772  -0.097921  0  3.829629  0
C  C62  1  0.67789150  0.45959597  0.53863621  1  0  -0.114949  0  3.580802  0  0  -0.099036  0  3.844422  0  0  -0.101634  0  3.866901  0  0  -0.06872  -0.097718  0  3.829598  0
C  C63  1  0.32208802  0.95959902  0.46136650  1  0  -0.11481  0  3.580983  0  0  -0.098988  0  3.84451  0  0  -0.101593  0  3.866986  0  0  -0.068746  -0.097669  0  3.829689  0
C  C64  1  0.10808181  0.38392377  0.24926437  1  0  0.660425  0  3.937609  0  0  0.609232  0  4.242324  0  0  0.64319  0  4.23359  0  0  0.190404  0.586131  0  4.247449  0
C  C65  1  0.89190559  0.88392932  0.75074356  1  0  0.660288  0  3.937971  0  0  0.609045  0  4.24273  0  0  0.643007  0  4.233986  0  0  0.190298  0.585946  0  4.24785  0
C  C66  1  0.39190441  0.38392104  0.74926471  1  0  0.660678  0  3.937524  0  0  0.609435  0  4.242245  0  0  0.643389  0  4.233513  0  0  0.190466  0.58634  0  4.247371  0
C  C67  1  0.60812289  0.88392782  0.25073470  1  0  0.66004  0  3.938005  0  0  0.608879  0  4.242622  0  0  0.642844  0  4.233871  0  0  0.190112  0.585776  0  4.247743  0
C  C68  1  0.41306559  0.74056108  0.93887455  1  0  0.045466  0  3.709185  0  0  0.005657  0  3.985002  0  0  0.008522  0  4.003842  0  0  0.004563  0.003725  0  3.9722  0
C  C69  1  0.58693209  0.24056539  0.06113703  1  0  0.045258  0  3.709225  0  0  0.005336  0  3.985114  0  0  0.008222  0  4.003904  0  0  0.004534  0.003404  0  3.972308  0
C  C70  1  0.08694071  0.74055356  0.43887416  1  0  0.045303  0  3.709038  0  0  0.005522  0  3.984905  0  0  0.008407  0  4.00369  0  0  0.004504  0.003588  0  3.972102  0
C  C71  1  0.91306422  0.24055182  0.56112829  1  0  0.045255  0  3.708988  0  0  0.005433  0  3.984923  0  0  0.008319  0  4.003706  0  0  0.004481  0.003506  0  3.972102  0
C  C72  1  0.40061942  0.78022806  0.86220264  1  0  0.004668  0  3.649459  0  0  -0.032059  0  3.918281  0  0  -0.031252  0  3.936083  0  0  0.002469  -0.032531  0  3.906353  0
C  C73  1  0.59936901  0.28023089  0.13780661  1  0  0.004936  0  3.649103  0  0  -0.031909  0  3.917865  0  0  -0.031109  0  3.935673  0  0  0.002507  -0.032394  0  3.905945  0
C  C74  1  0.09938300  0.78021262  0.36220107  1  0  0.004806  0  3.649349  0  0  -0.031965  0  3.918133  0  0  -0.031158  0  3.935947  0  0  0.002583  -0.032439  0  3.906199  0
C  C75  1  0.90063204  0.28021609  0.63780087  1  0  0.00495  0  3.64904  0  0  -0.031837  0  3.917854  0  0  -0.031031  0  3.935664  0  0  0.002562  -0.032312  0  3.905915  0
C  C76  1  0.56797438  0.86397697  0.93718493  1  0  0.25308  0  3.850411  0  0  0.219184  0  4.124424  0  0  0.231301  0  4.139186  0  0  0.211099  0.211224  0  4.114147  0
C  C77  1  0.43200676  0.36397508  0.06282692  1  0  0.253178  0  3.850352  0  0  0.219253  0  4.124274  0  0  0.231376  0  4.139027  0  0  0.211064  0.211227  0  4.114077  0
C  C78  1  0.93202065  0.86396594  0.43717771  1  0  0.25303  0  3.850361  0  0  0.219105  0  4.124427  0  0  0.231222  0  4.139191  0  0  0.211008  0.211121  0  4.114181  0
C  C79  1  0.06798225  0.36396854  0.56281707  1  0  0.25336  0  3.850007  0  0  0.219524  0  4.124001  0  0  0.231642  0  4.13876  0  0  0.211173  0.211505  0  4.113792  0
C  C80  1  0.67704861  0.93218627  0.96980465  1  0  0.251802  0  3.841212  0  0  0.219372  0  4.110655  0  0  0.23086  0  4.126015  0  0  0.211065  0.211765  0  4.100067  0
C  C81  1  0.32293621  0.43218249  0.03020390  1  0  0.251811  0  3.841277  0  0  0.219305  0  4.110776  0  0  0.230783  0  4.12615  0  0  0.210989  0.211734  0  4.100174  0
C  C82  1  0.82294816  0.93217680  0.46979342  1  0  0.251813  0  3.841317  0  0  0.219325  0  4.110832  0  0  0.230812  0  4.126188  0  0  0.211029  0.211729  0  4.100239  0
C  C83  1  0.17705479  0.43217720  0.53019440  1  0  0.251777  0  3.841251  0  0  0.219217  0  4.110822  0  0  0.2307  0  4.126184  0  0  0.211008  0.211646  0  4.100213  0
C  C84  1  0.82363402  0.05768291  0.99694254  1  0  0.005233  0  3.661258  0  0  -0.032023  0  3.930072  0  0  -0.031087  0  3.9489  0  0  0.009112  -0.032508  0  3.917465  0
C  C85  1  0.17636627  0.55768042  0.00305856  1  0  0.005324  0  3.661445  0  0  -0.031962  0  3.930269  0  0  -0.031011  0  3.949088  0  0  0.009119  -0.032462  0  3.917671  0
C  C86  1  0.67637804  0.05767412  0.49693085  1  0  0.005198  0  3.661296  0  0  -0.032032  0  3.930158  0  0  -0.031119  0  3.948959  0  0  0.009204  -0.032516  0  3.917544  0
C  C87  1  0.32363918  0.55767023  0.50305075  1  0  0.00511  0  3.661673  0  0  -0.032217  0  3.930546  0  0  -0.031271  0  3.94938  0  0  0.009096  -0.032751  0  3.917899  0
C  C88  1  0.82849364  0.99712907  0.06270955  1  0  0.023047  0  3.723665  0  0  -0.019724  0  4.004512  0  0  -0.018041  0  4.024277  0  0  0.002661  -0.020828  0  3.991029  0
C  C89  1  0.17151397  0.49712983  0.93729086  1  0  0.023064  0  3.7237  0  0  -0.019736  0  4.00458  0  0  -0.018053  0  4.024347  0  0  0.002717  -0.020862  0  3.99113  0
C  C90  1  0.67151818  0.99712738  0.56270064  1  0  0.023433  0  3.723743  0  0  -0.01933  0  4.004623  0  0  -0.01765  0  4.024402  0  0  0.002814  -0.020446  0  3.991153  0
C  C91  1  0.32848943  0.49712098  0.43728331  1  0  0.023405  0  3.723487  0  0  -0.019354  0  4.004332  0  0  -0.017672  0  4.024093  0  0  0.002749  -0.02048  0  3.990888  0
I  I92  1  0.69753228  0.50012006  0.93086997  1  0  0.028547  0  1.655136  0  0  0.022916  0  2.00743  0  0  0.020709  0  1.996479  0  0  0.116728  0.024385  0  2.015365  0
I  I93  1  0.30246388  0.00012436  0.06913796  1  0  0.02849  0  1.654953  0  0  0.02286  0  2.00728  0  0  0.020649  0  1.996327  0  0  0.116684  0.024331  0  2.015227  0
I  I94  1  0.80246220  0.50012564  0.43087087  1  0  0.028411  0  1.654898  0  0  0.022824  0  2.007165  0  0  0.020614  0  1.996214  0  0  0.116673  0.024297  0  2.01511  0
I  I95  1  0.19752791  0.00012722  0.56911573  1  0  0.028607  0  1.655159  0  0  0.02296  0  2.007523  0  0  0.020749  0  1.996574  0  0  0.116776  0.024427  0  2.01546  0
I  I96  1  0.97686710  0.60113050  0.26080030  1  0  0.03054  0  1.569663  0  0  0.023071  0  1.899432  0  0  0.020334  0  1.888094  0  0  0.109741  0.025001  0  1.907574  0
I  I97  1  0.02313873  0.10113229  0.73920147  1  0  0.030408  0  1.569321  0  0  0.022941  0  1.899068  0  0  0.020205  0  1.887731  0  0  0.109636  0.024866  0  1.907207  0
I  I98  1  0.52311670  0.60112882  0.76080433  1  0  0.030474  0  1.569345  0  0  0.02301  0  1.899091  0  0  0.020276  0  1.887754  0  0  0.109654  0.024935  0  1.907227  0
I  I99  1  0.47689517  0.10113468  0.23919744  1  0  0.030631  0  1.569815  0  0  0.023163  0  1.899622  0  0  0.020424  0  1.888289  0  0  0.109772  0.025081  0  1.907762  0
I  I100  1  0.09685617  0.21427339  0.11918356  1  0  0.018274  0  1.56876  0  0  0.009111  0  1.902226  0  0  0.007495  0  1.893615  0  0  0.107863  0.009957  0  1.908594  0
I  I101  1  0.90313721  0.71427220  0.88082226  1  0  0.018319  0  1.568489  0  0  0.009135  0  1.901952  0  0  0.007523  0  1.893333  0  0  0.107848  0.009971  0  1.908331  0
I  I102  1  0.40313897  0.21426769  0.61918027  1  0  0.018296  0  1.568537  0  0  0.009102  0  1.901967  0  0  0.007485  0  1.89336  0  0  0.107811  0.009947  0  1.908333  0
I  I103  1  0.59685683  0.71427579  0.38081763  1  0  0.018471  0  1.569003  0  0  0.009297  0  1.902428  0  0  0.007682  0  1.893816  0  0  0.107941  0.01012  0  1.908841  0
N  N104  1  0.90695166  0.31404723  0.97182841  1  0  -0.649981  0  3.15261  0  0  -0.610633  0  3.374414  0  0  -0.629909  0  3.373957  0  0  -0.599117  -0.596976  0  3.374386  0
N  N105  1  0.09304645  0.81404994  0.02817737  1  0  -0.649901  0  3.15257  0  0  -0.610644  0  3.374278  0  0  -0.629924  0  3.373816  0  0  -0.599104  -0.596989  0  3.374257  0
N  N106  1  0.59304790  0.31404947  0.47182925  1  0  -0.649843  0  3.152592  0  0  -0.610514  0  3.37434  0  0  -0.629798  0  3.373884  0  0  -0.598995  -0.596859  0  3.374311  0
N  N107  1  0.40694416  0.81405544  0.52816555  1  0  -0.64991  0  3.152656  0  0  -0.610484  0  3.374495  0  0  -0.629773  0  3.374034  0  0  -0.59905  -0.596832  0  3.374476  0
N  N108  1  0.51616280  0.79368790  0.98544109  1  0  -0.431362  0  3.236416  0  0  -0.35804  0  3.528127  0  0  -0.377791  0  3.540045  0  0  -0.349324  -0.344524  0  3.519843  0
N  N109  1  0.48382902  0.29368714  0.01456739  1  0  -0.431437  0  3.236171  0  0  -0.358112  0  3.527884  0  0  -0.377871  0  3.539812  0  0  -0.349359  -0.344575  0  3.519607  0
N  N110  1  0.98384183  0.79368106  0.48544013  1  0  -0.431335  0  3.235975  0  0  -0.35803  0  3.527701  0  0  -0.377782  0  3.53963  0  0  -0.3493  -0.344511  0  3.519428  0
N  N111  1  0.01615724  0.29367852  0.51455676  1  0  -0.431497  0  3.236026  0  0  -0.358195  0  3.527738  0  0  -0.377948  0  3.539666  0  0  -0.349339  -0.344666  0  3.519463  0
N  N112  1  0.50056419  0.85781008  0.86238640  1  0  -0.288141  0  3.402664  0  0  -0.230675  0  3.638662  0  0  -0.24521  0  3.652054  0  0  -0.365819  -0.220987  0  3.62967  0
N  N113  1  0.49941287  0.35781011  0.13762309  1  0  -0.288144  0  3.402713  0  0  -0.230457  0  3.638504  0  0  -0.24498  0  3.651882  0  0  -0.365788  -0.220767  0  3.629538  0
N  N114  1  0.99942846  0.85779457  0.36238123  1  0  -0.287972  0  3.402424  0  0  -0.230391  0  3.638316  0  0  -0.244931  0  3.651717  0  0  -0.365814  -0.2207  0  3.629325  0
N  N115  1  0.00058488  0.35779890  0.63761546  1  0  -0.288121  0  3.402718  0  0  -0.230616  0  3.63869  0  0  -0.245155  0  3.652081  0  0  -0.365819  -0.220919  0  3.629716  0
N  N116  1  0.72665272  0.01560132  0.93936304  1  0  -0.278673  0  3.408066  0  0  -0.21826  0  3.640453  0  0  -0.232254  0  3.653601  0  0  -0.363584  -0.208935  0  3.631662  0
N  N117  1  0.27333367  0.51559718  0.06064348  1  0  -0.278769  0  3.408369  0  0  -0.218277  0  3.640704  0  0  -0.232267  0  3.653849  0  0  -0.363624  -0.208951  0  3.631908  0
N  N118  1  0.77334795  0.01558834  0.43935165  1  0  -0.27856  0  3.408153  0  0  -0.218087  0  3.64045  0  0  -0.232081  0  3.65361  0  0  -0.363658  -0.208756  0  3.631644  0
N  N119  1  0.22666384  0.51558837  0.56063353  1  0  -0.278328  0  3.407826  0  0  -0.217923  0  3.64023  0  0  -0.231913  0  3.65338  0  0  -0.363466  -0.2086  0  3.631442  0
N  N120  1  0.73816897  0.91886982  0.04473399  1  0  -0.4232  0  3.246331  0  0  -0.34963  0  3.536552  0  0  -0.369044  0  3.549697  0  0  -0.35079  -0.336358  0  3.527498  0
N  N121  1  0.26182940  0.41886755  0.95526863  1  0  -0.423195  0  3.246174  0  0  -0.349626  0  3.536451  0  0  -0.36904  0  3.5496  0  0  -0.350782  -0.336358  0  3.527398  0
N  N122  1  0.76183402  0.91886403  0.54472902  1  0  -0.423334  0  3.246089  0  0  -0.349719  0  3.536313  0  0  -0.36913  0  3.549449  0  0  -0.350791  -0.336454  0  3.527273  0
N  N123  1  0.23816556  0.41885928  0.45525836  1  0  -0.423365  0  3.246136  0  0  -0.349738  0  3.53636  0  0  -0.369141  0  3.549495  0  0  -0.350803  -0.336477  0  3.527309  0
O  O124  1  0.79710596  0.68970554  0.09382642  1  0  -0.670074  0  2.069384  0  0  -0.594988  0  2.345181  0  0  -0.624979  0  2.328812  0  0  -0.333839  -0.573911  0  2.35574  0
O  O125  1  0.20290258  0.18970524  0.90617545  1  0  -0.670086  0  2.069783  0  0  -0.594972  0  2.345564  0  0  -0.624959  0  2.329203  0  0  -0.333822  -0.573903  0  2.356122  0
O  O126  1  0.70290730  0.68970269  0.59383225  1  0  -0.670112  0  2.06995  0  0  -0.595021  0  2.345724  0  0  -0.625009  0  2.329358  0  0  -0.33384  -0.573946  0  2.35628  0
O  O127  1  0.29709399  0.18970597  0.40616536  1  0  -0.670073  0  2.069711  0  0  -0.595076  0  2.345426  0  0  -0.625066  0  2.32906  0  0  -0.333909  -0.574003  0  2.355981  0
O  O128  1  0.57600875  0.60204235  0.12060519  1  0  -0.602184  0  1.88038  0  0  -0.561187  0  2.096377  0  0  -0.583705  0  2.087072  0  0  -0.325357  -0.545172  0  2.102185  0
O  O129  1  0.42398747  0.10204752  0.87939840  1  0  -0.602244  0  1.8802  0  0  -0.561255  0  2.096237  0  0  -0.583777  0  2.086934  0  0  -0.325402  -0.545241  0  2.102043  0
O  O130  1  0.92398433  0.60204269  0.62060685  1  0  -0.602195  0  1.880555  0  0  -0.561228  0  2.096584  0  0  -0.583749  0  2.08728  0  0  -0.325326  -0.545213  0  2.102392  0
O  O131  1  0.07600463  0.10203664  0.37938151  1  0  -0.602067  0  1.88087  0  0  -0.561178  0  2.096792  0  0  -0.5837  0  2.087489  0  0  -0.325297  -0.545166  0  2.102598  0
O  O132  1  0.03115878  0.33581710  0.30367690  1  0  -0.64934  0  2.060712  0  0  -0.577106  0  2.338194  0  0  -0.606382  0  2.320147  0  0  -0.333692  -0.556564  0  2.349909  0
O  O133  1  0.96881791  0.83581978  0.69632616  1  0  -0.649237  0  2.060789  0  0  -0.57698  0  2.338244  0  0  -0.606259  0  2.320196  0  0  -0.333604  -0.556435  0  2.349957  0
O  O134  1  0.46881793  0.33581610  0.80367931  1  0  -0.649366  0  2.060821  0  0  -0.577111  0  2.338291  0  0  -0.606384  0  2.320242  0  0  -0.33364  -0.556571  0  2.350007  0
O  O135  1  0.53120109  0.83581657  0.19632192  1  0  -0.649103  0  2.06098  0  0  -0.576896  0  2.338462  0  0  -0.606175  0  2.320413  0  0  -0.333531  -0.556354  0  2.35018  0
O  O136  1  0.25348316  0.40808172  0.25147655  1  0  -0.618424  0  1.90602  0  0  -0.577622  0  2.127374  0  0  -0.600166  0  2.117261  0  0  -0.326224  -0.561579  0  2.13371  0
O  O137  1  0.74651080  0.90808790  0.74853413  1  0  -0.618447  0  1.906272  0  0  -0.577584  0  2.127547  0  0  -0.600136  0  2.117449  0  0  -0.326245  -0.561541  0  2.133878  0
O  O138  1  0.24650595  0.40807685  0.75147580  1  0  -0.618551  0  1.905952  0  0  -0.577779  0  2.12735  0  0  -0.600327  0  2.117252  0  0  -0.326318  -0.561739  0  2.133692  0
O  O139  1  0.75351704  0.90808855  0.24853000  1  0  -0.618282  0  1.906102  0  0  -0.577512  0  2.127434  0  0  -0.600064  0  2.117333  0  0  -0.326164  -0.561476  0  2.133773  0
