# generated using pymatgen
data_CuH9C12S(N2O)2
_symmetry_space_group_name_H-M   'P 1'
_cell_length_a   7.85888888
_cell_length_b   10.23502670
_cell_length_c   15.70050000
_cell_angle_alpha   94.42892507
_cell_angle_beta   90.00000000
_cell_angle_gamma   90.00000000
_symmetry_Int_Tables_number   1
_chemical_formula_structural   CuH9C12S(N2O)2
_chemical_formula_sum   'Cu4 H36 C48 S4 N16 O8'
_cell_volume   1259.11332979
_cell_formula_units_Z   4
loop_
 _symmetry_equiv_pos_site_id
 _symmetry_equiv_pos_as_xyz
  1  'x, y, z'
loop_
 _atom_site_type_symbol
 _atom_site_label
 _atom_site_symmetry_multiplicity
 _atom_site_fract_x
 _atom_site_fract_y
 _atom_site_fract_z
 _atom_site_occupancy
 _atom_site_hle17_bader_spin_density
 _atom_site_hle17_ddec_charge
 _atom_site_hle17_ddec_spin_density
 _atom_site_hle17_ddec_sum_bond_order
 _atom_site_hle17_magmom
 _atom_site_hse06_10hf_bader_spin_density
 _atom_site_hse06_10hf_ddec_charge
 _atom_site_hse06_10hf_ddec_spin_density
 _atom_site_hse06_10hf_ddec_sum_bond_order
 _atom_site_hse06_10hf_magmom
 _atom_site_hse06_bader_spin_density
 _atom_site_hse06_ddec_charge
 _atom_site_hse06_ddec_spin_density
 _atom_site_hse06_ddec_sum_bond_order
 _atom_site_hse06_magmom
 _atom_site_pbe_bader_charge
 _atom_site_pbe_bader_spin_density
 _atom_site_pbe_cm5_charge
 _atom_site_pbe_ddec_charge
 _atom_site_pbe_ddec_spin_density
 _atom_site_pbe_ddec_sum_bond_order
 _atom_site_pbe_magmom
Cu  Cu0  1  0.32947787  0.22624511  0.80063998  1  0  0.447868  0  2.19341  0  0  0.350868  0  2.697393  0  0  0.33887  0  2.663195  0  0.722354  0  0.555454  0.35954  0  2.719182  0
Cu  Cu1  1  0.82948494  0.27376353  0.19936596  1  0  0.44796  0  2.1939  0  0  0.350944  0  2.697928  0  0  0.338957  0  2.66369  0  0.722393  0  0.555611  0.359631  0  2.719712  0
Cu  Cu2  1  0.67051591  0.77375746  0.19936480  1  0  0.447975  0  2.19363  0  0  0.350986  0  2.697657  0  0  0.339008  0  2.663405  0  0.722276  0  0.555588  0.35967  0  2.719441  0
Cu  Cu3  1  0.17051138  0.72624590  0.80063470  1  0  0.447863  0  2.193459  0  0  0.350865  0  2.697465  0  0  0.338874  0  2.663242  0  0.722362  0  0.55547  0.359534  0  2.719247  0
H  H4  1  0.32425449  0.94585861  0.61143219  1  0  0.298721  0  0.896017  0  0  0.281828  0  0.959379  0  0  0.288815  0  0.955363  0  0.487892  0  0.323965  0.275729  0  0.96394  0
H  H5  1  0.82425011  0.55413984  0.38856452  1  0  0.298648  0  0.896072  0  0  0.281765  0  0.959427  0  0  0.288753  0  0.955407  0  0.487919  0  0.323954  0.275666  0  0.963987  0
H  H6  1  0.67575329  0.05414101  0.38856416  1  0  0.298703  0  0.896009  0  0  0.281765  0  0.959418  0  0  0.288754  0  0.955399  0  0.487921  0  0.323968  0.275673  0  0.963976  0
H  H7  1  0.17574876  0.44585978  0.61143502  1  0  0.298616  0  0.896117  0  0  0.281731  0  0.959475  0  0  0.288718  0  0.955458  0  0.487911  0  0.323954  0.275634  0  0.964033  0
H  H8  1  0.49990400  0.24211169  0.98435964  1  0  0.065214  0  0.966206  0  0  0.070531  0  1.04015  0  0  0.073316  0  1.037904  0  0.101594  0  0.104926  0.068534  0  1.041777  0
H  H9  1  0.99990598  0.25788714  0.01564390  1  0  0.065173  0  0.966265  0  0  0.070499  0  1.040202  0  0  0.073279  0  1.037961  0  0.101545  0  0.104945  0.068505  0  1.041825  0
H  H10  1  0.50009232  0.75788401  0.01564161  1  0  0.065178  0  0.966222  0  0  0.070499  0  1.040167  0  0  0.073282  0  1.037924  0  0.101791  0  0.10493  0.068503  0  1.041793  0
H  H11  1  0.00008525  0.74210856  0.98435799  1  0  0.065244  0  0.966281  0  0  0.07052  0  1.040261  0  0  0.0733  0  1.038022  0  0.101905  0  0.104945  0.068522  0  1.041889  0
H  H12  1  0.73179683  0.11972800  0.05127033  1  0  0.100008  0  0.98517  0  0  0.104388  0  1.057833  0  0  0.108881  0  1.054788  0  0.126951  0  0.096568  0.100733  0  1.060771  0
H  H13  1  0.23179485  0.38026888  0.94873248  1  0  0.100016  0  0.985161  0  0  0.104404  0  1.057799  0  0  0.108894  0  1.054773  0  0.126887  0  0.096578  0.10075  0  1.060737  0
H  H14  1  0.26820585  0.88027163  0.94873048  1  0  0.10003  0  0.985145  0  0  0.104418  0  1.057784  0  0  0.10891  0  1.054753  0  0.126892  0  0.096588  0.100765  0  1.060723  0
H  H15  1  0.76820020  0.61972193  0.05126725  1  0  0.100042  0  0.985149  0  0  0.104417  0  1.057807  0  0  0.108915  0  1.054759  0  0.12695  0  0.096584  0.100762  0  1.060745  0
H  H16  1  0.85683996  0.92202591  0.96895668  1  0  0.090435  0  0.952476  0  0  0.102488  0  1.012603  0  0  0.104733  0  1.011355  0  0.096315  0  0.104108  0.100811  0  1.013577  0
H  H17  1  0.35683161  0.57797059  0.03104502  1  0  0.090479  0  0.952502  0  0  0.102515  0  1.012639  0  0  0.104762  0  1.011385  0  0.096379  0  0.104146  0.10082  0  1.013641  0
H  H18  1  0.14316909  0.07797568  0.03104486  1  0  0.090477  0  0.952454  0  0  0.102511  0  1.012606  0  0  0.10476  0  1.011346  0  0.096386  0  0.104124  0.100807  0  1.013624  0
H  H19  1  0.64316980  0.42201825  0.96895461  1  0  0.090385  0  0.95254  0  0  0.102425  0  1.012697  0  0  0.104671  0  1.011462  0  0.096293  0  0.104104  0.10075  0  1.013667  0
H  H20  1  0.74396904  0.85551776  0.82285584  1  0  0.109785  0  0.944842  0  0  0.118679  0  1.006383  0  0  0.12195  0  1.005847  0  0.11583  0  0.103691  0.116329  0  1.006918  0
H  H21  1  0.24396451  0.64448168  0.17714665  1  0  0.109706  0  0.9447  0  0  0.11857  0  1.006291  0  0  0.12184  0  1.005758  0  0.115879  0  0.103661  0.11622  0  1.006822  0
H  H22  1  0.25603874  0.14448187  0.17714688  1  0  0.109793  0  0.944753  0  0  0.118626  0  1.006368  0  0  0.121895  0  1.005837  0  0.115858  0  0.103672  0.116276  0  1.006899  0
H  H23  1  0.75602927  0.35551794  0.82285289  1  0  0.109728  0  0.944859  0  0  0.118613  0  1.006419  0  0  0.121884  0  1.005883  0  0.115797  0  0.103653  0.116266  0  1.006956  0
H  H24  1  0.51522932  0.89049265  0.70795779  1  0  0.099611  0  0.932086  0  0  0.109376  0  0.996965  0  0  0.113122  0  0.991949  0  0.125285  0  0.120923  0.107828  0  0.998295  0
H  H25  1  0.01522480  0.60950875  0.29204352  1  0  0.099613  0  0.932106  0  0  0.109409  0  0.996958  0  0  0.113159  0  0.991939  0  0.125289  0  0.120929  0.107863  0  0.998285  0
H  H26  1  0.48477845  0.10951090  0.29204130  1  0  0.09967  0  0.932065  0  0  0.109448  0  0.996924  0  0  0.113197  0  0.991906  0  0.125307  0  0.120938  0.107901  0  0.998252  0
H  H27  1  0.98476898  0.39048891  0.70795592  1  0  0.09961  0  0.932043  0  0  0.10935  0  0.996953  0  0  0.1131  0  0.991935  0  0.125263  0  0.120911  0.107803  0  0.998281  0
H  H28  1  0.29641722  0.88523514  0.47097328  1  0  0.133733  0  0.971559  0  0  0.135565  0  1.043346  0  0  0.140149  0  1.038762  0  0.141002  0  0.108639  0.131931  0  1.04728  0
H  H29  1  0.79641029  0.61477017  0.52902505  1  0  0.133743  0  0.971539  0  0  0.135629  0  1.04327  0  0  0.140211  0  1.038692  0  0.140843  0  0.108683  0.131992  0  1.0472  0
H  H30  1  0.70358674  0.11476644  0.52902636  1  0  0.133741  0  0.971581  0  0  0.135626  0  1.043312  0  0  0.140209  0  1.038732  0  0.140873  0  0.108665  0.13199  0  1.047241  0
H  H31  1  0.20358349  0.38523337  0.47097723  1  0  0.133733  0  0.971549  0  0  0.135607  0  1.0433  0  0  0.140192  0  1.038713  0  0.141051  0  0.108656  0.131972  0  1.047231  0
H  H32  1  0.14533607  0.91338753  0.31651201  1  0  0.122565  0  0.968422  0  0  0.129156  0  1.031919  0  0  0.132199  0  1.032174  0  0.1199  0  0.100799  0.127196  0  1.031322  0
H  H33  1  0.64532660  0.58661485  0.68348553  1  0  0.122617  0  0.968318  0  0  0.129192  0  1.03183  0  0  0.132236  0  1.032083  0  0.119939  0  0.100801  0.127232  0  1.031233  0
H  H34  1  0.85467044  0.08661308  0.68348757  1  0  0.122598  0  0.968244  0  0  0.129155  0  1.031779  0  0  0.132198  0  1.032034  0  0.119933  0  0.100785  0.127195  0  1.031182  0
H  H35  1  0.35467100  0.41338282  0.31651582  1  0  0.122569  0  0.968251  0  0  0.129132  0  1.031783  0  0  0.132176  0  1.032037  0  0.119974  0  0.100773  0.127173  0  1.031184  0
H  H36  1  0.00711042  0.16172236  0.33171561  1  0  0.104662  0  0.985504  0  0  0.101645  0  1.065908  0  0  0.106167  0  1.060718  0  0.186833  0  0.115345  0.098465  0  1.069467  0
H  H37  1  0.50710986  0.33827843  0.66827975  1  0  0.104626  0  0.985528  0  0  0.101658  0  1.065875  0  0  0.106178  0  1.060688  0  0.186853  0  0.115344  0.098494  0  1.069417  0
H  H38  1  0.99289227  0.83827628  0.66828196  1  0  0.104676  0  0.985484  0  0  0.10167  0  1.06587  0  0  0.106191  0  1.06068  0  0.186834  0  0.115362  0.098491  0  1.069428  0
H  H39  1  0.49289665  0.66171532  0.33172077  1  0  0.104602  0  0.985653  0  0  0.101619  0  1.066006  0  0  0.106133  0  1.060835  0  0.18702  0  0.115338  0.098473  0  1.069531  0
C  C40  1  0.55956129  0.15783681  0.94944938  1  0  0.127449  0  3.722882  0  0  0.099517  0  3.977229  0  0  0.104728  0  3.993006  0  0.459687  0  0.042207  0.095726  0  3.966755  0
C  C41  1  0.05955931  0.34215614  0.05054813  1  0  0.12761  0  3.722754  0  0  0.099681  0  3.977064  0  0  0.104891  0  3.992848  0  0.459433  0  0.042192  0.095888  0  3.96659  0
C  C42  1  0.44044013  0.84215498  0.05055104  1  0  0.127573  0  3.72275  0  0  0.099647  0  3.977086  0  0  0.104855  0  3.992872  0  0.459247  0  0.042188  0.095853  0  3.966613  0
C  C43  1  0.94043320  0.65784054  0.94945125  1  0  0.127377  0  3.722875  0  0  0.09949  0  3.977208  0  0  0.104699  0  3.992992  0  0.459321  0  0.04215  0.095698  0  3.966733  0
C  C44  1  0.68846374  0.08870628  0.98693997  1  0  -0.112081  0  3.718465  0  0  -0.125811  0  3.96905  0  0  -0.131208  0  3.989493  0  -0.013308  0  -0.087901  -0.122353  0  3.956199  0
C  C45  1  0.18845794  0.41129158  0.01305970  1  0  -0.112119  0  3.71843  0  0  -0.125833  0  3.968991  0  0  -0.131233  0  3.98942  0  -0.01305  0  -0.087878  -0.122372  0  3.956137  0
C  C46  1  0.31154022  0.91129237  0.01306015  1  0  -0.112157  0  3.718456  0  0  -0.12587  0  3.969015  0  0  -0.131272  0  3.989451  0  -0.013038  0  -0.087886  -0.12241  0  3.956161  0
C  C47  1  0.81153711  0.58870217  0.98693954  1  0  -0.112167  0  3.718399  0  0  -0.125879  0  3.968983  0  0  -0.131277  0  3.98942  0  -0.013229  0  -0.0879  -0.122419  0  3.956132  0
C  C48  1  0.75610434  0.97829442  0.94133738  1  0  -0.003872  0  3.723534  0  0  -0.022962  0  3.973601  0  0  -0.019532  0  3.991851  0  -0.053155  0  -0.071866  -0.025578  0  3.961666  0
C  C49  1  0.25610491  0.52170600  0.05866261  1  0  -0.003899  0  3.723573  0  0  -0.022976  0  3.973638  0  0  -0.019544  0  3.991883  0  -0.053328  0  -0.071902  -0.025585  0  3.96171  0
C  C50  1  0.24389707  0.02170521  0.05866343  1  0  -0.003855  0  3.723607  0  0  -0.022932  0  3.97366  0  0  -0.0195  0  3.991908  0  -0.053262  0  -0.071874  -0.025541  0  3.961727  0
C  C51  1  0.74389015  0.47828579  0.94133526  1  0  -0.003623  0  3.72338  0  0  -0.022715  0  3.973443  0  0  -0.019292  0  3.991695  0  -0.053169  0  -0.071825  -0.025331  0  3.96151  0
C  C52  1  0.69305726  0.94068637  0.86031229  1  0  -0.128401  0  3.689605  0  0  -0.14649  0  3.933019  0  0  -0.152448  0  3.954497  0  -0.052872  0  -0.079907  -0.142893  0  3.919123  0
C  C53  1  0.19305146  0.55931111  0.13968437  1  0  -0.128302  0  3.689597  0  0  -0.146373  0  3.933047  0  0  -0.152335  0  3.95453  0  -0.052748  0  -0.079904  -0.142772  0  3.91914  0
C  C54  1  0.30695179  0.05931228  0.13968656  1  0  -0.128471  0  3.689696  0  0  -0.146505  0  3.933134  0  0  -0.152467  0  3.954616  0  -0.052832  0  -0.079927  -0.142901  0  3.919224  0
C  C55  1  0.80694741  0.44068263  0.86031296  1  0  -0.128444  0  3.689687  0  0  -0.146518  0  3.93313  0  0  -0.152476  0  3.954608  0  -0.052102  0  -0.079889  -0.142928  0  3.919241  0
C  C56  1  0.56410646  0.01607826  0.82650093  1  0  0.193121  0  3.794136  0  0  0.19866  0  4.032653  0  0  0.202651  0  4.051279  0  0.483486  0  0.105018  0.19573  0  4.021145  0
C  C57  1  0.06410703  0.48392253  0.17350080  1  0  0.193087  0  3.794317  0  0  0.198647  0  4.0328  0  0  0.20264  0  4.051429  0  0.483258  0  0.105024  0.195718  0  4.021296  0
C  C58  1  0.43589623  0.98392039  0.17349919  1  0  0.193191  0  3.794292  0  0  0.198747  0  4.032768  0  0  0.20274  0  4.051401  0  0.483414  0  0.105011  0.19582  0  4.021257  0
C  C59  1  0.93588930  0.51607611  0.82649678  1  0  0.193137  0  3.794342  0  0  0.198672  0  4.032862  0  0  0.202671  0  4.051487  0  0.482557  0  0.105017  0.195743  0  4.021357  0
C  C60  1  0.49282285  0.98610767  0.74215362  1  0  0.019574  0  3.626232  0  0  -0.029056  0  3.902517  0  0  -0.016749  0  3.902997  0  0.526175  0  0.050351  -0.037058  0  3.901515  0
C  C61  1  0.99282483  0.51389275  0.25784191  1  0  0.019479  0  3.626377  0  0  -0.029188  0  3.90266  0  0  -0.016888  0  3.903144  0  0.526142  0  0.050247  -0.037194  0  3.901661  0
C  C62  1  0.50718366  0.01389294  0.25784342  1  0  0.019309  0  3.626391  0  0  -0.029333  0  3.902765  0  0  -0.017036  0  3.903258  0  0.526212  0  0.050216  -0.037341  0  3.901768  0
C  C63  1  0.00717277  0.48610687  0.74215762  1  0  0.019568  0  3.626325  0  0  -0.029018  0  3.902564  0  0  -0.016717  0  3.903049  0  0.526123  0  0.050344  -0.037017  0  3.901556  0
C  C64  1  0.24926552  0.13644813  0.58712939  1  0  0.489471  0  3.898705  0  0  0.439517  0  4.193374  0  0  0.469757  0  4.191478  0  1.357204  0  0.235225  0.418864  0  4.19434  0
C  C65  1  0.74925605  0.36354874  0.41287023  1  0  0.489467  0  3.898653  0  0  0.439502  0  4.193313  0  0  0.469743  0  4.191419  0  1.357238  0  0.235253  0.418851  0  4.194278  0
C  C66  1  0.75073844  0.86355248  0.41287020  1  0  0.489445  0  3.898571  0  0  0.43951  0  4.193209  0  0  0.469751  0  4.191314  0  1.357459  0  0.235232  0.418857  0  4.194176  0
C  C67  1  0.25073901  0.63645088  0.58713185  1  0  0.489484  0  3.898613  0  0  0.43957  0  4.193254  0  0  0.469811  0  4.191358  0  1.35727  0  0.235291  0.418918  0  4.19422  0
C  C68  1  0.20048508  0.08635339  0.50097713  1  0  0.05289  0  3.732666  0  0  0.048057  0  3.998935  0  0  0.046614  0  4.016249  0  0.386186  0  0.054757  0.048931  0  3.98707  0
C  C69  1  0.70048197  0.41364937  0.49902406  1  0  0.052884  0  3.732549  0  0  0.048106  0  3.998775  0  0  0.046664  0  4.01609  0  0.38616  0  0.05473  0.048979  0  3.98691  0
C  C70  1  0.79951506  0.91364624  0.49902241  1  0  0.052905  0  3.732602  0  0  0.048074  0  3.998883  0  0  0.046631  0  4.016197  0  0.386111  0  0.054772  0.048945  0  3.987019  0
C  C71  1  0.29952071  0.58635320  0.50097689  1  0  0.053004  0  3.732548  0  0  0.048126  0  3.998846  0  0  0.046683  0  4.016162  0  0.386073  0  0.05476  0.048996  0  3.986979  0
C  C72  1  0.22905528  0.97085258  0.45185540  1  0  -0.133439  0  3.713336  0  0  -0.170794  0  3.981988  0  0  -0.167672  0  3.997656  0  -0.003297  0  -0.106751  -0.172335  0  3.971493  0
C  C73  1  0.72904963  0.52915176  0.54814479  1  0  -0.13348  0  3.713253  0  0  -0.170903  0  3.981891  0  0  -0.167781  0  3.997555  0  -0.002973  0  -0.106764  -0.17244  0  3.971397  0
C  C74  1  0.77094868  0.02914901  0.54814360  1  0  -0.133504  0  3.713367  0  0  -0.170916  0  3.982018  0  0  -0.167795  0  3.997682  0  -0.002828  0  -0.106799  -0.172456  0  3.971529  0
C  C75  1  0.27094924  0.47084884  0.45185671  1  0  -0.133529  0  3.713228  0  0  -0.170923  0  3.981882  0  0  -0.167807  0  3.997563  0  -0.003045  0  -0.106762  -0.172461  0  3.971388  0
C  C76  1  0.15163976  0.98514926  0.37108852  1  0  -0.163659  0  3.774519  0  0  -0.179298  0  4.034426  0  0  -0.188353  0  4.057511  0  0.019037  0  -0.120153  -0.173365  0  4.018734  0
C  C77  1  0.65163283  0.51485116  0.62891083  1  0  -0.16371  0  3.774471  0  0  -0.179343  0  4.034403  0  0  -0.188397  0  4.057486  0  0.018892  0  -0.120167  -0.173412  0  4.018713  0
C  C78  1  0.84836420  0.01484840  0.62890964  1  0  -0.163689  0  3.774465  0  0  -0.179303  0  4.034388  0  0  -0.188359  0  4.057475  0  0.018827  0  -0.120139  -0.173372  0  4.018695  0
C  C79  1  0.34836859  0.48515043  0.37109135  1  0  -0.163557  0  3.774368  0  0  -0.179168  0  4.034302  0  0  -0.188223  0  4.057385  0  0.018648  0  -0.12013  -0.173238  0  4.018615  0
C  C80  1  0.08143645  0.10817717  0.37565111  1  0  0.10572  0  3.575935  0  0  0.069016  0  3.839755  0  0  0.077537  0  3.853643  0  0.318964  0  0.001535  0.063569  0  3.83052  0
C  C81  1  0.58143207  0.39182264  0.62434674  1  0  0.105752  0  3.576079  0  0  0.06901  0  3.839906  0  0  0.077531  0  3.853791  0  0.318922  0  0.001492  0.06355  0  3.83066  0
C  C82  1  0.91856497  0.89182246  0.62434715  1  0  0.105694  0  3.57614  0  0  0.06898  0  3.839952  0  0  0.077501  0  3.853841  0  0.318939  0  0.001501  0.063532  0  3.830716  0
C  C83  1  0.41857062  0.60817502  0.37565460  1  0  0.105746  0  3.576322  0  0  0.068977  0  3.840154  0  0  0.077496  0  3.854046  0  0.318884  0  0.001512  0.0635  0  3.830893  0
C  C84  1  0.40990909  0.51890330  0.81958964  1  0  0.286875  0  3.985838  0  0  0.275386  0  4.275606  0  0  0.292001  0  4.293358  0  0.546206  0  0.139456  0.263548  0  4.263082  0
C  C85  1  0.90991107  0.98109319  0.18041206  1  0  0.286375  0  3.985243  0  0  0.274871  0  4.275084  0  0  0.291489  0  4.292859  0  0.545311  0  0.139208  0.26303  0  4.26255  0
C  C86  1  0.59008851  0.48109534  0.18041176  1  0  0.286661  0  3.985499  0  0  0.275171  0  4.275288  0  0  0.291789  0  4.29305  0  0.545441  0  0.139365  0.263329  0  4.262764  0
C  C87  1  0.09008271  0.01890545  0.81958679  1  0  0.286789  0  3.985866  0  0  0.275296  0  4.275655  0  0  0.291912  0  4.293414  0  0.546683  0  0.139458  0.263459  0  4.263128  0
S  S88  1  0.44715354  0.67638831  0.83026458  1  0  -0.345697  0  2.421252  0  0  -0.318541  0  2.806435  0  0  -0.331706  0  2.797979  0  0.052116  0  -0.162874  -0.306654  0  2.80938  0
S  S89  1  0.94715425  0.82362583  0.16973928  1  0  -0.34537  0  2.421793  0  0  -0.318221  0  2.807006  0  0  -0.33137  0  2.798537  0  0.05245  0  -0.162776  -0.306349  0  2.80995  0
S  S90  1  0.55284024  0.32362014  0.16974049  1  0  -0.345522  0  2.421503  0  0  -0.318368  0  2.806683  0  0  -0.331526  0  2.798221  0  0.052276  0  -0.162815  -0.306492  0  2.809629  0
S  S91  1  0.05283444  0.17639045  0.83026555  1  0  -0.34562  0  2.421265  0  0  -0.318454  0  2.806421  0  0  -0.33161  0  2.797948  0  0.051987  0  -0.16284  -0.306575  0  2.80938  0
N  N92  1  0.49843178  0.12383110  0.87113294  1  0  -0.32662  0  3.302062  0  0  -0.266422  0  3.583107  0  0  -0.273364  0  3.591406  0  -1.215706  0  -0.349441  -0.261863  0  3.577521  0
N  N93  1  0.99842740  0.37616969  0.12886496  1  0  -0.326769  0  3.301832  0  0  -0.266559  0  3.582837  0  0  -0.273505  0  3.591137  0  -1.215515  0  -0.349489  -0.262004  0  3.577263  0
N  N94  1  0.50157345  0.87616754  0.12886591  1  0  -0.326647  0  3.301934  0  0  -0.266449  0  3.582945  0  0  -0.273391  0  3.591246  0  -1.215628  0  -0.349395  -0.261892  0  3.577362  0
N  N95  1  0.00156256  0.62382895  0.87113325  1  0  -0.326682  0  3.301871  0  0  -0.266504  0  3.582919  0  0  -0.273452  0  3.591219  0  -1.215539  0  -0.349477  -0.261945  0  3.577334  0
N  N96  1  0.40090655  0.07652435  0.70982279  1  0  -0.108132  0  3.289954  0  0  -0.066157  0  3.589917  0  0  -0.063509  0  3.594585  0  -0.736062  0  -0.239176  -0.068974  0  3.586789  0
N  N97  1  0.90090344  0.42347546  0.29017761  1  0  -0.108099  0  3.289836  0  0  -0.066109  0  3.589813  0  0  -0.063457  0  3.594479  0  -0.735997  0  -0.239078  -0.068928  0  3.586687  0
N  N98  1  0.59909996  0.92347233  0.29017659  1  0  -0.107989  0  3.289924  0  0  -0.066081  0  3.589947  0  0  -0.063431  0  3.59462  0  -0.736021  0  -0.239094  -0.068899  0  3.586816  0
N  N99  1  0.09909543  0.57652515  0.70982197  1  0  -0.108205  0  3.28988  0  0  -0.066223  0  3.58986  0  0  -0.063574  0  3.594529  0  -0.735997  0  -0.239144  -0.069038  0  3.586726  0
N  N100  1  0.32813799  0.04355937  0.63279502  1  0  -0.295697  0  3.371611  0  0  -0.238558  0  3.608102  0  0  -0.263031  0  3.624268  0  -0.796416  0  -0.285994  -0.221612  0  3.598073  0
N  N101  1  0.82813361  0.45644142  0.36720607  1  0  -0.295559  0  3.371485  0  0  -0.238446  0  3.607991  0  0  -0.262924  0  3.624163  0  -0.796385  0  -0.286043  -0.2215  0  3.597958  0
N  N102  1  0.67186979  0.95644222  0.36720271  1  0  -0.295644  0  3.371457  0  0  -0.238437  0  3.607986  0  0  -0.262913  0  3.624158  0  -0.796456  0  -0.286007  -0.221497  0  3.597955  0
N  N103  1  0.17186399  0.54355624  0.63279336  1  0  -0.2955  0  3.371461  0  0  -0.238396  0  3.607959  0  0  -0.262871  0  3.624132  0  -0.796423  0  -0.286043  -0.221455  0  3.597927  0
N  N104  1  0.38032221  0.40537848  0.81037420  1  0  -0.515762  0  3.18438  0  0  -0.466272  0  3.524845  0  0  -0.476325  0  3.522806  0  -1.297825  0  -0.447986  -0.459498  0  3.526521  0
N  N105  1  0.88031274  0.09464681  0.18962812  1  0  -0.515651  0  3.183326  0  0  -0.466138  0  3.523855  0  0  -0.476197  0  3.521835  0  -1.297338  0  -0.447969  -0.459363  0  3.525524  0
N  N106  1  0.61969193  0.59463291  0.18962337  1  0  -0.515788  0  3.183911  0  0  -0.46629  0  3.524399  0  0  -0.476349  0  3.522376  0  -1.297235  0  -0.448031  -0.459518  0  3.526077  0
N  N107  1  0.11967468  0.90538025  0.81036898  1  0  -0.515716  0  3.184427  0  0  -0.466185  0  3.52481  0  0  -0.476238  0  3.522773  0  -1.298273  0  -0.44798  -0.459409  0  3.526477  0
O  O108  1  0.22665800  0.25192700  0.61565595  1  0  -0.542608  0  1.973053  0  0  -0.509335  0  2.220382  0  0  -0.526045  0  2.208179  0  -1.147972  0  -0.291512  -0.497468  0  2.22846  0
O  O109  1  0.72665234  0.24807477  0.38434328  1  0  -0.542598  0  1.973091  0  0  -0.509297  0  2.22039  0  0  -0.526009  0  2.208195  0  -1.148034  0  -0.291481  -0.497434  0  2.228469  0
O  O110  1  0.77333960  0.74807164  0.38434481  1  0  -0.542614  0  1.973016  0  0  -0.509354  0  2.220344  0  0  -0.526071  0  2.208154  0  -1.14826  0  -0.291524  -0.497486  0  2.228424  0
O  O111  1  0.27334144  0.75192584  0.61565695  1  0  -0.542608  0  1.97316  0  0  -0.509359  0  2.220494  0  0  -0.526066  0  2.208287  0  -1.148028  0  -0.291504  -0.497493  0  2.228572  0
O  O112  1  0.10991885  0.17121135  0.45421425  1  0  -0.171734  0  2.421079  0  0  -0.095015  0  2.636926  0  0  -0.111583  0  2.645738  0  -1.056353  0  -0.119411  -0.083838  0  2.631222  0
O  O113  1  0.60991574  0.32878847  0.54578488  1  0  -0.171716  0  2.421187  0  0  -0.095023  0  2.637044  0  0  -0.111592  0  2.645855  0  -1.056393  0  -0.11938  -0.083849  0  2.631346  0
O  O114  1  0.89008130  0.82878730  0.54578460  1  0  -0.171679  0  2.421157  0  0  -0.094957  0  2.637002  0  0  -0.111526  0  2.645814  0  -1.056385  0  -0.119389  -0.08378  0  2.631298  0
O  O115  1  0.39008950  0.67121214  0.45421598  1  0  -0.171867  0  2.42133  0  0  -0.095062  0  2.637138  0  0  -0.111628  0  2.645948  0  -1.056332  0  -0.119414  -0.083882  0  2.631441  0
