# generated using pymatgen
data_Cu4H24WC36S4(IN9)2
_symmetry_space_group_name_H-M   'P 1'
_cell_length_a   13.90202791
_cell_length_b   20.55510531
_cell_length_c   20.55509270
_cell_angle_alpha   99.77578587
_cell_angle_beta   90.00005638
_cell_angle_gamma   90.00005923
_symmetry_Int_Tables_number   1
_chemical_formula_structural   Cu4H24WC36S4(IN9)2
_chemical_formula_sum   'Cu16 H96 W4 C144 S16 I8 N72'
_cell_volume   5788.48622300
_cell_formula_units_Z   4
loop_
 _symmetry_equiv_pos_site_id
 _symmetry_equiv_pos_as_xyz
  1  'x, y, z'
loop_
 _atom_site_type_symbol
 _atom_site_label
 _atom_site_symmetry_multiplicity
 _atom_site_fract_x
 _atom_site_fract_y
 _atom_site_fract_z
 _atom_site_occupancy
 _atom_site_pbe_bader_charge
 _atom_site_pbe_bader_spin_density
 _atom_site_pbe_cm5_charge
 _atom_site_pbe_ddec_charge
 _atom_site_pbe_ddec_spin_density
 _atom_site_pbe_ddec_sum_bond_order
 _atom_site_pbe_magmom
Cu  Cu0  1  0.65861520  0.38451216  0.27250894  1  0.500613  0  0.350263  0.301726  0  2.858994  0
Cu  Cu1  1  0.65861999  0.11548684  0.22748602  1  0.500513  0  0.350264  0.301709  0  2.858983  0
Cu  Cu2  1  0.84138904  0.72748699  0.61548485  1  0.500672  0  0.350249  0.301713  0  2.85894  0
Cu  Cu3  1  0.84138783  0.77250913  0.88451370  1  0.500627  0  0.350284  0.301807  0  2.858916  0
Cu  Cu4  1  0.34143392  0.61548767  0.72748996  1  0.500655  0  0.350223  0.301836  0  2.858861  0
Cu  Cu5  1  0.34143056  0.88451300  0.77251386  1  0.500748  0  0.350223  0.301872  0  2.858879  0
Cu  Cu6  1  0.15856800  0.27250790  0.38451324  1  0.500672  0  0.350216  0.301879  0  2.858807  0
Cu  Cu7  1  0.15856561  0.22748626  0.11548642  1  0.500684  0  0.350225  0.301864  0  2.858839  0
Cu  Cu8  1  0.65962922  0.25251674  0.11973412  1  0.612456  0  0.483448  0.326167  0  2.783139  0
Cu  Cu9  1  0.65962581  0.24748080  0.38026497  1  0.612498  0  0.483432  0.32613  0  2.783194  0
Cu  Cu10  1  0.84036638  0.88026533  0.74748083  1  0.612606  0  0.483447  0.326162  0  2.783208  0
Cu  Cu11  1  0.84037194  0.61973623  0.75251958  1  0.612525  0  0.483432  0.326109  0  2.783206  0
Cu  Cu12  1  0.34040551  0.74747811  0.88025666  1  0.612337  0  0.483656  0.326299  0  2.783619  0
Cu  Cu13  1  0.34041108  0.75251859  0.61974359  1  0.612451  0  0.483638  0.326327  0  2.783642  0
Cu  Cu14  1  0.15959282  0.11974341  0.25252391  1  0.612235  0  0.483669  0.32631  0  2.783628  0
Cu  Cu15  1  0.15958942  0.38025519  0.24747551  1  0.612289  0  0.483651  0.326282  0  2.783695  0
H  H16  1  0.65924251  0.51180803  0.22395903  1  0.128646  0  0.102807  0.076416  0  1.048659  0
H  H17  1  0.65924003  0.98819259  0.27604407  1  0.128438  0  0.102815  0.07637  0  1.048651  0
H  H18  1  0.84076030  0.77604518  0.48819163  1  0.128465  0  0.102795  0.076307  0  1.048575  0
H  H19  1  0.84075920  0.72395755  0.01180950  1  0.128412  0  0.102813  0.076407  0  1.048641  0
H  H20  1  0.34080374  0.48818033  0.77601902  1  0.127945  0  0.102729  0.076332  0  1.048733  0
H  H21  1  0.34080621  0.01181773  0.72397747  1  0.127904  0  0.102707  0.076291  0  1.048711  0
H  H22  1  0.15919458  0.22397838  0.51181749  1  0.127922  0  0.102721  0.076287  0  1.048763  0
H  H23  1  0.15919857  0.27601856  0.98818162  1  0.127969  0  0.102715  0.076335  0  1.048708  0
H  H24  1  0.76082624  0.57280933  0.15416656  1  0.138058  0  0.111668  0.114384  0  1.031841  0
H  H25  1  0.76082449  0.92719187  0.34583621  1  0.138063  0  0.111651  0.114343  0  1.03182  0
H  H26  1  0.73917513  0.84583501  0.42719012  1  0.137931  0  0.11168  0.114361  0  1.031807  0
H  H27  1  0.73917401  0.65416615  0.07280971  1  0.137955  0  0.111674  0.114382  0  1.031747  0
H  H28  1  0.23922288  0.42717606  0.84580906  1  0.13912  0  0.111538  0.114307  0  1.032074  0
H  H29  1  0.23922678  0.07282142  0.65418679  1  0.139106  0  0.111565  0.114312  0  1.032073  0
H  H30  1  0.26077472  0.15418758  0.57282126  1  0.139235  0  0.111553  0.114308  0  1.032054  0
H  H31  1  0.26077728  0.34581043  0.92717760  1  0.139258  0  0.111558  0.114328  0  1.032047  0
H  H32  1  0.97097172  0.41608285  0.14619469  1  0.117796  0  0.101897  0.112707  0  1.038918  0
H  H33  1  0.97096946  0.08391840  0.35380474  1  0.11781  0  0.101922  0.112703  0  1.038953  0
H  H34  1  0.52903181  0.85380519  0.58391822  1  0.117817  0  0.101917  0.112728  0  1.038945  0
H  H35  1  0.52903117  0.64619561  0.91608137  1  0.11782  0  0.10192  0.112708  0  1.038981  0
H  H36  1  0.02909610  0.58392096  0.85381070  1  0.119196  0  0.101776  0.112505  0  1.039035  0
H  H37  1  0.02909621  0.91607892  0.64618743  1  0.119193  0  0.101782  0.112497  0  1.039048  0
H  H38  1  0.47090294  0.14618772  0.41607808  1  0.119161  0  0.101767  0.112474  0  1.039043  0
H  H39  1  0.47090645  0.35381213  0.08392077  1  0.11915  0  0.101754  0.112441  0  1.039061  0
H  H40  1  0.85858668  0.36030198  0.21301484  1  0.11209  0  0.107412  0.090868  0  1.003985  0
H  H41  1  0.85858369  0.13969918  0.28698595  1  0.112071  0  0.107412  0.090831  0  1.004011  0
H  H42  1  0.64141900  0.78698791  0.63969938  1  0.112089  0  0.107444  0.090864  0  1.004022  0
H  H43  1  0.64141766  0.71301496  0.86030111  1  0.112067  0  0.107439  0.090864  0  1.003944  0
H  H44  1  0.14148258  0.63970034  0.78698885  1  0.112076  0  0.107483  0.09079  0  1.004113  0
H  H45  1  0.14148197  0.86029914  0.71300930  1  0.11202  0  0.107483  0.0908  0  1.004087  0
H  H46  1  0.35851718  0.21301043  0.36029830  1  0.112055  0  0.107473  0.090781  0  1.004064  0
H  H47  1  0.35852140  0.28698933  0.13970095  1  0.112063  0  0.107469  0.090773  0  1.004074  0
H  H48  1  0.02101259  0.71304806  0.98932638  1  0.137684  0  0.095261  0.106241  0  1.077056  0
H  H49  1  0.02101302  0.78695183  0.51067369  1  0.137713  0  0.095279  0.106264  0  1.077014  0
H  H50  1  0.47898573  0.01067378  0.28695112  1  0.137703  0  0.095278  0.106296  0  1.077026  0
H  H51  1  0.47898533  0.48933003  0.21304936  1  0.137709  0  0.095278  0.106324  0  1.077033  0
H  H52  1  0.97904228  0.28694432  0.01066351  1  0.136805  0  0.095268  0.106384  0  1.0772  0
H  H53  1  0.97904545  0.21305595  0.48933527  1  0.13675  0  0.095309  0.106433  0  1.077116  0
H  H54  1  0.52095621  0.98933843  0.71305613  1  0.13678  0  0.095313  0.106455  0  1.077108  0
H  H55  1  0.52095589  0.51066384  0.78694370  1  0.136725  0  0.095313  0.106449  0  1.07716  0
H  H56  1  0.13715392  0.76900647  0.92785477  1  0.140191  0  0.105017  0.09241  0  1.019795  0
H  H57  1  0.13715579  0.73099451  0.57214604  1  0.140217  0  0.105019  0.092414  0  1.019841  0
H  H58  1  0.36284297  0.07214415  0.23099332  1  0.140223  0  0.105014  0.092394  0  1.019821  0
H  H59  1  0.36284543  0.42785660  0.26900610  1  0.140214  0  0.105016  0.09239  0  1.01983  0
H  H60  1  0.86290527  0.23099583  0.07214453  1  0.14147  0  0.104907  0.092386  0  1.019538  0
H  H61  1  0.86290916  0.26900631  0.42785399  1  0.141501  0  0.104843  0.092287  0  1.019552  0
H  H62  1  0.63709249  0.92785667  0.76900525  1  0.141589  0  0.104859  0.092366  0  1.019543  0
H  H63  1  0.63709363  0.57214372  0.73099337  1  0.141568  0  0.104866  0.092332  0  1.019562  0
H  H64  1  0.34659736  0.62609683  0.93745334  1  0.091427  0  0.110713  0.078602  0  1.034958  0
H  H65  1  0.34659799  0.87390382  0.56254756  1  0.091397  0  0.110716  0.078601  0  1.034889  0
H  H66  1  0.15340096  0.06254556  0.37390383  1  0.091408  0  0.110714  0.078645  0  1.034876  0
H  H67  1  0.15340251  0.43745156  0.12609631  1  0.0914  0  0.110713  0.078635  0  1.034904  0
H  H68  1  0.65344529  0.37388848  0.06251010  1  0.092855  0  0.110785  0.078784  0  1.03478  0
H  H69  1  0.65344609  0.12611499  0.43749142  1  0.092889  0  0.110802  0.078841  0  1.034751  0
H  H70  1  0.84655393  0.93749186  0.62611387  1  0.092901  0  0.110788  0.078793  0  1.034771  0
H  H71  1  0.84655310  0.56250872  0.87388687  1  0.09291  0  0.110792  0.078811  0  1.03479  0
H  H72  1  0.23901089  0.56367584  0.99960185  1  0.106316  0  0.104823  0.102849  0  1.06796  0
H  H73  1  0.23901225  0.93632471  0.50039751  1  0.106056  0  0.104821  0.102875  0  1.067952  0
H  H74  1  0.26098886  0.00039808  0.43632440  1  0.106318  0  0.10482  0.102838  0  1.067992  0
H  H75  1  0.26098681  0.49960061  0.06367461  1  0.106015  0  0.104805  0.102836  0  1.067959  0
H  H76  1  0.76104182  0.43630404  0.00036168  1  0.106273  0  0.104804  0.102883  0  1.067957  0
H  H77  1  0.76104334  0.06369803  0.49963871  1  0.106594  0  0.104793  0.102836  0  1.067963  0
H  H78  1  0.73895740  0.99963986  0.56369679  1  0.106276  0  0.104813  0.102899  0  1.067961  0
H  H79  1  0.73895585  0.50036062  0.93630289  1  0.106743  0  0.104811  0.102844  0  1.067967  0
H  H80  1  0.59394302  0.24455408  0.97672223  1  0.079246  0  0.112192  0.082095  0  0.98637  0
H  H81  1  0.59394270  0.25544569  0.52327714  1  0.079241  0  0.112187  0.082083  0  0.986393  0
H  H82  1  0.90605615  0.02327759  0.75544590  1  0.079233  0  0.112181  0.082083  0  0.986373  0
H  H83  1  0.90605433  0.47672144  0.74455211  1  0.079252  0  0.112255  0.082132  0  0.986421  0
H  H84  1  0.40606869  0.75544124  0.02326474  1  0.079931  0  0.112217  0.082077  0  0.986498  0
H  H85  1  0.40607117  0.74455817  0.47673506  1  0.079946  0  0.112233  0.082086  0  0.986486  0
H  H86  1  0.09393255  0.97673510  0.24455900  1  0.079915  0  0.112231  0.08212  0  0.986414  0
H  H87  1  0.09393221  0.52326307  0.25544234  1  0.079964  0  0.112237  0.082113  0  0.986476  0
H  H88  1  0.45492293  0.19222339  0.90891218  1  0.108406  0  0.111926  0.120835  0  0.995311  0
H  H89  1  0.45492207  0.30777477  0.59108587  1  0.10817  0  0.11191  0.120847  0  0.995323  0
H  H90  1  0.04507753  0.09108560  0.80777622  1  0.10824  0  0.111926  0.120855  0  0.995285  0
H  H91  1  0.04507554  0.40891173  0.69222142  1  0.108502  0  0.111923  0.120788  0  0.995304  0
H  H92  1  0.54507368  0.80779366  0.09108078  1  0.108129  0  0.111966  0.12085  0  0.995334  0
H  H93  1  0.54507814  0.69220537  0.40892051  1  0.108167  0  0.11196  0.12087  0  0.995387  0
H  H94  1  0.95492483  0.90892055  0.19220815  1  0.108294  0  0.111979  0.120888  0  0.995344  0
H  H95  1  0.95492539  0.59107834  0.30779437  1  0.108219  0  0.111976  0.120888  0  0.995256  0
H  H96  1  0.37281049  0.10257060  0.07578963  1  0.130905  0  0.108717  0.12706  0  1.011695  0
H  H97  1  0.37281097  0.39742965  0.42420874  1  0.130894  0  0.108673  0.126955  0  1.011749  0
H  H98  1  0.12718784  0.92420615  0.89742724  1  0.131124  0  0.108712  0.127011  0  1.011775  0
H  H99  1  0.12718880  0.57579185  0.60257163  1  0.130898  0  0.1087  0.127025  0  1.011792  0
H  H100  1  0.62715590  0.89746869  0.92421136  1  0.13089  0  0.108693  0.127087  0  1.01175  0
H  H101  1  0.62715543  0.60253073  0.57579148  1  0.130819  0  0.1087  0.127164  0  1.011699  0
H  H102  1  0.87284401  0.07579098  0.10253327  1  0.130912  0  0.108653  0.126978  0  1.01172  0
H  H103  1  0.87284521  0.42420923  0.39747029  1  0.13082  0  0.108669  0.127086  0  1.011729  0
H  H104  1  0.51010854  0.16111661  0.13802355  1  0.108274  0  0.095412  0.065243  0  1.064885  0
H  H105  1  0.51011027  0.33888427  0.36197696  1  0.108244  0  0.095409  0.065226  0  1.064948  0
H  H106  1  0.98988779  0.86197580  0.83888168  1  0.107978  0  0.095432  0.065272  0  1.064944  0
H  H107  1  0.98988964  0.63802340  0.66111650  1  0.10803  0  0.095398  0.065206  0  1.064997  0
H  H108  1  0.48987944  0.83890292  0.86197128  1  0.108082  0  0.095381  0.065098  0  1.065195  0
H  H109  1  0.48987914  0.66109786  0.63803023  1  0.108029  0  0.095362  0.065074  0  1.065208  0
H  H110  1  0.01012105  0.13802984  0.16109969  1  0.108044  0  0.095366  0.06513  0  1.065173  0
H  H111  1  0.01012207  0.36196916  0.33890359  1  0.10808  0  0.095341  0.065029  0  1.065272  0
W  W112  1  0.65717212  0.24999927  0.25000133  1  1.520758  0  0.830856  0.754929  0  5.778075  0
W  W113  1  0.84282492  0.75000226  0.75000045  1  1.520688  0  0.830905  0.754937  0  5.778127  0
W  W114  1  0.34287484  0.75000107  0.75000155  1  1.520512  0  0.831107  0.755416  0  5.778382  0
W  W115  1  0.15712277  0.24999905  0.24999821  1  1.520474  0  0.831103  0.755467  0  5.778279  0
C  C116  1  0.72848849  0.49222357  0.20476236  1  0.473913  0  0.044297  0.101388  0  3.910805  0
C  C117  1  0.72848603  0.00777799  0.29523987  1  0.474248  0  0.044277  0.101437  0  3.910804  0
C  C118  1  0.77151144  0.79524147  0.50777766  1  0.474346  0  0.044298  0.10153  0  3.910851  0
C  C119  1  0.77151172  0.70476102  0.99222383  1  0.474188  0  0.044253  0.101392  0  3.910977  0
C  C120  1  0.27156566  0.50776878  0.79522315  1  0.473299  0  0.044347  0.101443  0  3.911287  0
C  C121  1  0.27156597  0.99222982  0.70477444  1  0.474099  0  0.044386  0.101558  0  3.911165  0
C  C122  1  0.22843409  0.20477518  0.49223032  1  0.473712  0  0.044364  0.101556  0  3.911218  0
C  C123  1  0.22843741  0.29522348  0.00776964  1  0.473696  0  0.044314  0.101396  0  3.911379  0
C  C124  1  0.78596427  0.52642980  0.16675346  1  0.006715  0  -0.072832  -0.137133  0  3.911441  0
C  C125  1  0.78596258  0.97357241  0.33324900  1  0.00672  0  -0.072823  -0.137107  0  3.911475  0
C  C126  1  0.71403638  0.83324873  0.47357157  1  0.006663  0  -0.072886  -0.137231  0  3.911666  0
C  C127  1  0.71403664  0.66675340  0.02642840  1  0.006679  0  -0.07283  -0.137163  0  3.911572  0
C  C128  1  0.21408700  0.47356452  0.83323140  1  0.005967  0  -0.072745  -0.137009  0  3.91187  0
C  C129  1  0.21408870  0.02643542  0.66676726  1  0.005767  0  -0.072781  -0.136995  0  3.911839  0
C  C130  1  0.28591204  0.16676792  0.52643544  1  0.00558  0  -0.072775  -0.137014  0  3.911812  0
C  C131  1  0.28591393  0.33323160  0.97356515  1  0.005635  0  -0.072777  -0.137071  0  3.911885  0
C  C132  1  0.87530588  0.49970517  0.14464370  1  -0.064629  0  0.002677  0.034264  0  3.997777  0
C  C133  1  0.87530349  0.00029552  0.35535751  1  -0.064633  0  0.002723  0.034287  0  3.997783  0
C  C134  1  0.62469693  0.85535780  0.50029445  1  -0.064623  0  0.002738  0.034391  0  3.997718  0
C  C135  1  0.62469641  0.64464406  0.99970489  1  -0.064616  0  0.002657  0.034284  0  3.997887  0
C  C136  1  0.12475475  0.50028917  0.85534652  1  -0.06319  0  0.002841  0.034066  0  3.998064  0
C  C137  1  0.12475426  0.99971129  0.64465323  1  -0.063618  0  0.002887  0.034065  0  3.99798  0
C  C138  1  0.37524573  0.14465390  0.49971028  1  -0.063456  0  0.002914  0.034043  0  3.997983  0
C  C139  1  0.37524625  0.35534686  0.00028963  1  -0.063471  0  0.00288  0.03411  0  3.997865  0
C  C140  1  0.90249253  0.43904420  0.16199888  1  0.02097  0  -0.081261  -0.152878  0  3.948136  0
C  C141  1  0.90249021  0.06095700  0.33800195  1  0.021608  0  -0.081281  -0.152839  0  3.948048  0
C  C142  1  0.59750956  0.83800217  0.56095747  1  0.021637  0  -0.081319  -0.152973  0  3.947989  0
C  C143  1  0.59750970  0.66199869  0.93904315  1  0.021018  0  -0.08131  -0.152903  0  3.948089  0
C  C144  1  0.09757385  0.56095859  0.83800051  1  0.018866  0  -0.081093  -0.152323  0  3.947547  0
C  C145  1  0.09757330  0.93904135  0.66199865  1  0.019144  0  -0.08109  -0.152283  0  3.947479  0
C  C146  1  0.40242662  0.16199863  0.43904013  1  0.019134  0  -0.081075  -0.152227  0  3.947602  0
C  C147  1  0.40242936  0.33800116  0.06095965  1  0.019555  0  -0.081062  -0.152226  0  3.947483  0
C  C148  1  0.83995849  0.40780823  0.19936654  1  0.450292  0  0.041982  0.094658  0  3.918451  0
C  C149  1  0.83995688  0.09219243  0.30063465  1  0.449656  0  0.04194  0.094641  0  3.918344  0
C  C150  1  0.66004504  0.80063542  0.59219424  1  0.449638  0  0.041967  0.094675  0  3.918356  0
C  C151  1  0.66004447  0.69936697  0.90780716  1  0.450274  0  0.04198  0.094734  0  3.918301  0
C  C152  1  0.16010358  0.59219603  0.80063260  1  0.45075  0  0.041955  0.094752  0  3.918051  0
C  C153  1  0.16010374  0.90780297  0.69936547  1  0.450804  0  0.041957  0.094734  0  3.918019  0
C  C154  1  0.33989690  0.19936587  0.40780296  1  0.450721  0  0.041959  0.094774  0  3.91801  0
C  C155  1  0.33990035  0.30063338  0.09219717  1  0.450243  0  0.041994  0.094773  0  3.918039  0
C  C156  1  0.93838516  0.53395439  0.10425359  1  0.948041  0  0.243425  0.240057  0  3.982179  0
C  C157  1  0.93838427  0.96604792  0.39574705  1  0.948039  0  0.243391  0.240004  0  3.982062  0
C  C158  1  0.56161477  0.89574774  0.46604854  1  0.94816  0  0.243361  0.239941  0  3.982345  0
C  C159  1  0.56161424  0.60425328  0.03395260  1  0.948055  0  0.243379  0.239868  0  3.982352  0
C  C160  1  0.06166180  0.46603793  0.89572754  1  0.947957  0  0.24327  0.239725  0  3.982876  0
C  C161  1  0.06166269  0.03396387  0.60427278  1  0.947923  0  0.243268  0.239716  0  3.983002  0
C  C162  1  0.43833868  0.10427387  0.53396414  1  0.948009  0  0.243229  0.239668  0  3.982832  0
C  C163  1  0.43833849  0.39572725  0.96603632  1  0.947981  0  0.243245  0.239694  0  3.982796  0
C  C164  1  0.05292370  0.59644236  0.03649024  1  0.933715  0  0.241962  0.238869  0  3.981399  0
C  C165  1  0.05292352  0.90355775  0.46351041  1  0.933677  0  0.241924  0.238863  0  3.981138  0
C  C166  1  0.44707537  0.96351135  0.40355826  1  0.933654  0  0.241915  0.238881  0  3.981356  0
C  C167  1  0.44707482  0.53649055  0.09644198  1  0.933419  0  0.241929  0.238879  0  3.981295  0
C  C168  1  0.94712254  0.40354598  0.96348488  1  0.942068  0  0.241943  0.239365  0  3.980578  0
C  C169  1  0.94712487  0.09645555  0.53651356  1  0.941967  0  0.242006  0.239486  0  3.980325  0
C  C170  1  0.55287592  0.03651569  0.59645580  1  0.942152  0  0.241946  0.239316  0  3.980612  0
C  C171  1  0.55287431  0.46348503  0.90354370  1  0.942074  0  0.241956  0.239329  0  3.98054  0
C  C172  1  0.11963771  0.63265081  0.00039773  1  -0.031524  0  0.005076  0.043305  0  3.982543  0
C  C173  1  0.11963897  0.86734934  0.49960200  1  -0.031536  0  0.005074  0.043319  0  3.982532  0
C  C174  1  0.38036065  0.99960216  0.36735010  1  -0.031616  0  0.005112  0.043388  0  3.982504  0
C  C175  1  0.38035938  0.50040018  0.13264919  1  -0.031589  0  0.0051  0.043425  0  3.982507  0
C  C176  1  0.88041788  0.36734001  0.99958023  1  -0.031622  0  0.00493  0.042682  0  3.983302  0
C  C177  1  0.88042094  0.13266147  0.50041864  1  -0.031574  0  0.004907  0.042634  0  3.983231  0
C  C178  1  0.61958057  0.00041993  0.63266023  1  -0.031727  0  0.004957  0.042845  0  3.983293  0
C  C179  1  0.61957825  0.49958134  0.86733892  1  -0.031631  0  0.004944  0.042751  0  3.983217  0
C  C180  1  0.09210363  0.69133630  0.97933822  1  0.049733  0  -0.075164  -0.132207  0  3.907447  0
C  C181  1  0.09210555  0.80866414  0.52066199  1  0.049722  0  -0.075198  -0.13219  0  3.907447  0
C  C182  1  0.40789397  0.02066118  0.30866404  1  0.04979  0  -0.075183  -0.132302  0  3.907496  0
C  C183  1  0.40789280  0.47934109  0.19133614  1  0.049933  0  -0.075168  -0.132365  0  3.907536  0
C  C184  1  0.90795340  0.30865507  0.02064956  1  0.049111  0  -0.07508  -0.132255  0  3.907456  0
C  C185  1  0.90795508  0.19134562  0.47934827  1  0.048925  0  -0.07513  -0.132368  0  3.907365  0
C  C186  1  0.59204653  0.97935104  0.69134516  1  0.049161  0  -0.075159  -0.132483  0  3.907531  0
C  C187  1  0.59204339  0.52065031  0.80865457  1  0.04908  0  -0.075145  -0.132418  0  3.907468  0
C  C188  1  0.15753150  0.72331654  0.94462035  1  0.404939  0  0.044932  0.101336  0  3.890488  0
C  C189  1  0.15753197  0.77668346  0.55538080  1  0.404973  0  0.044939  0.101251  0  3.890544  0
C  C190  1  0.34246683  0.05537902  0.27668304  1  0.404943  0  0.044972  0.101372  0  3.890519  0
C  C191  1  0.34246781  0.44462171  0.22331734  1  0.404838  0  0.04493  0.101379  0  3.890444  0
C  C192  1  0.84251546  0.27668422  0.05537043  1  0.40438  0  0.045215  0.101772  0  3.890436  0
C  C193  1  0.84251858  0.22331791  0.44462857  1  0.404701  0  0.045317  0.101967  0  3.890285  0
C  C194  1  0.65748159  0.94463018  0.72331691  1  0.404285  0  0.045256  0.101874  0  3.890491  0
C  C195  1  0.65748277  0.55537072  0.77668278  1  0.404382  0  0.045278  0.101906  0  3.890325  0
C  C196  1  0.27389504  0.64370244  0.95005484  1  0.495577  0  0.03467  0.081423  0  3.93865  0
C  C197  1  0.27389635  0.85629816  0.54994552  1  0.495598  0  0.034718  0.081511  0  3.938617  0
C  C198  1  0.22610400  0.04994466  0.35629807  1  0.495602  0  0.034623  0.081279  0  3.938639  0
C  C199  1  0.22610415  0.45005449  0.14370099  1  0.495554  0  0.034596  0.081262  0  3.938628  0
C  C200  1  0.72614689  0.35628394  0.04992240  1  0.495094  0  0.034442  0.080946  0  3.938072  0
C  C201  1  0.72614845  0.14371909  0.45007861  1  0.49527  0  0.034356  0.08074  0  3.93835  0
C  C202  1  0.77385161  0.95007894  0.64371688  1  0.495213  0  0.034425  0.080988  0  3.938121  0
C  C203  1  0.77385073  0.54992206  0.85628291  1  0.495229  0  0.034381  0.080871  0  3.938287  0
C  C204  1  0.21313484  0.60890162  0.98505704  1  -0.014246  0  -0.082473  -0.152056  0  3.95507  0
C  C205  1  0.21313471  0.89109744  0.51494254  1  -0.014272  0  -0.082508  -0.152227  0  3.955242  0
C  C206  1  0.28686492  0.01494193  0.39109794  1  -0.014274  0  -0.082489  -0.15208  0  3.955092  0
C  C207  1  0.28686364  0.48505777  0.10890174  1  -0.014227  0  -0.082504  -0.152119  0  3.955106  0
C  C208  1  0.78691428  0.39109114  0.01491492  1  -0.014978  0  -0.08234  -0.151643  0  3.9544  0
C  C209  1  0.78691585  0.10891046  0.48508590  1  -0.014942  0  -0.082306  -0.151492  0  3.954286  0
C  C210  1  0.71308421  0.98508655  0.60890906  1  -0.014924  0  -0.082319  -0.151685  0  3.954408  0
C  C211  1  0.71308334  0.51491489  0.89109076  1  -0.015059  0  -0.082316  -0.1516  0  3.954327  0
C  C212  1  0.54217503  0.21340757  0.99696152  1  0.440456  0  0.037099  0.080847  0  3.962099  0
C  C213  1  0.54217544  0.28659166  0.50303822  1  0.440422  0  0.037087  0.080846  0  3.962146  0
C  C214  1  0.95782486  0.00303809  0.78659168  1  0.440593  0  0.037072  0.080844  0  3.962269  0
C  C215  1  0.95782375  0.49696049  0.71340579  1  0.440381  0  0.036966  0.080727  0  3.962273  0
C  C216  1  0.45783597  0.78660356  0.00303048  1  0.440392  0  0.037052  0.080895  0  3.962466  0
C  C217  1  0.45783771  0.71339539  0.49696929  1  0.440442  0  0.03703  0.080936  0  3.962516  0
C  C218  1  0.04216383  0.99696907  0.21339674  1  0.440357  0  0.037032  0.080896  0  3.962462  0
C  C219  1  0.04216495  0.50302906  0.28660456  1  0.440399  0  0.0371  0.08098  0  3.96246  0
C  C220  1  0.46555882  0.18443386  0.95949115  1  -0.023754  0  -0.07648  -0.149944  0  3.939328  0
C  C221  1  0.46555789  0.31556482  0.54050796  1  -0.023509  0  -0.076481  -0.149985  0  3.939485  0
C  C222  1  0.03444020  0.04050579  0.81556564  1  -0.023729  0  -0.076483  -0.150016  0  3.939521  0
C  C223  1  0.03443755  0.45949203  0.68443304  1  -0.025397  0  -0.07642  -0.14979  0  3.939389  0
C  C224  1  0.53443779  0.81558222  0.04050409  1  -0.024927  0  -0.076657  -0.149998  0  3.939332  0
C  C225  1  0.53444015  0.68441680  0.45949671  1  -0.024927  0  -0.076582  -0.14997  0  3.939381  0
C  C226  1  0.96556216  0.95949790  0.18441881  1  -0.025068  0  -0.076649  -0.15007  0  3.939576  0
C  C227  1  0.96556337  0.54050149  0.31558331  1  -0.024897  0  -0.076632  -0.150051  0  3.939376  0
C  C228  1  0.40249319  0.14380475  0.98776198  1  0.039215  0  0.01683  0.07089  0  3.95392  0
C  C229  1  0.40249228  0.35619337  0.51223651  1  0.039447  0  0.01693  0.071004  0  3.953923  0
C  C230  1  0.09750583  0.01223515  0.85619357  1  0.039381  0  0.01688  0.071053  0  3.953967  0
C  C231  1  0.09750532  0.48776272  0.64380468  1  0.040624  0  0.016827  0.070903  0  3.953968  0
C  C232  1  0.59749191  0.85621725  0.01223423  1  0.042162  0  0.017104  0.070888  0  3.95383  0
C  C233  1  0.59749425  0.64378134  0.48776849  1  0.04184  0  0.017052  0.070801  0  3.953833  0
C  C234  1  0.90250804  0.98776800  0.14378447  1  0.042157  0  0.017094  0.07092  0  3.953807  0
C  C235  1  0.90250783  0.51223134  0.35621809  1  0.041838  0  0.017057  0.070867  0  3.95371  0
C  C236  1  0.41926056  0.13456928  0.05267600  1  -0.041961  0  -0.068882  -0.126116  0  3.894306  0
C  C237  1  0.41926174  0.36543003  0.44732273  1  -0.041795  0  -0.068867  -0.126039  0  3.894292  0
C  C238  1  0.08073706  0.94732090  0.86542811  1  -0.042052  0  -0.06889  -0.126112  0  3.894495  0
C  C239  1  0.08073875  0.55267705  0.63456974  1  -0.041745  0  -0.068868  -0.126086  0  3.894473  0
C  C240  1  0.58072382  0.86546310  0.94732239  1  -0.043283  0  -0.068973  -0.126067  0  3.894002  0
C  C241  1  0.58072552  0.63453628  0.55267895  1  -0.044247  0  -0.069021  -0.126171  0  3.894029  0
C  C242  1  0.91927753  0.05267873  0.13453963  1  -0.044151  0  -0.069016  -0.126032  0  3.893962  0
C  C243  1  0.91927656  0.44732004  0.36546471  1  -0.044232  0  -0.068968  -0.126059  0  3.893844  0
C  C244  1  0.49608681  0.16674564  0.08712916  1  0.526046  0  0.040846  0.106944  0  3.922563  0
C  C245  1  0.49608861  0.33325423  0.41287021  1  0.526104  0  0.040856  0.106965  0  3.922688  0
C  C246  1  0.00391081  0.91286740  0.83325248  1  0.526378  0  0.040823  0.106924  0  3.922579  0
C  C247  1  0.00391044  0.58712999  0.66674571  1  0.526234  0  0.040901  0.107015  0  3.922622  0
C  C248  1  0.50390117  0.83327487  0.91286583  1  0.525788  0  0.040876  0.107145  0  3.922207  0
C  C249  1  0.50390152  0.66672542  0.58713560  1  0.526777  0  0.040926  0.1072  0  3.922181  0
C  C250  1  0.99610091  0.08713675  0.16672718  1  0.526556  0  0.040946  0.107113  0  3.922226  0
C  C251  1  0.99609984  0.41286258  0.33327583  1  0.526268  0  0.040912  0.107162  0  3.922189  0
C  C252  1  0.32096330  0.11008618  0.95121821  1  0.994419  0  0.242606  0.241061  0  4.006862  0
C  C253  1  0.32096250  0.38991188  0.54878119  1  0.993742  0  0.242553  0.241019  0  4.006801  0
C  C254  1  0.17903643  0.04877980  0.88991288  1  0.994098  0  0.242551  0.240914  0  4.00688  0
C  C255  1  0.17903582  0.45121814  0.61008640  1  0.994435  0  0.242559  0.240989  0  4.006864  0
C  C256  1  0.67902755  0.88993480  0.04877199  1  0.993731  0  0.242502  0.241091  0  4.006739  0
C  C257  1  0.67902907  0.61006436  0.45123088  1  0.994217  0  0.242523  0.241303  0  4.006427  0
C  C258  1  0.82097312  0.95123076  0.11006783  1  0.993841  0  0.242505  0.241093  0  4.006677  0
C  C259  1  0.82097373  0.54876900  0.38993475  1  0.994124  0  0.242498  0.241176  0  4.006579  0
S  S260  1  0.56499062  0.31580743  0.19882801  1  -0.682052  0  -0.411794  -0.450814  0  2.813325  0
S  S261  1  0.56499131  0.18419102  0.30117068  1  -0.682006  0  -0.411782  -0.450787  0  2.813434  0
S  S262  1  0.93500715  0.80117194  0.68419203  1  -0.68208  0  -0.41177  -0.450759  0  2.813373  0
S  S263  1  0.93500932  0.69882919  0.81580789  1  -0.682037  0  -0.411812  -0.450852  0  2.813454  0
S  S264  1  0.43506066  0.68419338  0.80117007  1  -0.682049  0  -0.41183  -0.45112  0  2.813847  0
S  S265  1  0.43506068  0.81580884  0.69883212  1  -0.682162  0  -0.41183  -0.451147  0  2.813759  0
S  S266  1  0.06493911  0.19883085  0.31580735  1  -0.682059  0  -0.411835  -0.451146  0  2.813837  0
S  S267  1  0.06493837  0.30116768  0.18419102  1  -0.682133  0  -0.411844  -0.451159  0  2.813895  0
S  S268  1  0.74886820  0.31472096  0.32443054  1  -0.676062  0  -0.404408  -0.439397  0  2.807509  0
S  S269  1  0.74887087  0.18527962  0.17556911  1  -0.676149  0  -0.404421  -0.439457  0  2.807617  0
S  S270  1  0.75113100  0.67556964  0.68527838  1  -0.67609  0  -0.404428  -0.439428  0  2.807499  0
S  S271  1  0.75113121  0.82443085  0.81472180  1  -0.676136  0  -0.404463  -0.439483  0  2.807574  0
S  S272  1  0.25117229  0.68528089  0.67557648  1  -0.67595  0  -0.404555  -0.43957  0  2.807351  0
S  S273  1  0.25117105  0.81471969  0.82442484  1  -0.676035  0  -0.404517  -0.439506  0  2.807496  0
S  S274  1  0.24882676  0.32442426  0.31471955  1  -0.675883  0  -0.404533  -0.439594  0  2.807267  0
S  S275  1  0.24882800  0.17557541  0.18528010  1  -0.675998  0  -0.404514  -0.439537  0  2.807378  0
I  I276  1  0.55807891  0.47708350  0.34146380  1  -0.537509  0  -0.295922  -0.460002  0  1.390235  0
I  I277  1  0.55807699  0.02291593  0.15853650  1  -0.537469  0  -0.295925  -0.459987  0  1.39023  0
I  I278  1  0.94192318  0.65853395  0.52291509  1  -0.537519  0  -0.29593  -0.460003  0  1.390315  0
I  I279  1  0.94192437  0.84146620  0.97708370  1  -0.537489  0  -0.295928  -0.460019  0  1.390217  0
I  I280  1  0.44193784  0.52290441  0.65852195  1  -0.537517  0  -0.295845  -0.459952  0  1.390362  0
I  I281  1  0.44193760  0.97709828  0.84147594  1  -0.537562  0  -0.295849  -0.459972  0  1.390413  0
I  I282  1  0.05806192  0.34147583  0.47709761  1  -0.537547  0  -0.295831  -0.459937  0  1.390339  0
I  I283  1  0.05806073  0.15852417  0.02290149  1  -0.537493  0  -0.295842  -0.459943  0  1.390396  0
N  N284  1  0.75413507  0.43369623  0.22079974  1  -1.208667  0  -0.343674  -0.191389  0  3.590664  0
N  N285  1  0.75413124  0.06630387  0.27920179  1  -1.208774  0  -0.343615  -0.191316  0  3.590532  0
N  N286  1  0.74586989  0.77920268  0.56630361  1  -1.208927  0  -0.343606  -0.191294  0  3.59053  0
N  N287  1  0.74586795  0.72079978  0.93369640  1  -1.208811  0  -0.343634  -0.191406  0  3.590675  0
N  N288  1  0.24592339  0.56629815  0.77919535  1  -1.209517  0  -0.3438  -0.191721  0  3.591024  0
N  N289  1  0.24592363  0.93370142  0.72080336  1  -1.209909  0  -0.343829  -0.191826  0  3.590952  0
N  N290  1  0.25407637  0.22080409  0.43370178  1  -1.209483  0  -0.343806  -0.191787  0  3.590953  0
N  N291  1  0.25408046  0.27919510  0.06629926  1  -1.209454  0  -0.343793  -0.191695  0  3.591023  0
N  N292  1  0.90575974  0.59005979  0.08509606  1  -0.558791  0  -0.137567  -0.125116  0  3.198145  0
N  N293  1  0.90575950  0.90994102  0.41490431  1  -0.558969  0  -0.137547  -0.125056  0  3.198128  0
N  N294  1  0.59424092  0.91490541  0.40994247  1  -0.558825  0  -0.137468  -0.125  0  3.19805  0
N  N295  1  0.59423972  0.58509613  0.09005878  1  -0.558715  0  -0.1375  -0.124974  0  3.19804  0
N  N296  1  0.09429154  0.40993152  0.91488198  1  -0.560432  0  -0.137221  -0.124479  0  3.198081  0
N  N297  1  0.09429321  0.09006881  0.58511666  1  -0.560473  0  -0.137302  -0.124609  0  3.19822  0
N  N298  1  0.40570749  0.08511816  0.59006859  1  -0.560537  0  -0.13728  -0.124561  0  3.19815  0
N  N299  1  0.40570870  0.41488046  0.90992998  1  -0.56052  0  -0.137275  -0.124557  0  3.198209  0
N  N300  1  0.96376350  0.62188428  0.05103087  1  -0.514499  0  -0.138343  -0.120097  0  3.185272  0
N  N301  1  0.96376183  0.87811708  0.44897109  1  -0.514259  0  -0.138285  -0.120086  0  3.185205  0
N  N302  1  0.53623572  0.94897227  0.37811804  1  -0.514454  0  -0.138348  -0.120126  0  3.18527  0
N  N303  1  0.53623379  0.55103070  0.12188292  1  -0.514442  0  -0.138323  -0.120093  0  3.185233  0
N  N304  1  0.03628346  0.37810653  0.94894563  1  -0.513107  0  -0.138559  -0.120676  0  3.18485  0
N  N305  1  0.03628729  0.12189375  0.55105248  1  -0.513163  0  -0.138514  -0.120573  0  3.184788  0
N  N306  1  0.46371557  0.05105476  0.62189407  1  -0.513242  0  -0.138499  -0.120557  0  3.184931  0
N  N307  1  0.46371462  0.44894391  0.87810553  1  -0.513268  0  -0.13849  -0.120514  0  3.184982  0
N  N308  1  0.08281355  0.53800922  0.05141193  1  -0.581337  0  -0.151999  -0.144171  0  3.242364  0
N  N309  1  0.08281416  0.96199089  0.44858681  1  -0.58126  0  -0.15195  -0.144078  0  3.24231  0
N  N310  1  0.41718624  0.94858850  0.46199211  1  -0.581272  0  -0.151958  -0.144119  0  3.242236  0
N  N311  1  0.41718707  0.55141190  0.03800738  1  -0.581042  0  -0.151971  -0.144194  0  3.242273  0
N  N312  1  0.91722190  0.46196667  0.94854316  1  -0.590027  0  -0.151976  -0.1442  0  3.241842  0
N  N313  1  0.91722273  0.03803435  0.55145469  1  -0.589652  0  -0.152003  -0.144342  0  3.24152  0
N  N314  1  0.58277800  0.05145637  0.53803314  1  -0.58997  0  -0.151974  -0.144254  0  3.241778  0
N  N315  1  0.58277861  0.44854289  0.96196468  1  -0.589939  0  -0.151968  -0.144222  0  3.241505  0
N  N316  1  0.02488315  0.50642910  0.08599684  1  -0.570304  0  -0.150823  -0.147329  0  3.24952  0
N  N317  1  0.02488232  0.99357246  0.41400452  1  -0.570381  0  -0.150917  -0.147468  0  3.249627  0
N  N318  1  0.47511735  0.91400528  0.49357336  1  -0.570401  0  -0.150893  -0.147418  0  3.249674  0
N  N319  1  0.47511819  0.58599566  0.00642625  1  -0.570436  0  -0.150818  -0.147274  0  3.249663  0
N  N320  1  0.97515230  0.49355125  0.91396141  1  -0.569345  0  -0.150773  -0.1473  0  3.249914  0
N  N321  1  0.97515385  0.00645032  0.58603851  1  -0.569537  0  -0.150772  -0.147211  0  3.249723  0
N  N322  1  0.52484832  0.08604007  0.50645051  1  -0.5693  0  -0.150808  -0.147256  0  3.24992  0
N  N323  1  0.52484893  0.41395965  0.99354979  1  -0.569293  0  -0.150782  -0.147294  0  3.249686  0
N  N324  1  0.24734786  0.70031319  0.92967868  1  -1.217708  0  -0.357842  -0.199989  0  3.635351  0
N  N325  1  0.24735055  0.79968788  0.57032223  1  -1.21779  0  -0.35783  -0.199924  0  3.635316  0
N  N326  1  0.25264974  0.07032076  0.29968710  1  -1.217705  0  -0.357852  -0.199935  0  3.635365  0
N  N327  1  0.25265066  0.42967892  0.20031353  1  -1.217664  0  -0.35779  -0.199885  0  3.635224  0
N  N328  1  0.75270701  0.29967717  0.07030505  1  -1.217123  0  -0.357862  -0.200242  0  3.636122  0
N  N329  1  0.75271008  0.20032488  0.42969436  1  -1.217595  0  -0.357851  -0.200243  0  3.636199  0
N  N330  1  0.74729076  0.92969542  0.70032324  1  -1.217339  0  -0.357872  -0.200331  0  3.636357  0
N  N331  1  0.74729127  0.57030507  0.79967596  1  -1.217412  0  -0.357853  -0.200245  0  3.636269  0
N  N332  1  0.55731745  0.20538759  0.06001719  1  -1.230044  0  -0.359234  -0.202561  0  3.628091  0
N  N333  1  0.55731780  0.29461283  0.43998280  1  -1.230007  0  -0.359249  -0.202579  0  3.628087  0
N  N334  1  0.94267959  0.93998244  0.79461030  1  -1.23017  0  -0.359245  -0.202594  0  3.627928  0
N  N335  1  0.94267996  0.56001722  0.70538792  1  -1.230028  0  -0.359253  -0.202579  0  3.62796  0
N  N336  1  0.44268275  0.79462009  0.93997521  1  -1.230325  0  -0.359275  -0.202831  0  3.628428  0
N  N337  1  0.44268456  0.70537916  0.56002504  1  -1.230331  0  -0.359311  -0.20292  0  3.628515  0
N  N338  1  0.05731773  0.06002523  0.20538064  1  -1.230202  0  -0.359282  -0.202827  0  3.628307  0
N  N339  1  0.05731809  0.43997380  0.29462170  1  -1.229996  0  -0.359307  -0.202878  0  3.628407  0
N  N340  1  0.28562959  0.13407329  0.89902016  1  -0.582206  0  -0.162272  -0.156687  0  3.232296  0
N  N341  1  0.28562955  0.36592622  0.60097994  1  -0.57177  0  -0.16229  -0.156704  0  3.232508  0
N  N342  1  0.21436512  0.10097918  0.86592730  1  -0.567036  0  -0.162206  -0.156547  0  3.232288  0
N  N343  1  0.21436949  0.39901929  0.63407356  1  -0.577533  0  -0.16223  -0.15661  0  3.232438  0
N  N344  1  0.71436486  0.86594373  0.10096794  1  -0.582101  0  -0.162205  -0.156642  0  3.23221  0
N  N345  1  0.71436418  0.63405446  0.39903334  1  -0.581486  0  -0.162167  -0.156676  0  3.232162  0
N  N346  1  0.78563581  0.89903437  0.13405828  1  -0.566246  0  -0.162103  -0.156496  0  3.232109  0
N  N347  1  0.78563719  0.60096536  0.36594378  1  -0.566668  0  -0.162067  -0.15647  0  3.232104  0
N  N348  1  0.28715526  0.05614770  0.97388951  1  -0.540681  0  -0.142539  -0.122116  0  3.237883  0
N  N349  1  0.28715523  0.44385083  0.52611043  1  -0.528018  0  -0.142484  -0.122052  0  3.237889  0
N  N350  1  0.21284375  0.02610983  0.94385284  1  -0.516315  0  -0.142537  -0.122133  0  3.23795  0
N  N351  1  0.21284238  0.47388815  0.55614696  1  -0.528731  0  -0.14253  -0.122163  0  3.238064  0
N  N352  1  0.71283775  0.94387229  0.02610004  1  -0.539821  0  -0.142606  -0.122241  0  3.237851  0
N  N353  1  0.71284066  0.55612689  0.47390285  1  -0.540169  0  -0.142621  -0.122323  0  3.237871  0
N  N354  1  0.78716220  0.97390223  0.05612958  1  -0.51659  0  -0.142592  -0.12225  0  3.237852  0
N  N355  1  0.78716142  0.52609651  0.44387135  1  -0.516557  0  -0.142655  -0.1224  0  3.238063  0
