# generated using pymatgen
data_CdP4H16C10(NO7)2
_symmetry_space_group_name_H-M   'P 1'
_cell_length_a   8.52229077
_cell_length_b   9.34107271
_cell_length_c   11.80107560
_cell_angle_alpha   96.64023313
_cell_angle_beta   90.00007551
_cell_angle_gamma   90.00008196
_symmetry_Int_Tables_number   1
_chemical_formula_structural   CdP4H16C10(NO7)2
_chemical_formula_sum   'Cd2 P8 H32 C20 N4 O28'
_cell_volume   933.15018812
_cell_formula_units_Z   2
loop_
 _symmetry_equiv_pos_site_id
 _symmetry_equiv_pos_as_xyz
  1  'x, y, z'
loop_
 _atom_site_type_symbol
 _atom_site_label
 _atom_site_symmetry_multiplicity
 _atom_site_fract_x
 _atom_site_fract_y
 _atom_site_fract_z
 _atom_site_occupancy
 _atom_site_hle17_bader_spin_density
 _atom_site_hle17_ddec_charge
 _atom_site_hle17_ddec_spin_density
 _atom_site_hle17_ddec_sum_bond_order
 _atom_site_hle17_magmom
 _atom_site_hse06_10hf_bader_spin_density
 _atom_site_hse06_10hf_ddec_charge
 _atom_site_hse06_10hf_ddec_spin_density
 _atom_site_hse06_10hf_ddec_sum_bond_order
 _atom_site_hse06_10hf_magmom
 _atom_site_hse06_bader_spin_density
 _atom_site_hse06_ddec_charge
 _atom_site_hse06_ddec_spin_density
 _atom_site_hse06_ddec_sum_bond_order
 _atom_site_hse06_magmom
 _atom_site_pbe_bader_spin_density
 _atom_site_pbe_cm5_charge
 _atom_site_pbe_ddec_charge
 _atom_site_pbe_ddec_spin_density
 _atom_site_pbe_ddec_sum_bond_order
 _atom_site_pbe_magmom
Cd  Cd0  1  0.00000169  0.99999983  0.99999881  1  0  1.418727  0  1.589707  0  0  1.266673  0  2.051755  0  0  1.312983  0  1.991447  0  0  0.81355  1.232863  0  2.093724  0
Cd  Cd1  1  0.50000256  0.50000083  0.50000142  1  0  1.418739  0  1.589704  0  0  1.26668  0  2.051747  0  0  1.312991  0  1.991439  0  0  0.81356  1.232871  0  2.093714  0
P  P2  1  0.08986041  0.75650955  0.19163200  1  0  1.463951  0  4.861368  0  0  1.296148  0  5.366669  0  0  1.347661  0  5.328228  0  0  0.361529  1.260483  0  5.39205  0
P  P3  1  0.58986105  0.74349000  0.30836835  1  0  1.463987  0  4.861283  0  0  1.296186  0  5.366582  0  0  1.347697  0  5.328142  0  0  0.361557  1.260522  0  5.391963  0
P  P4  1  0.91013885  0.24349101  0.80836650  1  0  1.46405  0  4.861224  0  0  1.296277  0  5.366534  0  0  1.347795  0  5.328084  0  0  0.361589  1.260606  0  5.391906  0
P  P5  1  0.41013821  0.25650842  0.69163335  1  0  1.463976  0  4.861339  0  0  1.296155  0  5.366659  0  0  1.347668  0  5.328217  0  0  0.361545  1.260487  0  5.392027  0
P  P6  1  0.48559286  0.27767874  0.22126360  1  0  1.464661  0  4.880364  0  0  1.298225  0  5.385963  0  0  1.349886  0  5.347247  0  0  0.358106  1.262145  0  5.412189  0
P  P7  1  0.98559341  0.22232171  0.27873655  1  0  1.464658  0  4.880275  0  0  1.298244  0  5.385854  0  0  1.349906  0  5.347139  0  0  0.358119  1.262165  0  5.412077  0
P  P8  1  0.51440522  0.72232183  0.77873744  1  0  1.464807  0  4.880288  0  0  1.298349  0  5.385889  0  0  1.350014  0  5.347168  0  0  0.358174  1.262271  0  5.41211  0
P  P9  1  0.01440467  0.77767778  0.72126270  1  0  1.464778  0  4.880248  0  0  1.298336  0  5.385841  0  0  1.35  0  5.347114  0  0  0.358149  1.262258  0  5.41206  0
H  H10  1  0.27161941  0.41795136  0.87165027  1  0  0.320028  0  0.918428  0  0  0.293886  0  0.983864  0  0  0.303866  0  0.976558  0  0  0.314124  0.286723  0  0.989279  0
H  H11  1  0.77162064  0.08205002  0.62834962  1  0  0.320015  0  0.918436  0  0  0.293891  0  0.983853  0  0  0.303872  0  0.976546  0  0  0.314108  0.286726  0  0.989271  0
H  H12  1  0.72837985  0.58204813  0.12834899  1  0  0.320066  0  0.918379  0  0  0.293929  0  0.983817  0  0  0.303907  0  0.976512  0  0  0.314128  0.286764  0  0.989236  0
H  H13  1  0.22837979  0.91795163  0.37165067  1  0  0.320046  0  0.9184  0  0  0.293903  0  0.983849  0  0  0.303882  0  0.976544  0  0  0.31412  0.286738  0  0.989268  0
H  H14  1  0.12544650  0.62380614  0.95228327  1  0  0.114952  0  0.927606  0  0  0.120643  0  0.993639  0  0  0.124346  0  0.989992  0  0  0.135893  0.117824  0  0.996481  0
H  H15  1  0.62544922  0.87619362  0.54771615  1  0  0.114975  0  0.92764  0  0  0.120696  0  0.993624  0  0  0.124399  0  0.989977  0  0  0.135895  0.117877  0  0.996467  0
H  H16  1  0.87455276  0.37619335  0.04771768  1  0  0.114997  0  0.927583  0  0  0.120652  0  0.993615  0  0  0.124353  0  0.989971  0  0  0.13589  0.117836  0  0.996453  0
H  H17  1  0.37455238  0.12380586  0.45228225  1  0  0.114989  0  0.92761  0  0  0.120643  0  0.993651  0  0  0.124347  0  0.990003  0  0  0.135886  0.117828  0  0.996488  0
H  H18  1  0.28298915  0.53659400  0.28610899  1  0  0.122115  0  0.933889  0  0  0.131997  0  0.994979  0  0  0.135118  0  0.991822  0  0  0.122844  0.12952  0  0.997633  0
H  H19  1  0.78298878  0.96340691  0.21388998  1  0  0.122118  0  0.933891  0  0  0.132  0  0.994984  0  0  0.135121  0  0.991827  0  0  0.122845  0.129521  0  0.997642  0
H  H20  1  0.71701011  0.46340658  0.71389206  1  0  0.122103  0  0.933892  0  0  0.131988  0  0.994989  0  0  0.135109  0  0.99183  0  0  0.122834  0.129513  0  0.99764  0
H  H21  1  0.21700812  0.03659149  0.78610748  1  0  0.122118  0  0.933911  0  0  0.132004  0  0.995005  0  0  0.135125  0  0.991847  0  0  0.122834  0.129515  0  0.997672  0
H  H22  1  0.41721052  0.27320394  0.97451803  1  0  0.1154  0  0.940928  0  0  0.121076  0  1.005645  0  0  0.124881  0  1.001363  0  0  0.135673  0.11829  0  1.008643  0
H  H23  1  0.91721179  0.22679765  0.52548202  1  0  0.115391  0  0.94089  0  0  0.12102  0  1.005667  0  0  0.124822  0  1.001389  0  0  0.135659  0.118234  0  1.008662  0
H  H24  1  0.58278873  0.72679555  0.02548207  1  0  0.115364  0  0.940921  0  0  0.121045  0  1.00564  0  0  0.124849  0  1.001358  0  0  0.135679  0.118258  0  1.00864  0
H  H25  1  0.08278864  0.77320291  0.47451564  1  0  0.115416  0  0.940816  0  0  0.120986  0  1.005682  0  0  0.124787  0  1.001405  0  0  0.135657  0.118201  0  1.008678  0
H  H26  1  0.88728922  0.67382448  0.28319986  1  0  0.436109  0  0.874014  0  0  0.400017  0  0.945504  0  0  0.411913  0  0.928671  0  0  0.304721  0.39162  0  0.957416  0
H  H27  1  0.38728873  0.82617443  0.21680072  1  0  0.436104  0  0.874012  0  0  0.400013  0  0.94551  0  0  0.411909  0  0.928677  0  0  0.304711  0.391615  0  0.957422  0
H  H28  1  0.11271239  0.32617609  0.71680119  1  0  0.436081  0  0.874048  0  0  0.399988  0  0.945538  0  0  0.411885  0  0.928704  0  0  0.304726  0.39159  0  0.95745  0
H  H29  1  0.61271287  0.17382398  0.78319928  1  0  0.43609  0  0.874035  0  0  0.400008  0  0.945516  0  0  0.411906  0  0.928679  0  0  0.304711  0.391609  0  0.957429  0
H  H30  1  0.28141179  0.16038564  0.26090875  1  0  0.419704  0  0.858899  0  0  0.388748  0  0.938022  0  0  0.399489  0  0.925983  0  0  0.313375  0.381134  0  0.946648  0
H  H31  1  0.78141245  0.33961452  0.23909203  1  0  0.419722  0  0.858881  0  0  0.388746  0  0.938057  0  0  0.399487  0  0.926017  0  0  0.313366  0.381129  0  0.946692  0
H  H32  1  0.71858747  0.83961278  0.73909465  1  0  0.419755  0  0.858875  0  0  0.388767  0  0.938065  0  0  0.399508  0  0.926021  0  0  0.313373  0.381149  0  0.946705  0
H  H33  1  0.21858680  0.66038713  0.76090742  1  0  0.419742  0  0.858868  0  0  0.388759  0  0.938052  0  0  0.3995  0  0.926008  0  0  0.313372  0.381142  0  0.946687  0
H  H34  1  0.31893577  0.90164246  0.94723060  1  0  0.441435  0  0.851732  0  0  0.408386  0  0.917698  0  0  0.418983  0  0.902395  0  0  0.289733  0.400937  0  0.928374  0
H  H35  1  0.81893689  0.59835758  0.55276818  1  0  0.441424  0  0.851748  0  0  0.408373  0  0.917717  0  0  0.418969  0  0.902414  0  0  0.289726  0.400924  0  0.928392  0
H  H36  1  0.68106466  0.09835919  0.05277054  1  0  0.441384  0  0.851802  0  0  0.408341  0  0.917759  0  0  0.418934  0  0.902461  0  0  0.289706  0.400892  0  0.928434  0
H  H37  1  0.18106589  0.40164298  0.44723117  1  0  0.441444  0  0.851724  0  0  0.4084  0  0.917684  0  0  0.418992  0  0.902388  0  0  0.289744  0.400951  0  0.92836  0
H  H38  1  0.32463930  0.00414726  0.06771667  1  0  0.435474  0  0.843149  0  0  0.406812  0  0.906324  0  0  0.416403  0  0.892248  0  0  0.302013  0.399926  0  0.9164  0
H  H39  1  0.82464056  0.49585296  0.43228331  1  0  0.435468  0  0.84315  0  0  0.406806  0  0.906328  0  0  0.416398  0  0.892251  0  0  0.302011  0.399921  0  0.916402  0
H  H40  1  0.67536112  0.99585331  0.93228607  1  0  0.435418  0  0.843199  0  0  0.406755  0  0.906398  0  0  0.416345  0  0.892322  0  0  0.301991  0.399869  0  0.916472  0
H  H41  1  0.17536221  0.50414869  0.56771528  1  0  0.43547  0  0.843184  0  0  0.406813  0  0.906333  0  0  0.4164  0  0.89226  0  0  0.302007  0.399927  0  0.916408  0
C  C42  1  0.18997754  0.56157451  0.00941707  1  0  0.176552  0  3.591336  0  0  0.123775  0  3.844132  0  0  0.135564  0  3.858206  0  0  0.079169  0.115797  0  3.834954  0
C  C43  1  0.68997999  0.93842519  0.49058255  1  0  0.176491  0  3.591419  0  0  0.123696  0  3.844186  0  0  0.135485  0  3.858261  0  0  0.079149  0.115718  0  3.835004  0
C  C44  1  0.81001937  0.43842606  0.99058313  1  0  0.176314  0  3.59151  0  0  0.12367  0  3.844174  0  0  0.135458  0  3.858255  0  0  0.079113  0.115693  0  3.834991  0
C  C45  1  0.31001927  0.06157430  0.50941670  1  0  0.176352  0  3.591598  0  0  0.123677  0  3.844254  0  0  0.135464  0  3.858336  0  0  0.079128  0.115699  0  3.835071  0
C  C46  1  0.19188796  0.59659283  0.12703633  1  0  -0.284797  0  3.707369  0  0  -0.239894  0  3.959784  0  0  -0.256157  0  3.980083  0  0  -0.011756  -0.229663  0  3.946674  0
C  C47  1  0.69189131  0.90340687  0.37296329  1  0  -0.28478  0  3.707377  0  0  -0.239856  0  3.959755  0  0  -0.256118  0  3.980054  0  0  -0.011739  -0.229624  0  3.946643  0
C  C48  1  0.80811130  0.40340667  0.87296632  1  0  -0.284672  0  3.707349  0  0  -0.23981  0  3.959746  0  0  -0.256072  0  3.980044  0  0  -0.011725  -0.229573  0  3.946629  0
C  C49  1  0.30811029  0.09659261  0.62703427  1  0  -0.284682  0  3.707398  0  0  -0.239743  0  3.959707  0  0  -0.256005  0  3.980008  0  0  -0.011714  -0.229508  0  3.946585  0
C  C50  1  0.27968477  0.51035793  0.19368022  1  0  0.090441  0  3.623896  0  0  0.046248  0  3.869999  0  0  0.057865  0  3.88285  0  0  -0.02906  0.038738  0  3.862236  0
C  C51  1  0.77968579  0.98964190  0.30631950  1  0  0.090428  0  3.623907  0  0  0.046227  0  3.870014  0  0  0.057841  0  3.882865  0  0  -0.029066  0.038715  0  3.862256  0
C  C52  1  0.72031449  0.48964049  0.80632063  1  0  0.090425  0  3.623862  0  0  0.0462  0  3.870013  0  0  0.057818  0  3.882863  0  0  -0.029049  0.03869  0  3.862246  0
C  C53  1  0.22031230  0.01035758  0.69367891  1  0  0.090427  0  3.62398  0  0  0.046175  0  3.870129  0  0  0.057791  0  3.882979  0  0  -0.029045  0.038677  0  3.862364  0
C  C54  1  0.36537051  0.39308789  0.14175252  1  0  -0.280248  0  3.701961  0  0  -0.237514  0  3.958002  0  0  -0.25374  0  3.977796  0  0  -0.009268  -0.227573  0  3.945769  0
C  C55  1  0.86537102  0.10691238  0.35824665  1  0  -0.280288  0  3.70194  0  0  -0.237562  0  3.957991  0  0  -0.253784  0  3.977775  0  0  -0.009286  -0.227621  0  3.945756  0
C  C56  1  0.63462523  0.60691158  0.85824249  1  0  -0.2803  0  3.70192  0  0  -0.23754  0  3.957953  0  0  -0.253765  0  3.977743  0  0  -0.009313  -0.227598  0  3.94572  0
C  C57  1  0.13462589  0.89308711  0.64175514  1  0  -0.280379  0  3.702064  0  0  -0.237597  0  3.958085  0  0  -0.253819  0  3.97787  0  0  -0.009344  -0.227655  0  3.945845  0
C  C58  1  0.35715076  0.36280726  0.02357462  1  0  0.191339  0  3.56422  0  0  0.139017  0  3.814522  0  0  0.15177  0  3.827221  0  0  0.084909  0.130722  0  3.805949  0
C  C59  1  0.85715271  0.13719301  0.47642540  1  0  0.191455  0  3.56419  0  0  0.139162  0  3.814502  0  0  0.151916  0  3.827198  0  0  0.084973  0.130867  0  3.805926  0
C  C60  1  0.64285085  0.63719653  0.97642163  1  0  0.191482  0  3.564131  0  0  0.139142  0  3.814445  0  0  0.151899  0  3.827138  0  0  0.084941  0.130842  0  3.805879  0
C  C61  1  0.14285124  0.86280325  0.52357526  1  0  0.191582  0  3.564107  0  0  0.139282  0  3.81448  0  0  0.15204  0  3.827173  0  0  0.085025  0.130982  0  3.805911  0
N  N62  1  0.27148222  0.44638952  0.96185405  1  0  -0.203711  0  3.425868  0  0  -0.128946  0  3.657363  0  0  -0.146192  0  3.672498  0  0  -0.331205  -0.117661  0  3.647551  0
N  N63  1  0.77148324  0.05361078  0.53814575  1  0  -0.203724  0  3.425891  0  0  -0.128963  0  3.657358  0  0  -0.146212  0  3.672496  0  0  -0.33121  -0.117679  0  3.647545  0
N  N64  1  0.72851351  0.55361427  0.03814390  1  0  -0.203745  0  3.425894  0  0  -0.129026  0  3.657366  0  0  -0.146273  0  3.672501  0  0  -0.33122  -0.117742  0  3.647561  0
N  N65  1  0.22851367  0.94638548  0.46185491  1  0  -0.203782  0  3.425943  0  0  -0.129037  0  3.657399  0  0  -0.146284  0  3.672536  0  0  -0.331221  -0.117754  0  3.647594  0
O  O66  1  0.97846300  0.80463597  0.10436680  1  0  -0.864264  0  1.978186  0  0  -0.789307  0  2.259252  0  0  -0.817029  0  2.238829  0  0  -0.375836  -0.769119  0  2.272303  0
O  O67  1  0.47846498  0.69536415  0.39563313  1  0  -0.864287  0  1.978137  0  0  -0.789333  0  2.25921  0  0  -0.817054  0  2.238786  0  0  -0.375874  -0.769156  0  2.272284  0
O  O68  1  0.02153626  0.19536351  0.89563160  1  0  -0.86432  0  1.978042  0  0  -0.789349  0  2.259076  0  0  -0.81707  0  2.23865  0  0  -0.375883  -0.769201  0  2.272216  0
O  O69  1  0.52153545  0.30463642  0.60436792  1  0  -0.864301  0  1.978102  0  0  -0.789324  0  2.259144  0  0  -0.817044  0  2.23872  0  0  -0.375875  -0.769177  0  2.272284  0
O  O70  1  0.21760553  0.86218406  0.23911007  1  0  -0.82333  0  2.01937  0  0  -0.739342  0  2.259016  0  0  -0.766448  0  2.241442  0  0  -0.35861  -0.720008  0  2.271002  0
O  O71  1  0.71760474  0.63781567  0.26088873  1  0  -0.823359  0  2.019364  0  0  -0.739378  0  2.25901  0  0  -0.766485  0  2.241435  0  0  -0.358613  -0.720046  0  2.271  0
O  O72  1  0.78239372  0.13781757  0.76088683  1  0  -0.823339  0  2.01936  0  0  -0.739432  0  2.259058  0  0  -0.766541  0  2.24148  0  0  -0.358603  -0.720082  0  2.271033  0
O  O73  1  0.28239451  0.36218275  0.73911382  1  0  -0.823334  0  2.019349  0  0  -0.739381  0  2.259057  0  0  -0.766488  0  2.241483  0  0  -0.358611  -0.720037  0  2.271035  0
O  O74  1  0.00224435  0.70603118  0.29832039  1  0  -0.748495  0  2.03205  0  0  -0.675796  0  2.262883  0  0  -0.698311  0  2.238649  0  0  -0.384614  -0.65971  0  2.279616  0
O  O75  1  0.50224488  0.79396933  0.20167997  1  0  -0.748453  0  2.032023  0  0  -0.675789  0  2.262862  0  0  -0.698305  0  2.23863  0  0  -0.384587  -0.6597  0  2.279596  0
O  O76  1  0.99775490  0.29397478  0.70168114  1  0  -0.748451  0  2.032141  0  0  -0.675765  0  2.262983  0  0  -0.698282  0  2.238748  0  0  -0.384616  -0.659675  0  2.279718  0
O  O77  1  0.49775438  0.20602585  0.79831975  1  0  -0.748448  0  2.032114  0  0  -0.675779  0  2.262962  0  0  -0.698296  0  2.238728  0  0  -0.384601  -0.659689  0  2.279698  0
O  O78  1  0.50526027  0.34436331  0.34213113  1  0  -0.873612  0  2.025865  0  0  -0.791103  0  2.315558  0  0  -0.81934  0  2.292841  0  0  -0.386259  -0.770873  0  2.330476  0
O  O79  1  0.00526059  0.15563752  0.15786945  1  0  -0.873671  0  2.025839  0  0  -0.791169  0  2.315529  0  0  -0.819399  0  2.292798  0  0  -0.386306  -0.77094  0  2.330447  0
O  O80  1  0.49474016  0.65563619  0.65787152  1  0  -0.873674  0  2.025784  0  0  -0.791172  0  2.315487  0  0  -0.819406  0  2.292767  0  0  -0.386277  -0.770942  0  2.330403  0
O  O81  1  0.99473984  0.84436520  0.84212840  1  0  -0.873686  0  2.02579  0  0  -0.791188  0  2.315499  0  0  -0.819426  0  2.292791  0  0  -0.386286  -0.770959  0  2.330416  0
O  O82  1  0.63464659  0.24318423  0.15336655  1  0  -0.849706  0  1.936266  0  0  -0.76652  0  2.176196  0  0  -0.794489  0  2.159487  0  0  -0.360733  -0.746323  0  2.186962  0
O  O83  1  0.13464741  0.25681787  0.34663427  1  0  -0.849715  0  1.936252  0  0  -0.766536  0  2.176164  0  0  -0.794507  0  2.159459  0  0  -0.360762  -0.746343  0  2.186929  0
O  O84  1  0.36535266  0.75681634  0.84663534  1  0  -0.849755  0  1.936299  0  0  -0.766542  0  2.176212  0  0  -0.794528  0  2.159517  0  0  -0.360763  -0.746346  0  2.186978  0
O  O85  1  0.86535184  0.74318378  0.65336518  1  0  -0.849749  0  1.936284  0  0  -0.766544  0  2.1762  0  0  -0.794526  0  2.159501  0  0  -0.360756  -0.746348  0  2.186966  0
O  O86  1  0.38089554  0.13396924  0.21742319  1  0  -0.72237  0  2.019178  0  0  -0.649983  0  2.249497  0  0  -0.671311  0  2.227857  0  0  -0.379954  -0.634609  0  2.264567  0
O  O87  1  0.88089633  0.36603214  0.28257695  1  0  -0.722346  0  2.019167  0  0  -0.64997  0  2.249497  0  0  -0.671299  0  2.227855  0  0  -0.379923  -0.634602  0  2.264586  0
O  O88  1  0.61910489  0.86603027  0.78258115  1  0  -0.722448  0  2.019199  0  0  -0.650021  0  2.249489  0  0  -0.671348  0  2.227864  0  0  -0.37994  -0.63465  0  2.264572  0
O  O89  1  0.11910410  0.63396950  0.71742080  1  0  -0.722399  0  2.019131  0  0  -0.649986  0  2.249416  0  0  -0.671318  0  2.227799  0  0  -0.379924  -0.634622  0  2.26451  0
O  O90  1  0.27630415  0.99020838  0.99193622  1  0  -0.850999  0  1.822509  0  0  -0.789887  0  2.015836  0  0  -0.811188  0  1.982414  0  0  -0.581563  -0.774703  0  2.038943  0
O  O91  1  0.77630739  0.50979053  0.50806411  1  0  -0.850993  0  1.822529  0  0  -0.789872  0  2.015864  0  0  -0.811175  0  1.982448  0  0  -0.581554  -0.774688  0  2.038975  0
O  O92  1  0.72369745  0.00979543  0.00806596  1  0  -0.850895  0  1.822622  0  0  -0.789772  0  2.015932  0  0  -0.811072  0  1.982514  0  0  -0.581513  -0.774589  0  2.039039  0
O  O93  1  0.22369773  0.49020896  0.49193599  1  0  -0.85103  0  1.822566  0  0  -0.789912  0  2.015842  0  0  -0.811207  0  1.982436  0  0  -0.581578  -0.774727  0  2.038949  0
