# generated using pymatgen
data_Al4H34C57S2O27
_symmetry_space_group_name_H-M   'P 1'
_cell_length_a   6.67662217
_cell_length_b   21.18516709
_cell_length_c   22.17167042
_cell_angle_alpha   107.47139058
_cell_angle_beta   89.95254564
_cell_angle_gamma   90.88892124
_symmetry_Int_Tables_number   1
_chemical_formula_structural   Al4H34C57S2O27
_chemical_formula_sum   'Al4 H34 C57 S2 O27'
_cell_volume   2991.01887439
_cell_formula_units_Z   1
loop_
 _symmetry_equiv_pos_site_id
 _symmetry_equiv_pos_as_xyz
  1  'x, y, z'
loop_
 _atom_site_type_symbol
 _atom_site_label
 _atom_site_symmetry_multiplicity
 _atom_site_fract_x
 _atom_site_fract_y
 _atom_site_fract_z
 _atom_site_occupancy
 _atom_site_pbe_bader_charge
 _atom_site_pbe_bader_spin_density
 _atom_site_pbe_cm5_charge
 _atom_site_pbe_ddec_charge
 _atom_site_pbe_ddec_spin_density
 _atom_site_pbe_ddec_sum_bond_order
 _atom_site_pbe_magmom
Al  Al0  1  0.10237583  0.49878697  0.50079179  1  2.502821  0  0.39735  1.645099  0  2.571088  0
Al  Al1  1  0.60055710  0.49751842  0.49653706  1  2.501874  0  0.400416  1.640949  0  2.574841  0
Al  Al2  1  0.69402371  0.99816155  0.99797677  1  2.502422  0  0.400884  1.64911  0  2.575474  0
Al  Al3  1  0.19440310  0.99997314  0.00095261  1  2.502819  0  0.399952  1.65332  0  2.579649  0
H  H4  1  0.23946695  0.80659218  0.18579367  1  0.058749  0  0.103119  0.103564  0  1.008004  0
H  H5  1  0.25203585  0.87933894  0.11519525  1  0.103219  0  0.108241  0.111389  0  1.008449  0
H  H6  1  0.61194073  0.89488144  0.12341669  1  0.115428  0  0.109624  0.113882  0  1.004323  0
H  H7  1  0.59670704  0.82360119  0.19535843  1  0.071572  0  0.103488  0.104265  0  1.0093  0
H  H8  1  0.20996471  0.67776857  0.30877578  1  0.059144  0  0.102396  0.102019  0  1.012068  0
H  H9  1  0.18918671  0.60660532  0.38101245  1  0.077189  0  0.11165  0.116301  0  1.002208  0
H  H10  1  0.54902328  0.62037973  0.38438346  1  0.112574  0  0.110347  0.115912  0  1.002716  0
H  H11  1  0.56654215  0.69308092  0.31348288  1  0.060604  0  0.102526  0.102599  0  1.010412  0
H  H12  1  0.57175339  0.61333533  0.67992418  1  0.121282  0  0.119725  0.129354  0  0.975088  0
H  H13  1  0.27743913  0.79799752  0.71751227  1  0.0945  0  0.106432  0.11781  0  1.010287  0
H  H14  1  0.53594346  0.70858181  0.77795122  1  0.075783  0  0.110633  0.110811  0  0.983155  0
H  H15  1  0.25460604  0.88265965  0.82131696  1  0.096477  0  0.113257  0.120353  0  0.984951  0
H  H16  1  0.66670373  0.81216553  0.85024471  1  0.112503  0  0.110445  0.114229  0  0.996506  0
H  H17  1  0.63146908  0.32573028  0.34707120  1  0.127238  0  0.111197  0.118497  0  1.011226  0
H  H18  1  0.78855840  0.22500766  0.27443230  1  0.064197  0  0.10601  0.10986  0  1.003518  0
H  H19  1  0.00324996  0.27579451  0.21993191  1  0.076318  0  0.107144  0.122381  0  1.013645  0
H  H20  1  0.76958943  0.12946184  0.17582231  1  0.092064  0  0.108364  0.11496  0  0.997124  0
H  H21  1  0.15912202  0.17549680  0.14641503  1  0.086045  0  0.107774  0.112773  0  1.002436  0
H  H22  1  0.74256878  0.19440879  0.81195825  1  0.099772  0  0.108299  0.116164  0  0.999637  0
H  H23  1  0.75795299  0.12182652  0.88319859  1  0.089975  0  0.109184  0.112427  0  1.006301  0
H  H24  1  0.11794814  0.09876626  0.87432988  1  0.13996  0  0.111306  0.117385  0  1.001572  0
H  H25  1  0.09992534  0.17003413  0.80233568  1  0.091194  0  0.105481  0.108955  0  1.007111  0
H  H26  1  0.67286154  0.35154325  0.71865581  1  0.141486  0  0.110713  0.122193  0  1.001114  0
H  H27  1  0.65683414  0.42167893  0.64570934  1  0.110202  0  0.117507  0.122611  0  0.978853  0
H  H28  1  0.05960707  0.34820894  0.58964398  1  0.155409  0  0.121694  0.13735  0  0.984521  0
H  H29  1  0.98664788  0.42850719  0.25536906  1  0.058097  0  0.092341  0.086011  0  0.993304  0
H  H30  1  0.08636756  0.46966059  0.33301109  1  0.056133  0  0.097531  0.097088  0  1.022298  0
H  H31  1  0.82155019  0.45634641  0.32189569  1  0.066603  0  0.108584  0.118755  0  0.984392  0
H  H32  1  0.20047485  0.18390298  0.67392622  1  0.629092  0  0.317415  0.363727  0  0.922859  0
H  H33  1  0.06609564  0.80387943  0.59257850  1  0.637749  0  0.359718  0.411055  0  0.823549  0
H  H34  1  0.36128389  0.58448323  0.53350933  1  0.644332  0  0.338807  0.424163  0  0.882153  0
H  H35  1  0.85372081  0.41516636  0.45834760  1  0.628346  0  0.353027  0.431614  0  0.854465  0
H  H36  1  0.43689592  0.91161517  0.97861828  1  0.630862  0  0.357121  0.434308  0  0.844836  0
H  H37  1  0.94366362  0.08590585  0.02556830  1  0.620278  0  0.35678  0.433897  0  0.845902  0
C  C38  1  0.34375582  0.40813138  0.40019704  1  1.574309  0  0.271416  0.659756  0  4.084179  0
C  C39  1  0.35000508  0.43091070  0.56995482  1  1.608679  0  0.266878  0.634074  0  4.114531  0
C  C40  1  0.85161623  0.59123284  0.59358041  1  1.603364  0  0.272315  0.643569  0  4.100826  0
C  C41  1  0.85846478  0.56738837  0.42947165  1  1.569103  0  0.262812  0.629918  0  4.122536  0
C  C42  1  0.10263231  0.82628693  0.17216565  1  0.004248  0  -0.082035  -0.127723  0  3.945094  0
C  C43  1  0.10977564  0.86645308  0.13292871  1  -0.048581  0  -0.079378  -0.084526  0  3.987351  0
C  C44  1  0.93267548  0.89072603  0.11478846  1  -0.021791  0  -0.016058  -0.048396  0  3.974921  0
C  C45  1  0.74789461  0.87514039  0.13753395  1  -0.060006  0  -0.07942  -0.085212  0  3.98226  0
C  C46  1  0.73956963  0.83557031  0.17727542  1  0.00449  0  -0.081613  -0.12617  0  3.944069  0
C  C47  1  0.91703446  0.80989439  0.19477479  1  0.084609  0  0.004783  0.147904  0  4.106981  0
C  C48  1  0.90852805  0.76816432  0.23391617  1  0.050791  0  -0.044257  -0.108442  0  4.117841  0
C  C49  1  0.90003579  0.73174690  0.26737694  1  -0.379303  0  -0.041779  -0.103232  0  4.119993  0
C  C50  1  0.06576971  0.66515865  0.32557800  1  0.011251  0  -0.082667  -0.126643  0  3.945563  0
C  C51  1  0.05453821  0.62550759  0.36520489  1  -0.009887  0  -0.076863  -0.080984  0  3.97338  0
C  C52  1  0.86809455  0.60931495  0.38630273  1  -0.02989  0  -0.011999  -0.03762  0  3.957506  0
C  C53  1  0.69216149  0.63339057  0.36725570  1  -0.061692  0  -0.07769  -0.083138  0  3.974758  0
C  C54  1  0.70218973  0.67357160  0.32805957  1  0.004755  0  -0.083356  -0.129483  0  3.950258  0
C  C55  1  0.88943256  0.69018807  0.30666295  1  0.023221  0  0.002776  0.143563  0  4.113769  0
C  C56  1  0.84283380  0.65141552  0.65041586  1  0.069494  0  0.00549  -0.01654  0  3.929639  0
C  C57  1  0.95438095  0.85428591  0.84063384  1  0.055104  0  -0.014104  -0.039622  0  3.999764  0
C  C58  1  0.14243769  0.80066074  0.74551382  1  -0.019887  0  -0.09328  -0.139726  0  4.00038  0
C  C59  1  0.13009951  0.84822803  0.80336437  1  -0.095076  0  -0.079691  -0.086004  0  3.977499  0
C  C60  1  0.79985923  0.80870055  0.82096847  1  -0.079009  0  -0.073275  -0.133204  0  3.932868  0
C  C61  1  0.81402671  0.75613169  0.76392214  1  -0.031028  0  -0.001586  0.077364  0  3.997101  0
C  C62  1  0.98349408  0.75393218  0.72300973  1  0.026715  0  0.000352  0.070217  0  3.971355  0
C  C63  1  0.98278052  0.70328528  0.66341812  1  -0.171667  0  -0.0068  -0.161442  0  3.876396  0
C  C64  1  0.68276746  0.65334674  0.69283798  1  -0.010511  0  -0.075269  -0.081573  0  3.967257  0
C  C65  1  0.66460553  0.70563915  0.74689773  1  -0.037209  0  -0.073223  -0.106404  0  3.970583  0
C  C66  1  0.32839344  0.35349522  0.33927564  1  -0.056773  0  -0.018621  -0.145064  0  3.942623  0
C  C67  1  0.46240905  0.14772771  0.15524513  1  -0.039268  0  -0.01669  -0.04394  0  4.000289  0
C  C68  1  0.65270229  0.21485251  0.24564920  1  -0.031518  0  -0.083615  -0.121384  0  3.981344  0
C  C69  1  0.64232614  0.16186832  0.19145344  1  -0.042458  0  -0.088488  -0.108604  0  3.995306  0
C  C70  1  0.29704565  0.18727128  0.17413627  1  0.001632  0  -0.076277  -0.133887  0  3.922916  0
C  C71  1  0.30591721  0.24306929  0.22856407  1  0.004205  0  -0.003181  0.100026  0  4.025743  0
C  C72  1  0.48704286  0.25744590  0.26519497  1  -0.013796  0  -0.005181  0.07017  0  3.994368  0
C  C73  1  0.49338935  0.31348092  0.31948532  1  -0.02729  0  -0.069097  -0.10673  0  3.919291  0
C  C74  1  0.14736109  0.33832119  0.30222344  1  0.525344  0  0.087852  0.239749  0  4.038635  0
C  C75  1  0.14074355  0.28525804  0.24791742  1  -0.019738  0  -0.099641  -0.257565  0  3.984258  0
C  C76  1  0.60707938  0.17287758  0.82564969  1  -0.062584  0  -0.077318  -0.121023  0  3.925964  0
C  C77  1  0.61531014  0.13279045  0.86498446  1  0.038324  0  -0.078427  -0.086854  0  3.981644  0
C  C78  1  0.43895385  0.10637521  0.88281834  1  -0.074972  0  -0.012381  -0.041403  0  3.965833  0
C  C79  1  0.25326729  0.11973144  0.85993457  1  -0.06839  0  -0.078749  -0.087504  0  3.981236  0
C  C80  1  0.24343750  0.15918791  0.82016473  1  -0.053788  0  -0.080757  -0.127177  0  3.946114  0
C  C81  1  0.42043591  0.18681606  0.80294143  1  0.074408  0  0.004389  0.13947  0  4.110958  0
C  C82  1  0.40916734  0.22861008  0.76391355  1  -0.085992  0  -0.024928  -0.080405  0  4.06276  0
C  C83  1  0.39551123  0.26621429  0.73179519  1  -0.246771  0  -0.033252  -0.101557  0  4.108871  0
C  C84  1  0.53940027  0.35164693  0.69054055  1  -0.004082  0  -0.069296  -0.097403  0  3.906185  0
C  C85  1  0.52943406  0.39074113  0.65040160  1  -0.030787  0  -0.065898  -0.069611  0  3.947771  0
C  C86  1  0.35674001  0.39013868  0.61439602  1  -0.027002  0  -0.004218  -0.022672  0  3.947211  0
C  C87  1  0.19321014  0.34921000  0.61807778  1  -0.003323  0  -0.066602  -0.091623  0  3.946463  0
C  C88  1  0.20588911  0.30836921  0.65655174  1  -0.172286  0  -0.011783  -0.143924  0  3.937065  0
C  C89  1  0.37890316  0.30884859  0.69384968  1  0.102372  0  0.011404  0.137093  0  4.083897  0
C  C90  1  0.44542760  0.06569996  0.92729600  1  1.585556  0  0.264549  0.635099  0  4.111  0
C  C91  1  0.45228109  0.09114150  0.09604071  1  1.555191  0  0.269315  0.646932  0  4.087495  0
C  C92  1  0.93957149  0.93160945  0.07068409  1  1.540376  0  0.264603  0.638912  0  4.107526  0
C  C93  1  0.94359013  0.90819439  0.90190720  1  1.576556  0  0.270107  0.645372  0  4.094903  0
C  C94  1  0.96898328  0.43572313  0.30639848  1  0.374493  0  -0.13838  -0.164665  0  3.90117  0
S  S95  1  0.00046424  0.25425647  0.65810764  1  3.06392  0  0.536851  1.155757  0  6.013456  0
S  S96  1  0.14174469  0.70913425  0.59947731  1  3.020519  0  0.550282  1.153219  0  5.958339  0
O  O97  1  0.51863353  0.44565804  0.55057903  1  -1.254361  0  -0.234332  -0.588781  0  2.350719  0
O  O98  1  0.18095564  0.42923761  0.42818007  1  -1.263772  0  -0.229987  -0.59286  0  2.399992  0
O  O99  1  0.02522289  0.55075161  0.44740180  1  -1.254005  0  -0.235078  -0.596149  0  2.401689  0
O  O100  1  0.17782075  0.44626600  0.55468018  1  -1.250057  0  -0.234747  -0.583285  0  2.328941  0
O  O101  1  0.02308814  0.56799772  0.57534108  1  -1.250964  0  -0.228099  -0.583957  0  2.360292  0
O  O102  1  0.51821071  0.42909594  0.42117611  1  -1.256088  0  -0.23466  -0.591735  0  2.319986  0
O  O103  1  0.35374516  0.53859544  0.50696546  1  -1.446995  0  -0.452008  -0.994309  0  2.191736  0
O  O104  1  0.68426159  0.56698973  0.57051213  1  -1.247997  0  -0.219778  -0.561622  0  2.364563  0
O  O105  1  0.68485350  0.55148942  0.44475404  1  -1.252454  0  -0.238165  -0.596624  0  2.344552  0
O  O106  1  0.84962204  0.45787078  0.49059000  1  -1.430753  0  -0.449606  -0.986368  0  2.173994  0
O  O107  1  0.27938720  0.07059254  0.07335364  1  -1.266206  0  -0.237642  -0.59968  0  2.3347  0
O  O108  1  0.61651956  0.05017530  0.94354042  1  -1.253813  0  -0.238294  -0.592802  0  2.329133  0
O  O109  1  0.77132292  0.92738435  0.92406364  1  -1.25313  0  -0.235797  -0.590326  0  2.317224  0
O  O110  1  0.61882411  0.06809796  0.07168059  1  -1.262189  0  -0.234836  -0.595291  0  2.351396  0
O  O111  1  0.77175854  0.94596193  0.05118778  1  -1.262235  0  -0.239416  -0.600492  0  2.36023  0
O  O112  1  0.27662133  0.05063000  0.94641337  1  -1.258129  0  -0.237188  -0.595042  0  2.370052  0
O  O113  1  0.44174897  0.95947614  0.99288660  1  -1.433995  0  -0.448376  -0.996657  0  2.217209  0
O  O114  1  0.11183373  0.94814253  0.05486967  1  -1.263194  0  -0.239803  -0.599869  0  2.339108  0
O  O115  1  0.11116252  0.93039827  0.92737475  1  -1.255195  0  -0.233298  -0.59126  0  2.360103  0
O  O116  1  0.94515758  0.03854715  0.00547131  1  -1.423883  0  -0.448354  -0.995353  0  2.208722  0
O  O117  1  0.97312542  0.37304215  0.31897828  1  -1.079257  0  -0.20579  -0.198296  0  2.564986  0
O  O118  1  0.92805256  0.26973304  0.72225453  1  -1.301739  0  -0.318919  -0.557852  0  2.147384  0
O  O119  1  0.86613906  0.25166655  0.60698540  1  -1.286004  0  -0.305221  -0.507086  0  2.112787  0
O  O120  1  0.10411662  0.18302382  0.63972127  1  -1.201479  0  -0.362795  -0.516303  0  2.141181  0
O  O121  1  0.33873772  0.68474644  0.60473122  1  -1.281451  0  -0.288548  -0.503558  0  2.163946  0
O  O122  1  0.02702416  0.68758224  0.54178159  1  -1.285733  0  -0.297112  -0.522836  0  2.176658  0
O  O123  1  0.17380645  0.78834544  0.61425948  1  -1.175912  0  -0.35768  -0.537831  0  2.161676  0
