# generated using pymatgen
data_CdH15C19Br2N3O
_symmetry_space_group_name_H-M   'P 1'
_cell_length_a   7.36360242
_cell_length_b   8.81358545
_cell_length_c   15.14352663
_cell_angle_alpha   78.14634292
_cell_angle_beta   79.18304822
_cell_angle_gamma   81.17825189
_symmetry_Int_Tables_number   1
_chemical_formula_structural   CdH15C19Br2N3O
_chemical_formula_sum   'Cd2 H30 C38 Br4 N6 O2'
_cell_volume   937.99996819
_cell_formula_units_Z   2
loop_
 _symmetry_equiv_pos_site_id
 _symmetry_equiv_pos_as_xyz
  1  'x, y, z'
loop_
 _atom_site_type_symbol
 _atom_site_label
 _atom_site_symmetry_multiplicity
 _atom_site_fract_x
 _atom_site_fract_y
 _atom_site_fract_z
 _atom_site_occupancy
 _atom_site_hle17_bader_spin_density
 _atom_site_hle17_ddec_charge
 _atom_site_hle17_ddec_spin_density
 _atom_site_hle17_ddec_sum_bond_order
 _atom_site_hle17_magmom
 _atom_site_hse06_10hf_bader_spin_density
 _atom_site_hse06_10hf_ddec_charge
 _atom_site_hse06_10hf_ddec_spin_density
 _atom_site_hse06_10hf_ddec_sum_bond_order
 _atom_site_hse06_10hf_magmom
 _atom_site_hse06_bader_spin_density
 _atom_site_hse06_ddec_charge
 _atom_site_hse06_ddec_spin_density
 _atom_site_hse06_ddec_sum_bond_order
 _atom_site_hse06_magmom
 _atom_site_pbe_bader_spin_density
 _atom_site_pbe_cm5_charge
 _atom_site_pbe_ddec_charge
 _atom_site_pbe_ddec_spin_density
 _atom_site_pbe_ddec_sum_bond_order
 _atom_site_pbe_magmom
Cd  Cd0  1  0.25080854  0.93191302  0.04035006  1  0  0.840193  0  2.018233  0  0  0.67622  0  2.472224  0  0  0.72511  0  2.43483  0  0  0.52839  0.642215  0  2.497184  0
Cd  Cd1  1  0.74919594  0.06808628  0.95965272  1  0  0.840145  0  2.018262  0  0  0.676201  0  2.472212  0  0  0.725091  0  2.434818  0  0  0.528385  0.642182  0  2.497197  0
H  H2  1  0.40065719  0.07408222  0.69321790  1  0  0.116299  0  0.956143  0  0  0.125139  0  1.018954  0  0  0.128781  0  1.016642  0  0  0.096634  0.122472  0  1.020777  0
H  H3  1  0.59934175  0.92591709  0.30678600  1  0  0.116353  0  0.956116  0  0  0.125172  0  1.018947  0  0  0.128816  0  1.016629  0  0  0.096661  0.122501  0  1.020782  0
H  H4  1  0.91622737  0.88873654  0.16951528  1  0  0.26455  0  0.909166  0  0  0.251747  0  0.972768  0  0  0.257176  0  0.96965  0  0  0.293019  0.247845  0  0.97506  0
H  H5  1  0.08376610  0.11126277  0.83048710  1  0  0.264446  0  0.90927  0  0  0.251702  0  0.972824  0  0  0.257131  0  0.969707  0  0  0.292991  0.247799  0  0.97512  0
H  H6  1  0.43021936  0.31930957  0.74357083  1  0  0.083063  0  0.98148  0  0  0.089302  0  1.051837  0  0  0.091368  0  1.052598  0  0  0.089846  0.087751  0  1.051519  0
H  H7  1  0.56977504  0.68069324  0.25642974  1  0  0.083028  0  0.98151  0  0  0.089296  0  1.051851  0  0  0.091354  0  1.052621  0  0  0.089842  0.087747  0  1.051536  0
H  H8  1  0.34605048  0.57811930  0.65105221  1  0  0.083188  0  0.9636  0  0  0.095532  0  1.022337  0  0  0.09784  0  1.02208  0  0  0.094259  0.093899  0  1.02255  0
H  H9  1  0.65395240  0.42188234  0.34894713  1  0  0.083214  0  0.963579  0  0  0.095556  0  1.022312  0  0  0.097862  0  1.022058  0  0  0.094266  0.09392  0  1.02252  0
H  H10  1  0.21322446  0.60137070  0.50772203  1  0  0.107994  0  0.954432  0  0  0.118864  0  1.014219  0  0  0.12139  0  1.013337  0  0  0.104075  0.117033  0  1.014959  0
H  H11  1  0.78678173  0.39862744  0.49227612  1  0  0.108016  0  0.954487  0  0  0.118889  0  1.014283  0  0  0.121418  0  1.013394  0  0  0.104081  0.117055  0  1.015022  0
H  H12  1  0.97589637  0.27992014  0.32162392  1  0  0.092688  0  0.957076  0  0  0.104394  0  1.0181  0  0  0.107068  0  1.016452  0  0  0.103807  0.102435  0  1.019358  0
H  H13  1  0.02411902  0.72008150  0.67837238  1  0  0.092681  0  0.957036  0  0  0.104383  0  1.018073  0  0  0.107058  0  1.016421  0  0  0.103789  0.102407  0  1.019349  0
H  H14  1  0.91004204  0.13486557  0.20909378  1  0  0.099806  0  0.976859  0  0  0.109142  0  1.041959  0  0  0.112627  0  1.040112  0  0  0.089519  0.106601  0  1.043491  0
H  H15  1  0.08996623  0.86513724  0.79090431  1  0  0.099848  0  0.976832  0  0  0.109183  0  1.041925  0  0  0.112668  0  1.040078  0  0  0.089531  0.10664  0  1.043461  0
H  H16  1  0.22241753  0.71917684  0.33696500  1  0  0.103536  0  0.964155  0  0  0.115727  0  1.025034  0  0  0.118473  0  1.024638  0  0  0.103742  0.113799  0  1.025404  0
H  H17  1  0.77758034  0.28082130  0.66303451  1  0  0.103596  0  0.964149  0  0  0.115778  0  1.02501  0  0  0.118525  0  1.024614  0  0  0.103762  0.113851  0  1.025379  0
H  H18  1  0.28470736  0.86326327  0.44862502  1  0  0.096235  0  0.952894  0  0  0.105997  0  1.015241  0  0  0.109064  0  1.013127  0  0  0.104804  0.103801  0  1.016796  0
H  H19  1  0.71529618  0.13673371  0.55137481  1  0  0.096233  0  0.952906  0  0  0.105971  0  1.015286  0  0  0.109038  0  1.013172  0  0  0.104783  0.103776  0  1.016832  0
H  H20  1  0.97523571  0.63864913  0.16701258  1  0  0.094363  0  0.920531  0  0  0.112271  0  0.978793  0  0  0.113337  0  0.978138  0  0  0.109754  0.111441  0  0.97938  0
H  H21  1  0.02475931  0.36134901  0.83298981  1  0  0.09437  0  0.920614  0  0  0.112294  0  0.978834  0  0  0.113362  0  0.978179  0  0  0.109758  0.111466  0  0.979421  0
H  H22  1  0.01757386  0.61932345  0.28041010  1  0  0.081796  0  0.943974  0  0  0.095904  0  1.010996  0  0  0.096045  0  1.01213  0  0  0.108462  0.095811  0  1.010222  0
H  H23  1  0.98242514  0.38067585  0.71959182  1  0  0.081805  0  0.944018  0  0  0.095919  0  1.011015  0  0  0.09606  0  1.012151  0  0  0.108477  0.095828  0  1.010244  0
H  H24  1  0.25424588  0.40490413  0.28824631  1  0  0.111274  0  0.997034  0  0  0.114734  0  1.069025  0  0  0.118229  0  1.068012  0  0  0.102566  0.112206  0  1.069889  0
H  H25  1  0.74574941  0.59509285  0.71175289  1  0  0.111205  0  0.99707  0  0  0.114718  0  1.069021  0  0  0.118207  0  1.068014  0  0  0.102563  0.112192  0  1.069884  0
H  H26  1  0.57009057  0.28161727  0.22629701  1  0  0.091817  0  0.938098  0  0  0.104969  0  0.993076  0  0  0.107536  0  0.990898  0  0  0.10299  0.103055  0  0.994745  0
H  H27  1  0.42990571  0.71838203  0.77370381  1  0  0.091792  0  0.938133  0  0  0.104946  0  0.993114  0  0  0.107514  0  0.990935  0  0  0.102965  0.103031  0  0.994787  0
H  H28  1  0.75323016  0.42663400  0.08497351  1  0  0.108857  0  0.968429  0  0  0.115943  0  1.033928  0  0  0.11965  0  1.032359  0  0  0.092099  0.113224  0  1.03529  0
H  H29  1  0.24677184  0.57336414  0.91502632  1  0  0.1088  0  0.96855  0  0  0.115885  0  1.034047  0  0  0.119588  0  1.032483  0  0  0.092071  0.113163  0  1.035417  0
H  H30  1  0.60893913  0.68700742  0.01148306  1  0  0.072032  0  0.97563  0  0  0.076168  0  1.049721  0  0  0.078797  0  1.047218  0  0  0.095482  0.074151  0  1.051688  0
H  H31  1  0.39106130  0.31299189  0.98851742  1  0  0.072006  0  0.975656  0  0  0.076143  0  1.049749  0  0  0.078774  0  1.047239  0  0  0.095467  0.074126  0  1.051714  0
C  C32  1  0.29171332  0.20463778  0.57195366  1  0  0.179737  0  3.771955  0  0  0.170194  0  4.026269  0  0  0.176849  0  4.044357  0  0  0.075953  0.16561  0  4.014145  0
C  C33  1  0.70829168  0.79535801  0.42804882  1  0  0.179829  0  3.771989  0  0  0.170169  0  4.02643  0  0  0.176824  0  4.044521  0  0  0.075942  0.165592  0  4.014298  0
C  C34  1  0.36084601  0.18748780  0.65285892  1  0  -0.166237  0  3.776377  0  0  -0.187524  0  4.031349  0  0  -0.191002  0  4.050169  0  0  -0.103812  -0.185137  0  4.01871  0
C  C35  1  0.63915687  0.81251384  0.34714041  1  0  -0.166319  0  3.776275  0  0  -0.187536  0  4.031273  0  0  -0.191012  0  4.050088  0  0  -0.103823  -0.185149  0  4.018643  0
C  C36  1  0.37759779  0.32644797  0.68003857  1  0  -0.071636  0  3.782456  0  0  -0.085532  0  4.03954  0  0  -0.087142  0  4.062478  0  0  -0.101024  -0.084415  0  4.024071  0
C  C37  1  0.62240397  0.67355134  0.31996312  1  0  -0.071541  0  3.782576  0  0  -0.085499  0  4.039696  0  0  -0.087103  0  4.062639  0  0  -0.100996  -0.084389  0  4.02423  0
C  C38  1  0.32749519  0.47326086  0.62781580  1  0  -0.093516  0  3.802958  0  0  -0.111151  0  4.061692  0  0  -0.114473  0  4.084752  0  0  -0.104308  -0.108868  0  4.046039  0
C  C39  1  0.67250461  0.52674311  0.37218285  1  0  -0.093613  0  3.802966  0  0  -0.111224  0  4.06172  0  0  -0.114546  0  4.084779  0  0  -0.104343  -0.10893  0  4.046048  0
C  C40  1  0.25533465  0.48785899  0.54713076  1  0  -0.119882  0  3.735619  0  0  -0.141264  0  3.989744  0  0  -0.14247  0  4.009173  0  0  -0.090784  -0.140407  0  3.976643  0
C  C41  1  0.74467026  0.51213798  0.45286962  1  0  -0.119847  0  3.735555  0  0  -0.141242  0  3.989651  0  0  -0.142446  0  4.009077  0  0  -0.090788  -0.140382  0  3.976542  0
C  C42  1  0.23665590  0.35001554  0.51939899  1  0  0.126342  0  3.865373  0  0  0.127944  0  4.114215  0  0  0.129683  0  4.136895  0  0  0.076134  0.126737  0  4.098958  0
C  C43  1  0.76334692  0.64998610  0.48060233  1  0  0.12625  0  3.865594  0  0  0.1279  0  4.114437  0  0  0.129636  0  4.13712  0  0  0.076139  0.126687  0  4.099187  0
C  C44  1  0.18655389  0.17149468  0.45237707  1  0  0.383795  0  3.734155  0  0  0.350125  0  4.017559  0  0  0.37148  0  4.023623  0  0  0.21753  0.335942  0  4.013146  0
C  C45  1  0.81345192  0.82850580  0.54762215  1  0  0.383689  0  3.733816  0  0  0.350035  0  4.017162  0  0  0.371395  0  4.023219  0  0  0.217499  0.335861  0  4.012745  0
C  C46  1  0.13923291  0.08252285  0.39140298  1  0  -0.055006  0  3.842719  0  0  -0.041232  0  4.08755  0  0  -0.049479  0  4.11218  0  0  -0.025614  -0.036018  0  4.070906  0
C  C47  1  0.86077861  0.91747645  0.60859525  1  0  -0.054861  0  3.842445  0  0  -0.04102  0  4.087157  0  0  -0.049269  0  4.111786  0  0  -0.025564  -0.035813  0  4.070514  0
C  C48  1  0.03051265  0.15729096  0.32393710  1  0  -0.050442  0  3.738025  0  0  -0.072965  0  3.985764  0  0  -0.069577  0  4.00382  0  0  -0.082355  -0.074843  0  3.973357  0
C  C49  1  0.96949966  0.84271302  0.67605853  1  0  -0.050413  0  3.737935  0  0  -0.072955  0  3.985628  0  0  -0.069561  0  4.003674  0  0  -0.082349  -0.074814  0  3.97323  0
C  C50  1  0.99207450  0.07617424  0.26191600  1  0  -0.17272  0  3.747746  0  0  -0.192439  0  4.00227  0  0  -0.199093  0  4.02172  0  0  -0.105407  -0.18816  0  3.989214  0
C  C51  1  0.00793536  0.92382740  0.73808077  1  0  -0.17276  0  3.747705  0  0  -0.192496  0  4.002242  0  0  -0.199149  0  4.021691  0  0  -0.105371  -0.188214  0  3.989179  0
C  C52  1  0.06393841  0.91804527  0.26410066  1  0  0.247952  0  3.790056  0  0  0.242859  0  4.037363  0  0  0.253121  0  4.058068  0  0  0.090312  0.235999  0  4.023184  0
C  C53  1  0.93606468  0.08195520  0.73589748  1  0  0.247944  0  3.790037  0  0  0.242859  0  4.037335  0  0  0.25312  0  4.058037  0  0  0.090271  0.235998  0  4.023156  0
C  C54  1  0.16690342  0.84167295  0.33303549  1  0  -0.167705  0  3.716323  0  0  -0.187731  0  3.973024  0  0  -0.194394  0  3.99338  0  0  -0.101309  -0.183388  0  3.959235  0
C  C55  1  0.83309965  0.15832752  0.66696330  1  0  -0.167828  0  3.71625  0  0  -0.187802  0  3.97287  0  0  -0.194476  0  3.993246  0  0  -0.101343  -0.18346  0  3.95908  0
C  C56  1  0.20252478  0.92308186  0.39618821  1  0  -0.055443  0  3.747525  0  0  -0.084265  0  4.008744  0  0  -0.080802  0  4.026571  0  0  -0.084592  -0.086203  0  3.996433  0
C  C57  1  0.79748145  0.07691628  0.60380861  1  0  -0.055459  0  3.747303  0  0  -0.084303  0  4.008492  0  0  -0.080841  0  4.026317  0  0  -0.084563  -0.086238  0  3.996173  0
C  C58  1  0.06402581  0.67243184  0.20889528  1  0  -0.044706  0  3.681542  0  0  -0.109641  0  3.934344  0  0  -0.106023  0  3.944607  0  0  -0.062999  -0.111989  0  3.927056  0
C  C59  1  0.93597337  0.32756630  0.79110610  1  0  -0.044816  0  3.681685  0  0  -0.109729  0  3.934415  0  0  -0.106111  0  3.944676  0  0  -0.063004  -0.112086  0  3.92714  0
C  C60  1  0.26230797  0.60423510  0.17867346  1  0  0.238755  0  3.696235  0  0  0.241922  0  3.934972  0  0  0.250237  0  3.955475  0  0  0.119341  0.236412  0  3.921024  0
C  C61  1  0.73768970  0.39576421  0.82132725  1  0  0.238848  0  3.696154  0  0  0.24204  0  3.934861  0  0  0.250355  0  3.955361  0  0  0.119366  0.236532  0  3.920908  0
C  C62  1  0.33503056  0.46085847  0.22527706  1  0  -0.162768  0  3.688945  0  0  -0.177078  0  3.930179  0  0  -0.185672  0  3.951225  0  0  -0.084455  -0.171479  0  3.916079  0
C  C63  1  0.66496781  0.53913617  0.77472282  1  0  -0.162685  0  3.688869  0  0  -0.17707  0  3.93012  0  0  -0.185659  0  3.951173  0  0  -0.084477  -0.171475  0  3.91602  0
C  C64  1  0.51237637  0.39475216  0.19176752  1  0  0.014236  0  3.726334  0  0  -0.003621  0  3.97419  0  0  0.001155  0  3.991778  0  0  -0.065764  -0.006483  0  3.962091  0
C  C65  1  0.48762241  0.60524948  0.80823084  1  0  0.014184  0  3.726199  0  0  -0.003672  0  3.974086  0  0  0.001102  0  3.991676  0  0  -0.065761  -0.006533  0  3.961992  0
C  C66  1  0.61449513  0.47466632  0.11368937  1  0  -0.122261  0  3.721276  0  0  -0.135589  0  3.973828  0  0  -0.143552  0  3.994914  0  0  -0.088418  -0.130489  0  3.959762  0
C  C67  1  0.38549922  0.52533649  0.88631252  1  0  -0.122127  0  3.721222  0  0  -0.135443  0  3.973741  0  0  -0.143403  0  3.994833  0  0  -0.088338  -0.130339  0  3.959675  0
C  C68  1  0.53444583  0.61845431  0.07201155  1  0  0.130526  0  3.71712  0  0  0.099323  0  3.970554  0  0  0.10692  0  3.989409  0  0  0.038568  0.094444  0  3.957809  0
C  C69  1  0.46555472  0.38154383  0.92799038  1  0  0.130538  0  3.717144  0  0  0.099339  0  3.970567  0  0  0.106937  0  3.989423  0  0  0.038587  0.094462  0  3.957813  0
Br  Br70  1  0.48269714  0.96616736  0.87753906  1  0  -0.503926  0  1.03485  0  0  -0.440799  0  1.335625  0  0  -0.462041  0  1.31655  0  0  -0.251201  -0.425564  0  1.34847  0
Br  Br71  1  0.51728765  0.03385414  0.12246143  1  0  -0.503906  0  1.034824  0  0  -0.440783  0  1.335618  0  0  -0.462031  0  1.316551  0  0  -0.251201  -0.425546  0  1.348462  0
Br  Br72  1  0.02810293  0.20524586  0.02017752  1  0  -0.51428  0  1.07499  0  0  -0.450158  0  1.370912  0  0  -0.47022  0  1.348949  0  0  -0.243654  -0.4357  0  1.385838  0
Br  Br73  1  0.97189661  0.79474995  0.97982345  1  0  -0.514304  0  1.074972  0  0  -0.450146  0  1.370819  0  0  -0.470205  0  1.348854  0  0  -0.243657  -0.435688  0  1.38575  0
N  N74  1  0.17036219  0.32389348  0.44412645  1  0  -0.439862  0  2.976732  0  0  -0.41119  0  3.243612  0  0  -0.425044  0  3.254452  0  0  -0.331418  -0.401739  0  3.236093  0
N  N75  1  0.82964132  0.67610349  0.55587470  1  0  -0.439834  0  2.976554  0  0  -0.411185  0  3.243423  0  0  -0.425042  0  3.254263  0  0  -0.331397  -0.401736  0  3.23591  0
N  N76  1  0.03526593  0.84286860  0.19550538  1  0  -0.409666  0  3.333836  0  0  -0.339604  0  3.569461  0  0  -0.359474  0  3.581981  0  0  -0.449287  -0.32561  0  3.560271  0
N  N77  1  0.96473039  0.15713071  0.80449412  1  0  -0.409508  0  3.333898  0  0  -0.339561  0  3.569545  0  0  -0.359431  0  3.582069  0  0  -0.449287  -0.325566  0  3.560352  0
N  N78  1  0.36213486  0.68087380  0.10367908  1  0  -0.356572  0  3.28322  0  0  -0.278613  0  3.533307  0  0  -0.300375  0  3.554917  0  0  -0.338463  -0.263887  0  3.518397  0
N  N79  1  0.63786276  0.31912550  0.89632295  1  0  -0.356607  0  3.283217  0  0  -0.278684  0  3.533332  0  0  -0.300447  0  3.554943  0  0  -0.338492  -0.263953  0  3.518408  0
O  O80  1  0.26187741  0.08966207  0.52861328  1  0  -0.262404  0  2.2823  0  0  -0.194042  0  2.499325  0  0  -0.211118  0  2.501635  0  0  -0.122433  -0.182515  0  2.497583  0
O  O81  1  0.73812735  0.91033607  0.47138631  1  0  -0.262401  0  2.282271  0  0  -0.194011  0  2.499316  0  0  -0.21109  0  2.501626  0  0  -0.122437  -0.182491  0  2.497573  0
