# generated using pymatgen
data_LiH3C7(NO3)2
_symmetry_space_group_name_H-M   'P 1'
_cell_length_a   5.80800630
_cell_length_b   10.93842506
_cell_length_c   10.93841788
_cell_angle_alpha   119.99931691
_cell_angle_beta   90.01218434
_cell_angle_gamma   89.98713434
_symmetry_Int_Tables_number   1
_chemical_formula_structural   LiH3C7(NO3)2
_chemical_formula_sum   'Li3 H9 C21 N6 O18'
_cell_volume   601.82467869
_cell_formula_units_Z   3
loop_
 _symmetry_equiv_pos_site_id
 _symmetry_equiv_pos_as_xyz
  1  'x, y, z'
loop_
 _atom_site_type_symbol
 _atom_site_label
 _atom_site_symmetry_multiplicity
 _atom_site_fract_x
 _atom_site_fract_y
 _atom_site_fract_z
 _atom_site_occupancy
 _atom_site_hle17_bader_spin_density
 _atom_site_hle17_ddec_charge
 _atom_site_hle17_ddec_spin_density
 _atom_site_hle17_ddec_sum_bond_order
 _atom_site_hle17_magmom
 _atom_site_hse06_10hf_bader_spin_density
 _atom_site_hse06_10hf_ddec_charge
 _atom_site_hse06_10hf_ddec_spin_density
 _atom_site_hse06_10hf_ddec_sum_bond_order
 _atom_site_hse06_10hf_magmom
 _atom_site_hse06_bader_spin_density
 _atom_site_hse06_ddec_charge
 _atom_site_hse06_ddec_spin_density
 _atom_site_hse06_ddec_sum_bond_order
 _atom_site_hse06_magmom
 _atom_site_pbe_bader_spin_density
 _atom_site_pbe_cm5_charge
 _atom_site_pbe_ddec_charge
 _atom_site_pbe_ddec_spin_density
 _atom_site_pbe_ddec_sum_bond_order
 _atom_site_pbe_magmom
Li  Li0  1  0.99999440  0.09414126  0.09414410  1  0  0.877079  0  0.341369  0  0  0.837916  0  0.440319  0  0  0.848066  0  0.422992  0  0  0.482224  0.830373  0  0.453004  0
Li  Li1  1  0.33339920  0.90591642  0.00004097  1  0  0.877025  0  0.341518  0  0  0.83785  0  0.44053  0  0  0.848071  0  0.423062  0  0  0.482286  0.830319  0  0.453213  0
Li  Li2  1  0.66660134  0.00003830  0.90591917  1  0  0.876993  0  0.341574  0  0  0.837846  0  0.440539  0  0  0.848051  0  0.423101  0  0  0.482299  0.830322  0  0.453225  0
H  H3  1  0.14313319  0.72045213  0.12521049  1  0  0.123856  0  0.954884  0  0  0.12377  0  1.031295  0  0  0.127929  0  1.027499  0  0  0.121974  0.120656  0  1.034249  0
H  H4  1  0.47617809  0.87472716  0.59525518  1  0  0.124143  0  0.954533  0  0  0.124111  0  1.030789  0  0  0.12827  0  1.026989  0  0  0.1221  0.120993  0  1.033746  0
H  H5  1  0.85686116  0.12521682  0.72046926  1  0  0.123908  0  0.954693  0  0  0.12376  0  1.031164  0  0  0.127916  0  1.027379  0  0  0.121966  0.120643  0  1.034128  0
H  H6  1  0.80959990  0.40475873  0.27953783  1  0  0.123695  0  0.954575  0  0  0.123778  0  1.030792  0  0  0.12795  0  1.026968  0  0  0.121947  0.120653  0  1.033763  0
H  H7  1  0.19037565  0.27954405  0.40476240  1  0  0.123756  0  0.95461  0  0  0.123789  0  1.030874  0  0  0.127955  0  1.027071  0  0  0.121935  0.120659  0  1.033861  0
H  H8  1  0.52381768  0.59526232  0.87472923  1  0  0.124124  0  0.954514  0  0  0.124122  0  1.030754  0  0  0.128285  0  1.026939  0  0  0.122128  0.121002  0  1.033711  0
H  H9  1  0.83353618  0.31538405  0.99997943  1  0  0.148968  0  0.950891  0  0  0.146728  0  1.0279  0  0  0.152121  0  1.022385  0  0  0.135963  0.142904  0  1.031733  0
H  H10  1  0.16644727  0.99999922  0.31539674  1  0  0.14902  0  0.95083  0  0  0.146719  0  1.027852  0  0  0.152112  0  1.022345  0  0  0.135947  0.142866  0  1.031709  0
H  H11  1  0.49998986  0.68461551  0.68461958  1  0  0.149049  0  0.951176  0  0  0.146805  0  1.028199  0  0  0.152202  0  1.022635  0  0  0.13604  0.142977  0  1.032034  0
C  C12  1  0.83338387  0.81067798  0.00000655  1  0  0.736469  0  3.865427  0  0  0.687243  0  4.159429  0  0  0.721581  0  4.148255  0  0  0.246665  0.664086  0  4.16627  0
C  C13  1  0.16661950  0.99999486  0.81067370  1  0  0.736499  0  3.865296  0  0  0.687277  0  4.159273  0  0  0.721613  0  4.14811  0  0  0.246748  0.664117  0  4.166115  0
C  C14  1  0.49999384  0.18935478  0.18934985  1  0  0.73628  0  3.865911  0  0  0.687378  0  4.159329  0  0  0.721694  0  4.148195  0  0  0.246845  0.664222  0  4.166187  0
C  C15  1  0.83341060  0.67275528  0.00001107  1  0  -0.037651  0  3.692753  0  0  -0.016213  0  3.931809  0  0  -0.024702  0  3.94993  0  0  0.005974  -0.010909  0  3.91959  0
C  C16  1  0.16657025  0.00000000  0.67275321  1  0  -0.03764  0  3.692777  0  0  -0.016209  0  3.931784  0  0  -0.024696  0  3.949895  0  0  0.005946  -0.010915  0  3.919585  0
C  C17  1  0.49998881  0.32727128  0.32727076  1  0  -0.037472  0  3.692454  0  0  -0.016056  0  3.931463  0  0  -0.02453  0  3.949589  0  0  0.005917  -0.010775  0  3.919291  0
C  C18  1  0.00666465  0.64409383  0.07075088  1  0  -0.038012  0  3.61213  0  0  -0.085252  0  3.878403  0  0  -0.079352  0  3.891541  0  0  -0.046471  -0.088652  0  3.86938  0
C  C19  1  0.33971817  0.92923232  0.57334712  1  0  -0.039114  0  3.613277  0  0  -0.086399  0  3.879433  0  0  -0.080543  0  3.892683  0  0  -0.046798  -0.089743  0  3.870292  0
C  C20  1  0.99332260  0.07075455  0.64409752  1  0  -0.038034  0  3.611961  0  0  -0.085207  0  3.878225  0  0  -0.079296  0  3.891348  0  0  -0.046467  -0.088593  0  3.869186  0
C  C21  1  0.67318479  0.42665472  0.35594156  1  0  -0.038044  0  3.612414  0  0  -0.085483  0  3.878742  0  0  -0.079575  0  3.891875  0  0  -0.04643  -0.088867  0  3.869696  0
C  C22  1  0.32678963  0.35594058  0.42665688  1  0  -0.038008  0  3.612214  0  0  -0.085426  0  3.878555  0  0  -0.079531  0  3.891698  0  0  -0.046384  -0.088811  0  3.869513  0
C  C23  1  0.66026862  0.57334962  0.92923644  1  0  -0.038989  0  3.613208  0  0  -0.086303  0  3.879398  0  0  -0.080444  0  3.892647  0  0  -0.046783  -0.089642  0  3.870251  0
C  C24  1  0.00208168  0.51634869  0.06987866  1  0  0.084089  0  3.695416  0  0  0.069507  0  3.952954  0  0  0.064474  0  3.974441  0  0  0.082277  0.072502  0  3.938477  0
C  C25  1  0.33506003  0.93004198  0.44645630  1  0  0.084873  0  3.695276  0  0  0.070476  0  3.952449  0  0  0.065432  0  3.973957  0  0  0.082539  0.073479  0  3.937956  0
C  C26  1  0.99790533  0.06989275  0.51636329  1  0  0.084153  0  3.695612  0  0  0.069411  0  3.953055  0  0  0.064369  0  3.974546  0  0  0.082311  0.072406  0  3.938572  0
C  C27  1  0.66860189  0.55351267  0.48365682  1  0  0.084032  0  3.695208  0  0  0.069637  0  3.952722  0  0  0.064595  0  3.97423  0  0  0.082414  0.072634  0  3.938233  0
C  C28  1  0.33137993  0.48366165  0.55351884  1  0  0.083953  0  3.695308  0  0  0.069579  0  3.952823  0  0  0.06454  0  3.974321  0  0  0.082383  0.072578  0  3.938333  0
C  C29  1  0.66492649  0.44645492  0.93003694  1  0  0.084589  0  3.695359  0  0  0.070294  0  3.952636  0  0  0.065254  0  3.974143  0  0  0.082457  0.073288  0  3.938164  0
C  C30  1  0.83353289  0.41477192  0.99995910  1  0  -0.09486  0  3.643735  0  0  -0.138526  0  3.912651  0  0  -0.133892  0  3.926222  0  0  -0.053317  -0.141004  0  3.903157  0
C  C31  1  0.16645318  0.99997032  0.41477913  1  0  -0.095045  0  3.643648  0  0  -0.138554  0  3.912419  0  0  -0.133908  0  3.925981  0  0  -0.05337  -0.141014  0  3.902953  0
C  C32  1  0.49998756  0.58522620  0.58523176  1  0  -0.094907  0  3.644054  0  0  -0.138567  0  3.912951  0  0  -0.133886  0  3.926481  0  0  -0.053618  -0.141061  0  3.90347  0
N  N33  1  0.18418565  0.48309854  0.14165003  1  0  0.476087  0  3.946124  0  0  0.530486  0  4.200344  0  0  0.551956  0  4.20864  0  0  0.059624  0.516117  0  4.194792  0
N  N34  1  0.51717540  0.85829934  0.34146890  1  0  0.476181  0  3.946733  0  0  0.530297  0  4.201304  0  0  0.551758  0  4.209615  0  0  0.059459  0.515927  0  4.195753  0
N  N35  1  0.81580091  0.14166693  0.48311154  1  0  0.475553  0  3.947115  0  0  0.530356  0  4.200838  0  0  0.551834  0  4.209122  0  0  0.059502  0.515983  0  4.195294  0
N  N36  1  0.85063885  0.65852855  0.51689595  1  0  0.476715  0  3.946144  0  0  0.530689  0  4.200937  0  0  0.552167  0  4.209222  0  0  0.059418  0.516324  0  4.195378  0
N  N37  1  0.14933621  0.51689901  0.65853538  1  0  0.476781  0  3.945718  0  0  0.530715  0  4.200575  0  0  0.552192  0  4.208861  0  0  0.059488  0.516349  0  4.195015  0
N  N38  1  0.48281315  0.34147202  0.85828861  1  0  0.47642  0  3.946701  0  0  0.530318  0  4.201641  0  0  0.551771  0  4.209958  0  0  0.059414  0.51594  0  4.196099  0
O  O39  1  0.01057326  0.88885503  0.04820733  1  0  -0.771626  0  1.967906  0  0  -0.728002  0  2.213617  0  0  -0.749583  0  2.197854  0  0  -0.407895  -0.712936  0  2.224111  0
O  O40  1  0.34381861  0.95179029  0.84064955  1  0  -0.771621  0  1.968308  0  0  -0.728003  0  2.214023  0  0  -0.74959  0  2.198256  0  0  -0.407989  -0.712932  0  2.224518  0
O  O41  1  0.98942176  0.04820159  0.88886161  1  0  -0.771769  0  1.967567  0  0  -0.728149  0  2.213262  0  0  -0.749729  0  2.197508  0  0  -0.408019  -0.713081  0  2.223763  0
O  O42  1  0.67712819  0.15939308  0.11114176  1  0  -0.771687  0  1.968237  0  0  -0.728149  0  2.213719  0  0  -0.749761  0  2.198061  0  0  -0.40814  -0.713051  0  2.224146  0
O  O43  1  0.32285040  0.11114225  0.15938676  1  0  -0.77174  0  1.968076  0  0  -0.728212  0  2.213599  0  0  -0.749809  0  2.1979  0  0  -0.408082  -0.713109  0  2.224023  0
O  O44  1  0.65618206  0.84065814  0.95179444  1  0  -0.771709  0  1.968158  0  0  -0.728091  0  2.213895  0  0  -0.749678  0  2.198121  0  0  -0.408034  -0.71303  0  2.224396  0
O  O45  1  0.34628075  0.56721255  0.19480172  1  0  -0.339517  0  1.785326  0  0  -0.333216  0  1.98559  0  0  -0.347141  0  1.986099  0  0  -0.12191  -0.323821  0  1.985341  0
O  O46  1  0.67930998  0.80520546  0.37246007  1  0  -0.339491  0  1.786396  0  0  -0.333223  0  1.986826  0  0  -0.34718  0  1.98744  0  0  -0.121701  -0.323826  0  1.986553  0
O  O47  1  0.65370939  0.19482232  0.56722994  1  0  -0.339186  0  1.785842  0  0  -0.333042  0  1.985962  0  0  -0.346985  0  1.986515  0  0  -0.121731  -0.323648  0  1.985726  0
O  O48  1  0.01268381  0.62755994  0.43277101  1  0  -0.339936  0  1.785519  0  0  -0.333566  0  1.985975  0  0  -0.347561  0  1.986623  0  0  -0.121921  -0.324173  0  1.985698  0
O  O49  1  0.98728568  0.43277482  0.62756412  1  0  -0.339931  0  1.785398  0  0  -0.333543  0  1.985885  0  0  -0.347515  0  1.986488  0  0  -0.121899  -0.324145  0  1.985612  0
O  O50  1  0.32069948  0.37246003  0.80518910  1  0  -0.339583  0  1.786773  0  0  -0.333196  0  1.987285  0  0  -0.347173  0  1.98794  0  0  -0.12165  -0.323794  0  1.987014  0
O  O51  1  0.16781619  0.37033333  0.14250567  1  0  -0.349766  0  1.807247  0  0  -0.335785  0  2.007871  0  0  -0.349745  0  2.005888  0  0  -0.096234  -0.326509  0  2.009372  0
O  O52  1  0.50071751  0.85745418  0.22783979  1  0  -0.349872  0  1.8065  0  0  -0.335754  0  2.007134  0  0  -0.349709  0  2.005143  0  0  -0.096387  -0.326529  0  2.008729  0
O  O53  1  0.83216305  0.14251676  0.37034370  1  0  -0.349606  0  1.807499  0  0  -0.335755  0  2.007945  0  0  -0.349739  0  2.005995  0  0  -0.09626  -0.326463  0  2.009411  0
O  O54  1  0.83421005  0.77214841  0.62965761  1  0  -0.349769  0  1.807125  0  0  -0.3356  0  2.007832  0  0  -0.349607  0  2.005886  0  0  -0.096129  -0.326362  0  2.009407  0
O  O55  1  0.16576413  0.62965501  0.77215697  1  0  -0.349782  0  1.806993  0  0  -0.335618  0  2.00775  0  0  -0.34961  0  2.005789  0  0  -0.096186  -0.326392  0  2.00934  0
O  O56  1  0.49926375  0.22783980  0.85745013  1  0  -0.349921  0  1.80615  0  0  -0.335756  0  2.006914  0  0  -0.349687  0  2.004903  0  0  -0.096389  -0.32653  0  2.008531  0
