# generated using pymatgen
data_ZnH8C11N4
_symmetry_space_group_name_H-M   'P 1'
_cell_length_a   16.13619366
_cell_length_b   15.40090182
_cell_length_c   17.68179679
_cell_angle_alpha   89.99921064
_cell_angle_beta   89.99715330
_cell_angle_gamma   72.66029157
_symmetry_Int_Tables_number   1
_chemical_formula_structural   ZnH8C11N4
_chemical_formula_sum   'Zn8 H64 C88 N32'
_cell_volume   4194.44363714
_cell_formula_units_Z   8
loop_
 _symmetry_equiv_pos_site_id
 _symmetry_equiv_pos_as_xyz
  1  'x, y, z'
loop_
 _atom_site_type_symbol
 _atom_site_label
 _atom_site_symmetry_multiplicity
 _atom_site_fract_x
 _atom_site_fract_y
 _atom_site_fract_z
 _atom_site_occupancy
 _atom_site_pbe_bader_charge
 _atom_site_pbe_bader_spin_density
 _atom_site_pbe_cm5_charge
 _atom_site_pbe_ddec_charge
 _atom_site_pbe_ddec_spin_density
 _atom_site_pbe_ddec_sum_bond_order
 _atom_site_pbe_magmom
Zn  Zn0  1  0.48851378  0.55747408  0.91643397  1  1.194037  0  0.74859  0.61626  0  2.491333  0
Zn  Zn1  1  0.51150772  0.44252742  0.08356650  1  1.193978  0  0.748561  0.616218  0  2.491636  0
Zn  Zn2  1  0.01150452  0.94253280  0.41643162  1  1.19419  0  0.748543  0.616114  0  2.49165  0
Zn  Zn3  1  0.98850781  0.05746093  0.58356998  1  1.193988  0  0.748598  0.61616  0  2.491604  0
Zn  Zn4  1  0.31801263  0.48364589  0.02303009  1  1.182861  0  0.734774  0.629199  0  2.406676  0
Zn  Zn5  1  0.68200492  0.51635171  0.97696812  1  1.182605  0  0.734782  0.629155  0  2.407012  0
Zn  Zn6  1  0.81800425  0.98364113  0.47696600  1  1.182514  0  0.734833  0.629269  0  2.406777  0
Zn  Zn7  1  0.18199286  0.01634908  0.52302769  1  1.182961  0  0.734958  0.629363  0  2.407045  0
H  H8  1  0.36355535  0.74044773  0.86695356  1  0.103124  0  0.122852  0.111928  0  0.989623  0
H  H9  1  0.63646862  0.25958536  0.13309272  1  0.102416  0  0.122816  0.111818  0  0.989628  0
H  H10  1  0.53557187  0.50088543  0.72442791  1  0.10347  0  0.120591  0.111123  0  0.985827  0
H  H11  1  0.46446441  0.49908255  0.27558104  1  0.102715  0  0.120554  0.111048  0  0.985807  0
H  H12  1  0.96446308  0.99913172  0.22443028  1  0.103422  0  0.120654  0.111197  0  0.985975  0
H  H13  1  0.03555638  0.00089479  0.77557246  1  0.103294  0  0.120595  0.111029  0  0.985931  0
H  H14  1  0.13646386  0.75959934  0.36688702  1  0.102335  0  0.122831  0.111767  0  0.989864  0
H  H15  1  0.86354715  0.24040926  0.63308008  1  0.103026  0  0.122848  0.111884  0  0.989519  0
H  H16  1  0.48848159  0.61752543  0.17987938  1  0.094752  0  0.115633  0.097883  0  1.049111  0
H  H17  1  0.51144462  0.38248744  0.82009112  1  0.094791  0  0.115521  0.097688  0  1.049108  0
H  H18  1  0.31968946  0.25680773  0.19728229  1  0.05546  0  0.106575  0.093233  0  1.00131  0
H  H19  1  0.68026153  0.74315914  0.80264523  1  0.055051  0  0.106719  0.093221  0  1.000799  0
H  H20  1  0.18023834  0.24317045  0.69733226  1  0.055353  0  0.106728  0.093112  0  1.00116  0
H  H21  1  0.81973695  0.75681782  0.30268914  1  0.054959  0  0.106783  0.093201  0  1.001287  0
H  H22  1  0.01150869  0.88243894  0.67986801  1  0.095198  0  0.115603  0.097758  0  1.049249  0
H  H23  1  0.98850173  0.11755014  0.32012568  1  0.095172  0  0.115609  0.097752  0  1.049191  0
H  H24  1  0.23790629  0.64045712  0.14395286  1  0.081859  0  0.120429  0.106304  0  0.987671  0
H  H25  1  0.76208953  0.35945564  0.85608324  1  0.082217  0  0.120456  0.106549  0  0.987406  0
H  H26  1  0.83925551  0.36967943  0.05703692  1  0.087565  0  0.120801  0.113676  0  0.989758  0
H  H27  1  0.16075999  0.63034317  0.94297769  1  0.0877  0  0.120773  0.113761  0  0.989685  0
H  H28  1  0.66076023  0.13031824  0.55703878  1  0.088258  0  0.120864  0.113813  0  0.989761  0
H  H29  1  0.33925655  0.86966052  0.44297526  1  0.088305  0  0.120785  0.113709  0  0.989754  0
H  H30  1  0.26211377  0.85949731  0.64393701  1  0.082675  0  0.120335  0.106274  0  0.987343  0
H  H31  1  0.73791233  0.14050808  0.35606347  1  0.082628  0  0.120377  0.106265  0  0.987773  0
H  H32  1  0.88125234  0.52601583  0.90850522  1  0.058305  0  0.10073  0.091684  0  1.026269  0
H  H33  1  0.11874435  0.47405123  0.09149187  1  0.06071  0  0.100818  0.091793  0  1.026175  0
H  H34  1  0.41011408  0.27998603  0.01678919  1  0.196908  0  0.117016  0.112834  0  1.068935  0
H  H35  1  0.58993818  0.71999217  0.98323221  1  0.19585  0  0.117122  0.112809  0  1.068723  0
H  H36  1  0.08990977  0.22000625  0.51678739  1  0.196471  0  0.117086  0.112854  0  1.068676  0
H  H37  1  0.91009544  0.77999109  0.48320291  1  0.196566  0  0.117021  0.112736  0  1.068918  0
H  H38  1  0.61874806  0.97400061  0.40850674  1  0.058128  0  0.100699  0.091684  0  1.026186  0
H  H39  1  0.38123779  0.02597786  0.59151183  1  0.06093  0  0.100662  0.091541  0  1.026123  0
H  H40  1  0.99896492  0.44269157  0.24744408  1  0.065029  0  0.089073  0.072104  0  1.007849  0
H  H41  1  0.00099865  0.55730856  0.75253830  1  0.065857  0  0.089041  0.072012  0  1.008229  0
H  H42  1  0.70701325  0.65432735  0.17285071  1  0.026373  0  0.088959  0.073504  0  1.003937  0
H  H43  1  0.29292819  0.34562840  0.82720236  1  0.025746  0  0.08885  0.073396  0  1.0043  0
H  H44  1  0.79294108  0.84558116  0.67275666  1  0.025518  0  0.088712  0.073319  0  1.004157  0
H  H45  1  0.20707052  0.15445909  0.32724098  1  0.026618  0  0.08873  0.073303  0  1.003939  0
H  H46  1  0.50094654  0.05730040  0.74748376  1  0.066382  0  0.089088  0.072128  0  1.008509  0
H  H47  1  0.49906771  0.94273437  0.25248674  1  0.066776  0  0.08898  0.072025  0  1.008534  0
H  H48  1  0.86064809  0.80455086  0.82269203  1  0.045884  0  0.088698  0.073673  0  1.006483  0
H  H49  1  0.13937575  0.19545123  0.17730222  1  0.046013  0  0.088811  0.073682  0  1.006456  0
H  H50  1  0.43095856  0.09690319  0.89458841  1  0.047175  0  0.092304  0.077078  0  1.001998  0
H  H51  1  0.56909134  0.90305758  0.10539736  1  0.047017  0  0.092303  0.07703  0  1.001977  0
H  H52  1  0.06892331  0.40316234  0.39456071  1  0.047352  0  0.092343  0.076977  0  1.002297  0
H  H53  1  0.93104868  0.59685098  0.60542280  1  0.047076  0  0.092387  0.07704  0  1.002074  0
H  H54  1  0.63924231  0.69549326  0.32275817  1  0.045477  0  0.088688  0.073571  0  1.006272  0
H  H55  1  0.36065976  0.30452921  0.67727341  1  0.045845  0  0.088732  0.073648  0  1.006678  0
H  H56  1  0.02946584  0.72906947  0.75942578  1  0.035526  0  0.087112  0.073195  0  1.019551  0
H  H57  1  0.97054375  0.27090347  0.24055999  1  0.035229  0  0.08722  0.073279  0  1.019562  0
H  H58  1  0.26332975  0.17225886  0.83203262  1  0.043352  0  0.09236  0.076937  0  1.001119  0
H  H59  1  0.73668946  0.82766186  0.16799670  1  0.04382  0  0.09245  0.077227  0  1.000953  0
H  H60  1  0.23656900  0.32785973  0.33202513  1  0.044266  0  0.092535  0.077323  0  1.001314  0
H  H61  1  0.76340288  0.67218797  0.66796460  1  0.044316  0  0.092558  0.077212  0  1.001144  0
H  H62  1  0.47047241  0.77103182  0.25942761  1  0.034612  0  0.087164  0.073158  0  1.019485  0
H  H63  1  0.52945752  0.22903686  0.74055929  1  0.035882  0  0.087113  0.072996  0  1.019292  0
H  H64  1  0.39380918  0.67760268  0.37032168  1  0.043734  0  0.099282  0.105251  0  0.997174  0
H  H65  1  0.60621184  0.32241771  0.62964768  1  0.044246  0  0.099381  0.105248  0  0.9974  0
H  H66  1  0.73004148  0.20421469  0.22620021  1  0.020136  0  0.095439  0.088238  0  1.014276  0
H  H67  1  0.27001481  0.79584964  0.77384721  1  0.02037  0  0.095475  0.088336  0  1.014118  0
H  H68  1  0.76997287  0.29575006  0.72620537  1  0.019842  0  0.095424  0.08816  0  1.014311  0
H  H69  1  0.23001162  0.70414153  0.27382961  1  0.020505  0  0.095412  0.088247  0  1.014294  0
H  H70  1  0.10620503  0.82241964  0.87034513  1  0.044318  0  0.099286  0.105098  0  0.997169  0
H  H71  1  0.89381516  0.17759673  0.12964742  1  0.043762  0  0.09938  0.105214  0  0.996972  0
C  C72  1  0.32413471  0.70034548  0.88954645  1  0.406526  0  0.009318  -0.057081  0  3.981584  0
C  C73  1  0.67589021  0.29968152  0.11048739  1  0.408791  0  0.009308  -0.056756  0  3.98142  0
C  C74  1  0.58580863  0.47569545  0.76671332  1  0.350241  0  0.009547  -0.055098  0  3.960187  0
C  C75  1  0.41421555  0.52426890  0.23329733  1  0.349365  0  0.009735  -0.054605  0  3.95989  0
C  C76  1  0.91422026  0.02429660  0.26671343  1  0.349752  0  0.009581  -0.055022  0  3.960452  0
C  C77  1  0.08579864  0.97570297  0.73328365  1  0.349404  0  0.009622  -0.054769  0  3.960496  0
C  C78  1  0.17588472  0.79968417  0.38950448  1  0.408975  0  0.009399  -0.056633  0  3.981247  0
C  C79  1  0.82412778  0.20030889  0.61047563  1  0.407647  0  0.009268  -0.056955  0  3.981497  0
C  C80  1  0.96947531  0.71716209  0.73935354  1  -0.036459  0  -0.086648  -0.091729  0  3.664511  0
C  C81  1  0.03052597  0.28283607  0.26062997  1  -0.035412  0  -0.086723  -0.091807  0  3.664716  0
C  C82  1  0.32246083  0.18597912  0.81218241  1  -0.032155  0  -0.084109  -0.085525  0  3.66613  0
C  C83  1  0.67754020  0.81397389  0.18783334  1  -0.032674  0  -0.084298  -0.08597  0  3.666157  0
C  C84  1  0.17746269  0.31409742  0.31219668  1  -0.031304  0  -0.084368  -0.086192  0  3.66689  0
C  C85  1  0.82251795  0.68593784  0.68779814  1  -0.031513  0  -0.084403  -0.085764  0  3.666491  0
C  C86  1  0.53048957  0.78290067  0.23935626  1  -0.035888  0  -0.086478  -0.091626  0  3.664252  0
C  C87  1  0.46945413  0.21714328  0.76064082  1  -0.03761  0  -0.086426  -0.091123  0  3.664174  0
C  C88  1  0.32646684  0.70331931  0.35130412  1  -0.015553  0  -0.10594  -0.147  0  4.045884  0
C  C89  1  0.67353611  0.29666262  0.64868731  1  -0.017732  0  -0.105975  -0.146911  0  4.045346  0
C  C90  1  0.79686719  0.16838924  0.20961967  1  0.022582  0  -0.098603  -0.119453  0  4.083325  0
C  C91  1  0.20316968  0.83165891  0.79041191  1  0.021324  0  -0.098507  -0.1194  0  4.083212  0
C  C92  1  0.70315502  0.33160145  0.70962581  1  0.023491  0  -0.09867  -0.119425  0  4.082778  0
C  C93  1  0.29684306  0.66833886  0.29040068  1  0.021512  0  -0.098583  -0.119369  0  4.083027  0
C  C94  1  0.17355162  0.79669740  0.85131849  1  -0.017596  0  -0.105872  -0.146645  0  4.045503  0
C  C95  1  0.82648048  0.20333541  0.14870008  1  -0.019401  0  -0.106056  -0.146836  0  4.045794  0
C  C96  1  0.51143376  0.63010307  0.12449464  1  0.426904  0  0.020723  -0.009676  0  3.949387  0
C  C97  1  0.48852908  0.36990720  0.87549735  1  0.427916  0  0.020726  -0.009433  0  3.948983  0
C  C98  1  0.28114238  0.31164137  0.16162860  1  0.480913  0  -0.009904  -0.059176  0  4.068994  0
C  C99  1  0.71882266  0.68833849  0.83833003  1  0.482956  0  -0.010091  -0.059196  0  4.068713  0
C  C100  1  0.21880977  0.18834323  0.66166401  1  0.482456  0  -0.0099  -0.058682  0  4.06878  0
C  C101  1  0.78117872  0.81164189  0.33834664  1  0.483659  0  -0.009898  -0.058818  0  4.069227  0
C  C102  1  0.98855583  0.86989297  0.62447833  1  0.427081  0  0.020702  -0.009587  0  3.949544  0
C  C103  1  0.01145626  0.13010414  0.37551197  1  0.427204  0  0.020654  -0.009605  0  3.949726  0
C  C104  1  0.29881262  0.59589269  0.16562149  1  0.422971  0  0.017506  -0.039873  0  3.973477  0
C  C105  1  0.70119068  0.40403936  0.83439765  1  0.423052  0  0.017246  -0.040667  0  3.973882  0
C  C106  1  0.77921160  0.35500676  0.07100654  1  0.388818  0  0.004019  -0.070444  0  3.967317  0
C  C107  1  0.22080804  0.64501907  0.92899507  1  0.388538  0  0.004013  -0.070675  0  3.967672  0
C  C108  1  0.72080866  0.14498745  0.57100750  1  0.386687  0  0.003954  -0.070785  0  3.967592  0
C  C109  1  0.27921569  0.85498835  0.42899071  1  0.387818  0  0.00405  -0.070504  0  3.96721  0
C  C110  1  0.20119575  0.90407168  0.66560957  1  0.422921  0  0.017328  -0.040282  0  3.974211  0
C  C111  1  0.79881210  0.09594445  0.33439373  1  0.422695  0  0.017361  -0.040222  0  3.973727  0
C  C112  1  0.82232827  0.57791461  0.89141634  1  0.339083  0  -0.028361  -0.095493  0  4.059591  0
C  C113  1  0.17765884  0.42213660  0.10857452  1  0.334904  0  -0.028518  -0.095802  0  4.059003  0
C  C114  1  0.43835983  0.31423355  0.97468917  1  0.319356  0  0.002768  -0.04253  0  3.895427  0
C  C115  1  0.56166084  0.68575181  0.02532714  1  0.321191  0  0.002686  -0.042346  0  3.895293  0
C  C116  1  0.06165246  0.18575707  0.47469139  1  0.319675  0  0.002709  -0.042453  0  3.895354  0
C  C117  1  0.93836377  0.81423114  0.52529834  1  0.31874  0  0.002836  -0.042306  0  3.895416  0
C  C118  1  0.67767952  0.92209813  0.39141697  1  0.338887  0  -0.028375  -0.095531  0  4.059107  0
C  C119  1  0.32230626  0.07789517  0.60859199  1  0.336191  0  -0.028291  -0.095211  0  4.058411  0
C  C120  1  0.23332727  0.72003478  0.89050598  1  0.0004  0  -0.039329  0.016154  0  4.127208  0
C  C121  1  0.76670101  0.28000086  0.10953012  1  0.00283  0  -0.03916  0.016055  0  4.127551  0
C  C122  1  0.66294879  0.40247856  0.76294602  1  0.030867  0  -0.039593  0.003081  0  4.131354  0
C  C123  1  0.33705771  0.59746281  0.23707029  1  0.031359  0  -0.039748  0.002595  0  4.131467  0
C  C124  1  0.83707242  0.09751037  0.26294869  1  0.030908  0  -0.039612  0.002965  0  4.131191  0
C  C125  1  0.16295062  0.90251669  0.73705913  1  0.032045  0  -0.039785  0.002618  0  4.131796  0
C  C126  1  0.26670017  0.77998516  0.39046783  1  -0.000446  0  -0.039191  0.016148  0  4.127613  0
C  C127  1  0.73332280  0.21999608  0.60951964  1  0.00035  0  -0.039148  0.016322  0  4.127269  0
C  C128  1  0.54141776  0.70304201  0.10155899  1  -0.008728  0  -0.031857  -0.036986  0  4.046723  0
C  C129  1  0.45856006  0.29695090  0.89844261  1  -0.010547  0  -0.031779  -0.036757  0  4.04581  0
C  C130  1  0.19251068  0.36199859  0.16992815  1  -0.058076  0  -0.051032  -0.060219  0  4.098603  0
C  C131  1  0.80747334  0.63802105  0.83004914  1  -0.059109  0  -0.051048  -0.060222  0  4.098201  0
C  C132  1  0.30744990  0.13802417  0.66995837  1  -0.059162  0  -0.051248  -0.060842  0  4.098429  0
C  C133  1  0.69255437  0.86196715  0.33005681  1  -0.058966  0  -0.051248  -0.06076  0  4.09897  0
C  C134  1  0.95859360  0.79694375  0.60152949  1  -0.009891  0  -0.031719  -0.036553  0  4.046183  0
C  C135  1  0.04142770  0.20304159  0.39845345  1  -0.010068  0  -0.031787  -0.036649  0  4.046573  0
C  C136  1  0.87676756  0.75971341  0.77334238  1  -0.049762  0  -0.088553  -0.094049  0  3.67606  0
C  C137  1  0.12323522  0.24029346  0.22665017  1  -0.049649  0  -0.088563  -0.093969  0  3.676363  0
C  C138  1  0.41525995  0.14369435  0.84645190  1  -0.029861  0  -0.080518  -0.082731  0  3.646905  0
C  C139  1  0.58476118  0.85629166  0.15355197  1  -0.030097  0  -0.080433  -0.082433  0  3.647167  0
C  C140  1  0.08466412  0.35637086  0.34642419  1  -0.032248  0  -0.080538  -0.08248  0  3.647646  0
C  C141  1  0.91531499  0.64365098  0.65355366  1  -0.031853  0  -0.080678  -0.082768  0  3.647322  0
C  C142  1  0.62318494  0.74030612  0.27338087  1  -0.048594  0  -0.088531  -0.09397  0  3.675421  0
C  C143  1  0.37675497  0.25970898  0.72663884  1  -0.050126  0  -0.088578  -0.094307  0  3.676652  0
C  C144  1  0.04646239  0.37855322  0.26427040  1  -0.062282  0  -0.081423  -0.082327  0  3.642089  0
C  C145  1  0.95351554  0.62145383  0.73571255  1  -0.062953  0  -0.081277  -0.082022  0  3.641939  0
C  C146  1  0.66234042  0.71885268  0.19243413  1  -0.030113  0  -0.085404  -0.087187  0  3.667266  0
C  C147  1  0.33761398  0.28112755  0.80759745  1  -0.03106  0  -0.085216  -0.086873  0  3.667539  0
C  C148  1  0.83764215  0.78109672  0.69238306  1  -0.030395  0  -0.085136  -0.087041  0  3.667321  0
C  C149  1  0.16236545  0.21893491  0.30760271  1  -0.031308  0  -0.085223  -0.086823  0  3.667284  0
C  C150  1  0.45346018  0.12144430  0.76429208  1  -0.063283  0  -0.081526  -0.082544  0  3.642454  0
C  C151  1  0.54652254  0.87857067  0.23567843  1  -0.064304  0  -0.081531  -0.082455  0  3.642724  0
C  C152  1  0.14026155  0.33640903  0.22944507  1  0.052385  0  -0.001579  0.085301  0  3.680533  0
C  C153  1  0.85972719  0.66362124  0.77052882  1  0.052504  0  -0.001683  0.085046  0  3.680477  0
C  C154  1  0.56852277  0.76042590  0.15710709  1  0.031457  0  -0.001496  0.082596  0  3.681753  0
C  C155  1  0.43144209  0.23957890  0.84288773  1  0.03358  0  -0.001639  0.082267  0  3.682511  0
C  C156  1  0.93148253  0.73955559  0.65708832  1  0.033665  0  -0.001516  0.082266  0  3.682006  0
C  C157  1  0.06852185  0.26043775  0.34290310  1  0.032925  0  -0.001583  0.082148  0  3.681792  0
C  C158  1  0.35969634  0.16363430  0.72946780  1  0.053539  0  -0.001658  0.085471  0  3.681294  0
C  C159  1  0.64029410  0.83637232  0.27055077  1  0.052575  0  -0.001561  0.085377  0  3.680185  0
N  N160  1  0.36218773  0.62017841  0.92290421  1  -0.80588  0  -0.280011  -0.167036  0  3.611032  0
N  N161  1  0.63783309  0.37985007  0.07713133  1  -0.807432  0  -0.279934  -0.167095  0  3.611193  0
N  N162  1  0.57947737  0.51606778  0.83555343  1  -0.774895  0  -0.277872  -0.187444  0  3.543179  0
N  N163  1  0.42054887  0.48389582  0.16445213  1  -0.774536  0  -0.278488  -0.188537  0  3.543514  0
N  N164  1  0.92054258  0.98392543  0.33554914  1  -0.774828  0  -0.278294  -0.188114  0  3.54367  0
N  N165  1  0.07945672  0.01607078  0.66444115  1  -0.774873  0  -0.278003  -0.187763  0  3.543323  0
N  N166  1  0.13783104  0.87985207  0.42286562  1  -0.807311  0  -0.279963  -0.16707  0  3.61119  0
N  N167  1  0.86218755  0.12014145  0.57712015  1  -0.806877  0  -0.279914  -0.166962  0  3.611592  0
N  N168  1  0.51648440  0.57142149  0.06791930  1  -0.825377  0  -0.294311  -0.207709  0  3.588731  0
N  N169  1  0.48350628  0.42858175  0.93207383  1  -0.825003  0  -0.294234  -0.207841  0  3.588967  0
N  N170  1  0.31664722  0.33785289  0.10112349  1  -0.747699  0  -0.273818  -0.231482  0  3.36039  0
N  N171  1  0.68330363  0.66213150  0.89882383  1  -0.749567  0  -0.27372  -0.231466  0  3.360715  0
N  N172  1  0.18330557  0.16211929  0.60116558  1  -0.74937  0  -0.27388  -0.231776  0  3.360674  0
N  N173  1  0.81667437  0.83785803  0.39884394  1  -0.749897  0  -0.273793  -0.23146  0  3.361062  0
N  N174  1  0.98352201  0.92856362  0.56790227  1  -0.825175  0  -0.294264  -0.207757  0  3.588922  0
N  N175  1  0.01648675  0.07142956  0.43208746  1  -0.825378  0  -0.294195  -0.20766  0  3.588519  0
N  N176  1  0.34927181  0.52968990  0.12313812  1  -0.812767  0  -0.281075  -0.176094  0  3.625991  0
N  N177  1  0.65074434  0.47026462  0.87687423  1  -0.814431  0  -0.281345  -0.176505  0  3.626388  0
N  N178  1  0.70166467  0.41532518  0.05251660  1  -0.794433  0  -0.272747  -0.17503  0  3.563749  0
N  N179  1  0.29835225  0.58469669  0.94749292  1  -0.793757  0  -0.272589  -0.174972  0  3.563728  0
N  N180  1  0.79835759  0.08466482  0.55251477  1  -0.792956  0  -0.272847  -0.175071  0  3.564049  0
N  N181  1  0.20166610  0.91531841  0.44747835  1  -0.79448  0  -0.272761  -0.175101  0  3.56373  0
N  N182  1  0.15073978  0.97026541  0.62312645  1  -0.814182  0  -0.281253  -0.176237  0  3.62695  0
N  N183  1  0.84927224  0.02972227  0.37687176  1  -0.814005  0  -0.281117  -0.176134  0  3.626282  0
N  N184  1  0.74730797  0.59381339  0.93275377  1  -0.820607  0  -0.308451  -0.231936  0  3.635366  0
N  N185  1  0.25267358  0.40619892  0.06721843  1  -0.820607  0  -0.308431  -0.231882  0  3.635002  0
N  N186  1  0.45098943  0.39619003  0.99494576  1  -0.849584  0  -0.302071  -0.216875  0  3.560327  0
N  N187  1  0.54903740  0.60380523  0.00505811  1  -0.849707  0  -0.302121  -0.216881  0  3.560021  0
N  N188  1  0.04902504  0.10381475  0.49495162  1  -0.849331  0  -0.302132  -0.216966  0  3.560379  0
N  N189  1  0.95098938  0.89618295  0.50503754  1  -0.849305  0  -0.302159  -0.216996  0  3.560542  0
N  N190  1  0.75268842  0.90618240  0.43276231  1  -0.820877  0  -0.308434  -0.231905  0  3.635681  0
N  N191  1  0.24729131  0.09379090  0.56723930  1  -0.821108  0  -0.308522  -0.231977  0  3.634897  0
