# generated using pymatgen
data_CuH14C14(N2Cl)2
_symmetry_space_group_name_H-M   'P 1'
_cell_length_a   8.60694434
_cell_length_b   12.80311256
_cell_length_c   13.13130000
_cell_angle_alpha   90.00000000
_cell_angle_beta   92.75004611
_cell_angle_gamma   90.00000000
_symmetry_Int_Tables_number   1
_chemical_formula_structural   CuH14C14(N2Cl)2
_chemical_formula_sum   'Cu4 H56 C56 N16 Cl8'
_cell_volume   1445.34604000
_cell_formula_units_Z   4
loop_
 _symmetry_equiv_pos_site_id
 _symmetry_equiv_pos_as_xyz
  1  'x, y, z'
loop_
 _atom_site_type_symbol
 _atom_site_label
 _atom_site_symmetry_multiplicity
 _atom_site_fract_x
 _atom_site_fract_y
 _atom_site_fract_z
 _atom_site_occupancy
 _atom_site_hle17_ddec_charge
 _atom_site_hle17_ddec_spin_density
 _atom_site_hle17_ddec_sum_bond_order
 _atom_site_hle17_magmom
 _atom_site_hse06_10hf_ddec_charge
 _atom_site_hse06_10hf_ddec_spin_density
 _atom_site_hse06_10hf_ddec_sum_bond_order
 _atom_site_hse06_10hf_magmom
 _atom_site_hse06_ddec_charge
 _atom_site_hse06_ddec_spin_density
 _atom_site_hse06_ddec_sum_bond_order
 _atom_site_hse06_magmom
 _atom_site_pbe_bader_charge
 _atom_site_pbe_bader_spin_density
 _atom_site_pbe_cm5_charge
 _atom_site_pbe_ddec_charge
 _atom_site_pbe_ddec_spin_density
 _atom_site_pbe_ddec_sum_bond_order
 _atom_site_pbe_magmom
Cu  Cu0  1  0.98655325  0.30360274  0.84019626  1  0.705507  0.622801  1.942243  0.44  0.674357  0.728924  2.37996  0.561  0.768371  0.805831  2.301837  0.648  0.913388  0.513358  0.610921  0.621473  0.680673  2.429836  0.511
Cu  Cu1  1  0.51345394  0.80355460  0.65980229  1  0.705709  -0.656067  1.942193  -0.44  0.674242  -0.756407  2.379995  -0.561  0.768189  -0.855526  2.302063  -0.648  0.912971  -0.512367  0.610809  0.621348  -0.693143  2.429834  -0.51
Cu  Cu2  1  0.01345464  0.69644080  0.15980871  1  0.705527  0.622272  1.942226  0.44  0.674234  0.728634  2.38004  0.561  0.768162  0.805745  2.302079  0.648  0.91318  0.512415  0.61078  0.621343  0.679462  2.429875  0.51
Cu  Cu3  1  0.48655163  0.19640224  0.34019499  1  0.705549  0.622781  1.94223  0.44  0.674354  0.728909  2.379976  0.561  0.768373  0.805811  2.301917  0.648  0.91339  0.513413  0.610912  0.621492  0.680702  2.429843  0.511
H  H4  1  0.92459117  0.28278827  0.22547210  1  0.110774  0.000535  0.975889  0.001  0.119781  0.000645  1.042805  0.001  0.123558  0.00051  1.038121  0.001  0.157065  0.001278  0.113492  0.117139  0.000733  1.045888  0.001
H  H5  1  0.57523805  0.78274560  0.27448582  1  0.110703  -0.000594  0.975684  -0.001  0.119741  -0.000415  1.04259  -0.001  0.123509  -0.000333  1.037942  -0.001  0.161383  -0.000965  0.113407  0.117093  -0.000472  1.045673  -0.001
H  H6  1  0.07521898  0.71724590  0.77449010  1  0.110744  0.000539  0.975482  0.001  0.119741  0.000379  1.042454  0.001  0.123518  0.00029  1.037794  0.001  0.161334  0.000968  0.113389  0.117097  0.000445  1.045528  0.001
H  H7  1  0.42460351  0.21721593  0.72547203  1  0.110793  0.00054  0.975838  0.001  0.119781  0.000652  1.042762  0.001  0.123566  0.000515  1.038059  0.001  0.156936  0.001274  0.113495  0.117113  0.000741  1.045875  0.001
H  H8  1  0.14190246  0.44222840  0.20186797  1  0.124713  0.000214  0.975594  0.0  0.134013  0.000233  1.037107  0.0  0.136953  0.000154  1.037082  0.0  0.117688  0.000668  0.103043  0.131869  0.000298  1.037441  0.0
H  H9  1  0.35798517  0.94220526  0.29814190  1  0.124619  -0.000458  0.975573  0.0  0.133857  -0.000333  1.037135  0.0  0.136797  -0.000255  1.037106  0.0  0.117615  -0.000695  0.103022  0.131692  -0.000384  1.037485  0.0
H  H10  1  0.85796818  0.55778780  0.79815172  1  0.124819  0.000235  0.975629  0.0  0.134073  0.000246  1.037132  0.0  0.137014  0.000164  1.037102  0.0  0.117669  0.000673  0.103102  0.131929  0.00031  1.037465  0.0
H  H11  1  0.64192502  0.05778126  0.70186838  1  0.124761  0.000416  0.975534  0.0  0.13404  0.00031  1.037075  0.0  0.136971  0.000234  1.037059  0.0  0.117685  0.000689  0.103051  0.131871  0.000361  1.037434  0.0
H  H12  1  0.17226875  0.44943993  0.99558374  1  0.100203  -0.000279  0.964564  0.0  0.110444  -0.000163  1.026568  0.0  0.112514  -0.000138  1.02442  0.0  0.107135  7.5e-05  0.114491  0.108817  -0.000169  1.028208  0.0
H  H13  1  0.32782360  0.94948162  0.50444704  1  0.100131  0.000152  0.964324  0.0  0.110276  8.9e-05  1.026517  0.0  0.112421  6.1e-05  1.024289  0.0  0.107142  -0.000121  0.114456  0.108662  0.000102  1.028097  0.0
H  H14  1  0.82781940  0.55051066  0.00445574  1  0.100055  -0.000228  0.964436  0.0  0.110253  -0.000102  1.026581  0.0  0.112355  -8.4e-05  1.024422  0.0  0.106917  0.000143  0.114422  0.108644  -0.000104  1.028163  0.0
H  H15  1  0.67228549  0.05056817  0.49558167  1  0.100245  -0.000138  0.964361  0.0  0.110385  -5.3e-05  1.026512  0.0  0.112472  -4.6e-05  1.024344  0.0  0.107286  0.000171  0.114486  0.108753  -4.9e-05  1.028139  0.0
H  H16  1  0.95404552  0.16335168  0.47100401  1  0.114522  0.000775  0.972964  0.001  0.123226  0.000847  1.040239  0.0  0.127119  0.000629  1.035853  0.0  0.170621  0.001222  0.112807  0.120533  0.001001  1.043178  0.001
H  H17  1  0.54603495  0.66341290  0.02902959  1  0.114399  9.8e-05  0.97323  0.0  0.123158  0.000222  1.040423  0.0  0.127061  0.000176  1.036016  0.0  0.16987  -0.000128  0.112695  0.120441  0.000251  1.043422  0.0
H  H18  1  0.04602751  0.83657157  0.52904108  1  0.114384  -0.000188  0.973185  0.0  0.12323  -0.000281  1.040285  0.0  0.12711  -0.000234  1.035912  0.0  0.169718  0.000119  0.112814  0.120511  -0.000307  1.043274  0.0
H  H19  1  0.45407298  0.33663689  0.97099528  1  0.114386  0.000739  0.973036  0.0  0.123178  0.000814  1.040197  0.0  0.127071  0.000604  1.035815  0.0  0.170613  0.00121  0.112833  0.120483  0.000961  1.043147  0.001
H  H20  1  0.13623888  0.02157366  0.58433743  1  0.126064  8.1e-05  0.984731  0.001  0.136634  3.5e-05  1.042051  0.0  0.139607  3.2e-05  1.041555  0.0  0.093188  0.000564  0.10091  0.134569  3.5e-05  1.042443  0.001
H  H21  1  0.36375925  0.52163253  0.91576730  1  0.125908  -0.000186  0.98489  -0.001  0.1364  -9.9e-05  1.042373  0.0  0.139356  -0.000101  1.041917  0.0  0.09204  -0.000585  0.100813  0.134357  -8.6e-05  1.042733  -0.001
H  H22  1  0.86371667  0.97834491  0.41579459  1  0.125844  0.000886  0.98483  0.001  0.136381  0.000851  1.042262  0.001  0.139344  0.000618  1.041788  0.001  0.091971  0.001639  0.100842  0.134339  0.001029  1.042604  0.001
H  H23  1  0.63626958  0.47841023  0.08432515  1  0.126043  0.000904  0.984812  0.001  0.136598  0.00086  1.042148  0.001  0.139569  0.000629  1.04166  0.001  0.092608  0.001669  0.100889  0.134539  0.001037  1.042531  0.001
H  H24  1  0.13531414  0.09893532  0.77822898  1  0.094226  -0.000216  0.965241  0.0  0.105067  -8.4e-05  1.029289  0.0  0.106175  -9.1e-05  1.028357  0.0  0.09517  0.000107  0.11709  0.104  -6.9e-05  1.030285  0.0
H  H25  1  0.36465142  0.59891374  0.72184502  1  0.093979  0.000204  0.965451  0.0  0.104639  8.2e-05  1.02972  0.0  0.10575  7.8e-05  1.028783  0.0  0.095865  -9.2e-05  0.116944  0.103606  7.4e-05  1.030694  0.0
H  H26  1  0.86464257  0.90108792  0.22185815  1  0.093999  -0.000161  0.965549  0.0  0.104615  3.3e-05  1.029849  0.0  0.105725  -5e-06  1.028913  0.0  0.095782  0.000264  0.116942  0.103561  7.4e-05  1.030838  0.0
H  H27  1  0.63529250  0.40107357  0.27822800  1  0.094324  -0.000162  0.965133  0.0  0.105178  4e-05  1.029134  0.0  0.106286  -2e-06  1.028201  0.0  0.09519  0.000281  0.117157  0.104135  8.5e-05  1.030099  0.0
H  H28  1  0.74769291  0.21112679  0.97812260  1  0.091084  -0.000321  0.964681  0.0  0.099783  -0.000315  1.040179  0.0  0.101349  -0.000322  1.039436  0.0  0.092976  -0.000234  0.101882  0.098613  -0.00028  1.040813  0.0
H  H29  1  0.75231660  0.71113957  0.52182957  1  0.091262  0.0003  0.964559  0.0  0.099945  0.000294  1.040007  0.0  0.101494  0.000287  1.039279  0.0  0.09308  0.000232  0.101932  0.098771  0.00027  1.040629  0.0
H  H30  1  0.25230917  0.78885661  0.02182888  1  0.091194  -0.000317  0.964647  0.0  0.0999  -0.000308  1.040088  0.0  0.101464  -0.000304  1.039344  0.0  0.093213  -0.000237  0.101934  0.098738  -0.000284  1.040713  0.0
H  H31  1  0.24769246  0.28886882  0.47812365  1  0.091088  -0.000314  0.964659  0.0  0.099784  -0.000307  1.040138  0.0  0.101351  -0.000315  1.039392  0.0  0.092966  -0.00023  0.101884  0.098603  -0.000272  1.04077  0.0
H  H32  1  0.75957376  0.17929624  0.11076950  1  0.100724  -0.00015  0.939456  0.0  0.112649  -0.000109  1.007779  0.0  0.114274  -0.000101  1.007405  0.0  0.091901  -5.4e-05  0.110286  0.111558  -0.00011  1.008006  0.0
H  H33  1  0.74041366  0.67929029  0.38918883  1  0.100954  -0.000186  0.9397  0.0  0.112943  -5.7e-05  1.007862  0.0  0.114574  -3.8e-05  1.007472  0.0  0.092121  2e-06  0.11038  0.111841  -7.2e-05  1.008083  0.0
H  H34  1  0.24040273  0.82069575  0.88918575  1  0.100822  0.000173  0.939609  0.0  0.112827  4.4e-05  1.007817  0.0  0.114455  2.6e-05  1.007432  0.0  0.091954  6e-06  0.110294  0.111733  5.9e-05  1.008049  0.0
H  H35  1  0.25956981  0.32069389  0.61077120  1  0.100738  -0.000142  0.939452  0.0  0.1126  -0.0001  1.007827  0.0  0.11423  -9.4e-05  1.007443  0.0  0.091792  -5.8e-05  0.110243  0.111502  -0.000101  1.008043  0.0
H  H36  1  0.01357096  0.07565895  0.17462507  1  0.099789  0.001113  0.958575  0.0  0.111652  0.001219  1.018906  0.0  0.115201  0.000934  1.016838  0.0  0.10995  0.001402  0.095465  0.109263  0.001429  1.020227  0.0
H  H37  1  0.48640739  0.57567330  0.32535719  1  0.099924  0.001093  0.958569  0.0  0.111805  0.001222  1.018875  0.0  0.115358  0.000934  1.016799  0.0  0.109515  0.001404  0.09542  0.109375  0.001432  1.020216  0.0
H  H38  1  0.98640669  0.92432836  0.82535230  1  0.099834  -0.001146  0.958644  0.0  0.111732  -0.001256  1.018941  0.0  0.11529  -0.000978  1.01686  0.0  0.10947  -0.001406  0.0954  0.109321  -0.001451  1.020289  0.0
H  H39  1  0.51355979  0.42433900  0.67463203  1  0.099766  0.001097  0.958539  0.0  0.111642  0.001216  1.018879  0.0  0.115202  0.000925  1.016805  0.0  0.109806  0.001421  0.09542  0.10922  0.00143  1.020211  0.0
H  H40  1  0.83770537  0.08488092  0.86204581  1  0.091977  -0.000213  0.960349  0.0  0.100671  -0.000186  1.026988  0.0  0.10319  -0.000195  1.02655  0.0  0.07354  -0.000208  0.098413  0.098665  -0.000163  1.02781  0.0
H  H41  1  0.66228088  0.58488512  0.63793838  1  0.092007  0.000211  0.960433  0.0  0.100631  0.000191  1.027125  0.0  0.103176  0.000189  1.026654  0.0  0.073683  0.000245  0.098431  0.098584  0.000175  1.027982  0.0
H  H42  1  0.16227810  0.91510638  0.13793174  1  0.091977  -0.000225  0.960461  0.0  0.100593  -0.000179  1.027162  0.0  0.103122  -0.000193  1.026709  0.0  0.07377  -0.000162  0.098438  0.098578  -0.00015  1.028004  0.0
H  H43  1  0.33770026  0.41512249  0.36205128  1  0.092054  -0.000217  0.960305  0.0  0.100696  -0.000168  1.026984  0.0  0.103204  -0.000186  1.02657  0.0  0.073477  -0.000118  0.098439  0.0987  -0.000132  1.027778  0.0
H  H44  1  0.77867570  0.34672741  0.65559432  1  0.093542  -0.000275  0.996808  0.0  0.103382  -0.000177  1.07049  0.0  0.105118  -0.000175  1.069609  0.0  0.120699  3.9e-05  0.099814  0.102085  -0.000163  1.071298  0.0
H  H45  1  0.72134894  0.84674800  0.84438879  1  0.0937  0.000297  0.996676  0.0  0.103488  0.000194  1.070388  0.0  0.105195  0.000182  1.069497  0.0  0.120889  -1e-05  0.099944  0.102203  0.000191  1.071191  0.0
H  H46  1  0.22136360  0.65326302  0.34438498  1  0.093691  -0.000283  0.996537  0.0  0.103453  -0.00018  1.070326  0.0  0.105161  -0.000175  1.069434  0.0  0.120753  4.3e-05  0.099962  0.102165  -0.000171  1.071108  0.0
H  H47  1  0.27866710  0.15328148  0.15559816  1  0.093577  -0.000269  0.996925  0.0  0.103439  -0.000175  1.070553  0.0  0.105167  -0.000173  1.069677  0.0  0.120882  4e-05  0.099817  0.102148  -0.000161  1.071376  0.0
H  H48  1  0.74942258  0.29415113  0.53075366  1  0.092254  -0.000213  0.942618  0.0  0.101254  -0.000175  1.015339  0.0  0.101836  -0.000166  1.016258  0.0  0.105854  -0.0002  0.111341  0.100776  -0.000169  1.014873  0.0
H  H49  1  0.75062532  0.79418266  0.96923246  1  0.092205  -7.5e-05  0.942906  0.0  0.10116  -6e-05  1.015621  0.0  0.10171  -7e-05  1.016533  0.0  0.105529  2.3e-05  0.111263  0.100688  -4.4e-05  1.015154  0.0
H  H50  1  0.25063882  0.70582446  0.46922938  1  0.092276  7.9e-05  0.942951  0.0  0.101266  6.2e-05  1.015613  0.0  0.101818  6.8e-05  1.016522  0.0  0.105202  -8e-06  0.111301  0.100787  5e-05  1.015141  0.0
H  H51  1  0.24940584  0.20585307  0.03075649  1  0.09226  -0.0002  0.94258  0.0  0.101237  -0.000166  1.015321  0.0  0.10181  -0.000158  1.016244  0.0  0.105709  -0.000189  0.111329  0.100767  -0.000158  1.014859  0.0
H  H52  1  0.84924075  0.37670137  0.38769091  1  0.085948  -0.000107  0.971104  0.0  0.096054  -7.5e-05  1.03702  0.0  0.098554  -7.6e-05  1.036136  0.0  0.05657  -2e-06  0.094617  0.094197  -6.9e-05  1.037751  0.0
H  H53  1  0.65079436  0.87672118  0.11229176  1  0.085978  -0.000122  0.971351  0.0  0.096076  -0.000125  1.037201  0.0  0.09859  -0.000114  1.03633  0.0  0.056667  -7.3e-05  0.094577  0.094247  -0.000126  1.037921  0.0
H  H54  1  0.15081135  0.62328516  0.61228803  1  0.086124  0.000117  0.971222  0.0  0.096181  0.00012  1.037131  0.0  0.098691  0.000107  1.036258  0.0  0.056558  9.8e-05  0.094624  0.094319  0.00012  1.037869  0.0
H  H55  1  0.34922633  0.12330517  0.88769305  1  0.0862  -0.000106  0.970967  0.0  0.096234  -7.2e-05  1.036909  0.0  0.098727  -7.2e-05  1.036037  0.0  0.056455  -2.6e-05  0.094716  0.094432  -6.5e-05  1.0376  0.0
H  H56  1  0.01861340  0.47102374  0.68737036  1  0.082156  -0.000187  0.985201  0.0  0.086248  -0.000103  1.063245  0.0  0.088425  -0.00012  1.061904  0.0  0.032018  -3.1e-05  0.091151  0.084223  -8.2e-05  1.06494  0.0
H  H57  1  0.48138706  0.97102169  0.81261488  1  0.082147  0.000251  0.985298  0.0  0.086277  0.000175  1.063263  0.0  0.088452  0.000162  1.061929  0.0  0.032047  0.000142  0.091214  0.08429  0.000177  1.064934  0.0
H  H58  1  0.98140613  0.52898231  0.31261289  1  0.0821  -0.000186  0.985296  0.0  0.086276  -0.000104  1.063246  0.0  0.088453  -0.000119  1.061908  0.0  0.031923  -3.6e-05  0.09118  0.084248  -8.3e-05  1.064942  0.0
H  H59  1  0.51859990  0.02898592  0.18737268  1  0.082123  -0.000248  0.985217  0.0  0.086242  -0.000166  1.063229  0.0  0.088418  -0.000158  1.061889  0.0  0.032183  -0.000133  0.091169  0.084246  -0.000166  1.064916  0.0
C  C60  1  0.97342198  0.31602003  0.15795820  1  0.021896  0.001918  3.641094  0.002  -0.034457  0.002293  3.891677  0.003  -0.024583  0.000968  3.903383  0.001  0.297363  0.004106  0.027992  -0.040155  0.003365  3.882826  0.003
C  C61  1  0.52647238  0.81599845  0.34202385  1  0.022034  -0.001964  3.641373  -0.002  -0.034361  -0.002221  3.892079  -0.002  -0.024469  -0.000995  3.90372  -0.001  0.292515  -0.003668  0.027978  -0.040079  -0.003169  3.883255  -0.003
C  C62  1  0.02645564  0.68399539  0.84202744  1  0.022322  0.001868  3.640681  0.002  -0.033958  0.002183  3.891301  0.002  -0.024077  0.00091  3.902959  0.001  0.29268  0.003905  0.02812  -0.039646  0.003206  3.882437  0.003
C  C63  1  0.47343548  0.18398339  0.65795665  1  0.021882  0.001802  3.641356  0.002  -0.03441  0.002219  3.891926  0.002  -0.024519  0.000903  3.903598  0.001  0.297164  0.003897  0.027976  -0.040112  0.00327  3.883079  0.003
C  C64  1  0.08207484  0.39449704  0.14439263  1  -0.199274  0.004705  3.769392  0.005  -0.218026  0.001819  4.038806  0.002  -0.228832  0.00129  4.059283  0.002  0.047601  0.003317  -0.116418  -0.211061  0.002321  4.024757  0.002
C  C65  1  0.41786048  0.89448327  0.35560884  1  -0.199189  -0.00481  3.769748  -0.004  -0.217781  -0.002044  4.039071  -0.002  -0.228567  -0.001622  4.059546  -0.002  0.047005  -0.003173  -0.116301  -0.210871  -0.002384  4.025105  -0.002
C  C66  1  0.91784582  0.60551135  0.85561797  1  -0.199751  0.004304  3.770085  0.004  -0.218385  0.001785  4.039462  0.002  -0.229168  0.001304  4.059925  0.001  0.047304  0.003054  -0.116459  -0.211454  0.002209  4.025463  0.002
C  C67  1  0.58209390  0.10551340  0.64439064  1  -0.199337  0.004945  3.769521  0.005  -0.218072  0.002003  4.038893  0.002  -0.228865  0.001508  4.059367  0.002  0.047691  0.003434  -0.116351  -0.211123  0.002442  4.024876  0.002
C  C68  1  0.09990192  0.39881396  0.03913129  1  0.063096  -0.004726  3.739622  -0.004  0.020512  -0.000702  4.021781  0.0  0.032227  -0.001632  4.038035  -0.001  0.430588  9e-06  0.016439  0.013484  4.8e-05  4.010801  0.001
C  C69  1  0.40013692  0.89883768  0.46088105  1  0.063367  0.004211  3.739782  0.004  0.020882  0.000532  4.021823  0.0  0.032525  0.00139  4.038042  0.001  0.430635  4.3e-05  0.016412  0.013857  -0.000136  4.010876  -0.001
C  C70  1  0.90012808  0.60115694  0.96088961  1  0.063556  -0.004627  3.739912  -0.004  0.021012  -0.000696  4.021959  0.0  0.032677  -0.001622  4.038178  -0.001  0.430462  2e-05  0.01645  0.013985  5e-05  4.011013  0.001
C  C71  1  0.59991866  0.10119570  0.53913151  1  0.063115  -0.004582  3.739607  -0.004  0.02061  -0.000595  4.021739  0.0  0.032313  -0.001524  4.03797  -0.001  0.430054  3.3e-05  0.016417  0.013587  0.000136  4.010768  0.001
C  C72  1  0.98791186  0.16104131  0.55170396  1  0.015297  0.003655  3.643582  0.004  -0.044671  0.00201  3.899598  0.002  -0.036156  0.000582  3.911012  0.001  0.302482  0.003822  0.025241  -0.049706  0.003195  3.891082  0.003
C  C73  1  0.51214884  0.66108221  0.94834045  1  0.015355  -0.003532  3.64301  -0.003  -0.044597  -0.001728  3.899062  -0.002  -0.036101  -0.000474  3.910483  -0.001  0.302375  -0.003047  0.025305  -0.049616  -0.002734  3.890573  -0.003
C  C74  1  0.01213209  0.83890850  0.44834784  1  0.015405  0.003484  3.643321  0.003  -0.044589  0.00185  3.899421  0.002  -0.036075  0.000491  3.910858  0.001  0.302294  0.003667  0.025191  -0.049592  0.00298  3.890902  0.003
C  C75  1  0.48792652  0.33895039  0.05169787  1  0.015591  0.003831  3.643191  0.004  -0.044441  0.002219  3.89924  0.003  -0.035936  0.000725  3.910657  0.001  0.302146  0.00439  0.025223  -0.049477  0.003474  3.890739  0.004
C  C76  1  0.07870739  0.09137622  0.60954912  1  -0.184806  0.002187  3.760267  0.003  -0.198505  0.001301  4.020715  0.002  -0.207015  0.001192  4.039592  0.002  0.090001  0.002186  -0.113027  -0.19277  0.001331  4.007314  0.002
C  C77  1  0.42130121  0.59140072  0.89052014  1  -0.184903  -0.002567  3.759635  -0.003  -0.198597  -0.001504  4.020175  -0.002  -0.207115  -0.00144  4.039043  -0.002  0.089732  -0.002224  -0.113156  -0.192842  -0.001476  4.006732  -0.002
C  C78  1  0.92128073  0.90858297  0.39053747  1  -0.184833  0.004824  3.759763  0.004  -0.198572  0.00341  4.020291  0.003  -0.207087  0.00265  4.039165  0.003  0.090206  0.005104  -0.11319  -0.192823  0.004051  4.00686  0.004
C  C79  1  0.57872530  0.40861626  0.10954024  1  -0.185  0.004601  3.760061  0.004  -0.198723  0.003267  4.020614  0.003  -0.207237  0.002528  4.039482  0.003  0.090806  0.004955  -0.113098  -0.192975  0.003891  4.007203  0.004
C  C80  1  0.07832121  0.12969112  0.70928567  1  0.051441  -0.001395  3.739696  0.0  0.008476  0.00135  4.021289  0.002  0.019138  0.000143  4.037886  0.001  0.398682  0.002209  0.012545  0.002027  0.002264  4.010167  0.003
C  C81  1  0.42167459  0.62968907  0.79077101  1  0.052276  0.001074  3.738812  0.0  0.009468  -0.001519  4.020315  -0.002  0.020131  -0.000382  4.03691  -0.001  0.399596  -0.002176  0.013008  0.003028  -0.002324  4.009136  -0.003
C  C82  1  0.92166574  0.87031259  0.29078337  1  0.052334  -0.000629  3.738673  0.0  0.009591  0.002147  4.020175  0.003  0.020261  0.000702  4.036762  0.001  0.399624  0.003305  0.013094  0.003125  0.003275  4.00905  0.004
C  C83  1  0.57831935  0.37031230  0.20928378  1  0.051514  -0.000579  3.739254  0.0  0.008586  0.002148  4.020833  0.003  0.019248  0.000693  4.03743  0.001  0.398618  0.003328  0.01261  0.00215  0.00331  4.009674  0.004
C  C84  1  0.82694701  0.18942737  0.04254334  1  -0.079451  -0.00045  3.663155  0.0  -0.158124  -0.000107  3.90966  0.0  -0.155948  -0.000219  3.920671  0.0  0.309549  9.3e-05  -0.053732  -0.159425  2.5e-05  3.902174  0.0
C  C85  1  0.67305088  0.68943001  0.45741988  1  -0.080048  0.000304  3.663803  0.0  -0.158675  7.5e-05  3.910052  0.0  -0.156478  0.00016  3.921053  0.0  0.309202  -6.8e-05  -0.053826  -0.159972  -3e-05  3.90254  0.0
C  C86  1  0.17304111  0.81056149  0.95741836  1  -0.0798  -0.000346  3.664013  0.0  -0.158553  -0.000102  3.910521  0.0  -0.156365  -0.00019  3.921519  0.0  0.309528  9e-05  -0.053744  -0.159854  1.6e-05  3.903031  0.0
C  C87  1  0.32694539  0.31056901  0.54254512  1  -0.079381  -0.000407  3.663125  0.0  -0.158035  -6.7e-05  3.909684  0.0  -0.155845  -0.000191  3.920677  0.0  0.309542  0.000138  -0.053674  -0.159338  7.2e-05  3.902177  0.0
C  C88  1  0.91607777  0.09120829  0.02045237  1  0.068953  0.000133  3.756501  0.0  0.085935  0.000175  4.001537  0.0  0.084814  0.000117  4.027254  0.0  -0.045997  0.00036  -0.016442  0.086645  0.000243  3.984299  0.0
C  C89  1  0.58392128  0.59121249  0.47952613  1  0.069036  -3.2e-05  3.756662  0.0  0.086119  -1.3e-05  4.001457  0.0  0.085004  -3.2e-05  4.027175  0.0  -0.046586  6.4e-05  -0.016478  0.08681  1e-06  3.984177  0.0
C  C90  1  0.08392198  0.90878058  0.97952265  1  0.069049  -6.7e-05  3.756565  0.0  0.086214  3.9e-05  4.001319  0.0  0.085097  1.9e-05  4.027034  0.0  -0.047287  4.4e-05  -0.01636  0.086925  6e-05  3.984067  0.0
C  C91  1  0.41607033  0.40879122  0.52045929  1  0.068843  0.000114  3.756555  0.0  0.085921  0.00013  4.001439  0.0  0.084803  7.8e-05  4.027149  0.0  -0.046494  0.000334  -0.016506  0.086615  0.000196  3.984181  0.0
C  C92  1  0.00714782  0.04257558  0.09788381  1  -0.108924  0.000478  3.737996  0.0  -0.125437  0.000653  3.979564  0.001  -0.127271  0.000456  4.000331  0.0  -0.048861  0.000982  -0.092172  -0.123835  0.000813  3.965012  0.001
C  C93  1  0.49284683  0.54258447  0.40209896  1  -0.109325  0.000942  3.73834  0.001  -0.125951  0.000865  3.97994  0.001  -0.127778  0.000602  4.000678  0.001  -0.048524  0.001452  -0.092348  -0.124361  0.001101  3.965407  0.001
C  C94  1  0.99284496  0.95741484  0.90208946  1  -0.109196  -0.000603  3.737973  -0.001  -0.125818  -0.000835  3.979513  -0.001  -0.127658  -0.000618  4.00028  -0.001  -0.047865  -0.001252  -0.092239  -0.124191  -0.000976  3.964968  -0.001
C  C95  1  0.50713664  0.45742158  0.59788925  1  -0.108965  0.000863  3.737988  0.001  -0.125528  0.000916  3.979509  0.001  -0.127371  0.000629  4.000285  0.001  -0.048488  0.001573  -0.092246  -0.123948  0.001161  3.964952  0.001
C  C96  1  0.90940919  0.04776573  0.92257525  1  -0.121172  -0.000341  3.765814  0.0  -0.14157  -0.000205  4.017777  0.0  -0.145752  -0.000233  4.041007  0.0  -0.079417  -0.000236  -0.093611  -0.139019  -0.000156  4.002718  0.0
C  C97  1  0.59057823  0.54777305  0.57740745  1  -0.121137  0.000319  3.765673  0.0  -0.141511  0.000252  4.017567  0.0  -0.145709  0.000243  4.040786  0.0  -0.079009  0.000402  -0.093628  -0.13897  0.000256  4.002511  0.0
C  C98  1  0.09057893  0.95222236  0.07740016  1  -0.121153  -0.000213  3.765806  0.0  -0.141544  -0.000137  4.017676  0.0  -0.145725  -0.000179  4.040893  0.0  -0.079054  -3.3e-05  -0.093687  -0.138997  -6.8e-05  4.002635  0.0
C  C99  1  0.40940757  0.45223456  0.42257931  1  -0.121196  -0.000265  3.765668  0.0  -0.141553  -0.000137  4.017614  0.0  -0.14573  -0.000206  4.04084  0.0  -0.079089  3.5e-05  -0.09362  -0.139042  -4.8e-05  4.002522  0.0
C  C100  1  0.83726336  0.32376346  0.58673472  1  -0.080745  -0.000499  3.662077  0.0  -0.157826  -0.0001  3.903278  0.0  -0.155358  -0.000119  3.914504  0.0  0.271053  7e-06  -0.055573  -0.159471  -6.3e-05  3.895801  0.0
C  C101  1  0.66277407  0.82378249  0.91325412  1  -0.081153  0.000341  3.661913  0.0  -0.158062  -4.8e-05  3.903211  0.0  -0.155461  -3.3e-05  3.914256  0.0  0.270512  -0.000113  -0.055666  -0.159683  -6.4e-05  3.895715  0.0
C  C102  1  0.16278990  0.67622463  0.41325112  1  -0.081284  -0.000349  3.661807  0.0  -0.158208  6.3e-05  3.903225  0.0  -0.155603  3e-05  3.914266  0.0  0.270672  0.000159  -0.055769  -0.159826  0.0001  3.895707  0.0
C  C103  1  0.33725127  0.17624386  0.08673616  1  -0.080809  -0.000484  3.661941  0.0  -0.157909  -8.6e-05  3.903251  0.0  -0.15542  -0.00011  3.91445  0.0  0.270296  1.5e-05  -0.055577  -0.159556  -4.1e-05  3.895797  0.0
C  C104  1  0.92361990  0.41423208  0.54230432  1  0.073452  9.5e-05  3.746901  0.0  0.094156  -4.1e-05  3.982839  0.0  0.093007  -5e-05  4.008228  0.0  -0.047809  2e-05  -0.013122  0.094952  -1e-05  3.965512  0.0
C  C105  1  0.57639892  0.91424487  0.95767861  1  0.073813  0.000201  3.746775  0.0  0.094283  0.000139  3.982946  0.0  0.093114  0.000122  4.008296  0.0  -0.047918  0.000201  -0.013171  0.09508  0.000151  3.965661  0.0
C  C106  1  0.07641940  0.58575834  0.45767575  1  0.073748  9.8e-05  3.746831  0.0  0.094249  -2e-06  3.982973  0.0  0.093083  -2.3e-05  4.008317  0.0  -0.047354  8e-05  -0.013244  0.09503  4.4e-05  3.965653  0.0
C  C107  1  0.42360316  0.08577289  0.04230638  1  0.073587  -0.000137  3.746838  0.0  0.094249  -0.000117  3.982797  0.0  0.093092  -0.000109  4.008184  0.0  -0.047581  -0.00015  -0.013067  0.095056  -0.000115  3.965508  0.0
C  C108  1  0.91530890  0.43123264  0.43686753  1  -0.106255  0.000273  3.73597  0.0  -0.121139  0.000134  3.971332  0.0  -0.123846  6.8e-05  3.993691  0.0  -0.00407  0.000335  -0.090701  -0.119083  0.000219  3.955932  0.0
C  C109  1  0.58471574  0.93124699  0.06311634  1  -0.106326  -0.000381  3.735949  0.0  -0.121051  -0.000229  3.971299  0.0  -0.123795  -0.000186  3.993645  0.0  -0.003709  -0.000351  -0.09049  -0.118977  -0.000264  3.955906  0.0
C  C110  1  0.08473622  0.56875701  0.56311271  1  -0.106636  0.000399  3.736208  0.0  -0.121356  0.000209  3.971606  0.0  -0.124094  0.000139  3.993956  0.0  -0.003804  0.000375  -0.090675  -0.119298  0.000286  3.956212  0.0
C  C111  1  0.41528983  0.06877234  0.93687028  1  -0.106576  0.000272  3.73604  0.0  -0.121331  0.000148  3.971423  0.0  -0.124035  0.000111  3.993785  0.0  -0.003678  0.000291  -0.090731  -0.119278  0.00019  3.956021  0.0
C  C112  1  0.00940906  0.48375737  0.60516061  1  -0.104442  -0.000218  3.736392  0.0  -0.121558  -5.7e-05  3.978645  0.0  -0.123892  -6.3e-05  4.000776  0.0  -0.031337  -1.5e-05  -0.092275  -0.11979  -4.3e-05  3.963656  0.0
C  C113  1  0.49059721  0.98376156  0.89482329  1  -0.104579  5.7e-05  3.736539  0.0  -0.12164  7.8e-05  3.978861  0.0  -0.123985  5.4e-05  4.000996  0.0  -0.031761  4.1e-05  -0.092214  -0.119866  9.2e-05  3.963894  0.0
C  C114  1  0.99061744  0.51624243  0.39482058  1  -0.104526  -0.000158  3.736395  0.0  -0.121597  -5.3e-05  3.978662  0.0  -0.123943  -5.8e-05  4.000795  0.0  -0.031552  -2e-05  -0.092195  -0.119829  -3.9e-05  3.963683  0.0
C  C115  1  0.50939207  0.01624995  0.10516205  1  -0.104731  -2e-06  3.736273  0.0  -0.121864  -7.1e-05  3.978565  0.0  -0.124203  -4.7e-05  4.000706  0.0  -0.031286  -4.4e-05  -0.092432  -0.120081  -7.9e-05  3.963579  0.0
N  N116  1  0.00919736  0.32674242  0.99077533  1  -0.280445  0.066766  3.225754  0.082  -0.256763  0.048071  3.529677  0.062  -0.287065  0.040466  3.551813  0.055  -0.724892  0.073549  -0.277967  -0.239374  0.051936  3.51709  0.064
N  N117  1  0.49087870  0.82677786  0.50921914  1  -0.280707  -0.07029  3.225952  -0.082  -0.256896  -0.049959  3.529758  -0.062  -0.287189  -0.043152  3.551945  -0.055  -0.724291  -0.073465  -0.277924  -0.239509  -0.052923  3.517136  -0.064
N  N118  1  0.99087335  0.67321754  0.00922552  1  -0.280779  0.066738  3.226105  0.082  -0.256942  0.048145  3.529974  0.062  -0.287214  0.04056  3.552123  0.055  -0.724452  0.073528  -0.277893  -0.239564  0.051926  3.517376  0.064
N  N119  1  0.50920712  0.17326177  0.49077457  1  -0.280451  0.066725  3.225879  0.082  -0.256725  0.048031  3.52979  0.061  -0.287031  0.04045  3.551959  0.055  -0.724558  0.073497  -0.277935  -0.239338  0.051881  3.517185  0.064
N  N120  1  0.93011168  0.27804723  0.06462205  1  0.074904  0.004141  3.541524  0.005  0.196954  0.00372  3.715854  0.004  0.189516  0.003132  3.742802  0.004  -0.789723  0.007022  -0.143193  0.201227  0.004103  3.699183  0.005
N  N121  1  0.56987690  0.77804987  0.43534698  1  0.074934  -0.004443  3.541708  -0.005  0.196852  -0.003929  3.716103  -0.004  0.189373  -0.003412  3.743118  -0.004  -0.78907  -0.006939  -0.143279  0.201133  -0.004209  3.699416  -0.005
N  N122  1  0.06986830  0.72194476  0.93535082  1  0.074911  0.004159  3.541833  0.005  0.196768  0.003744  3.71634  0.004  0.189274  0.003147  3.743388  0.004  -0.789136  0.006991  -0.143316  0.201044  0.004125  3.699671  0.005
N  N123  1  0.43011936  0.22195306  0.56462259  1  0.074869  0.004157  3.541859  0.005  0.196855  0.003751  3.716157  0.004  0.189359  0.003189  3.743215  0.004  -0.789534  0.006983  -0.143282  0.201134  0.004102  3.699467  0.005
N  N124  1  0.99093732  0.21692928  0.71304209  1  -0.274718  0.06844  3.221408  0.085  -0.253808  0.049688  3.526567  0.065  -0.28398  0.04157  3.549049  0.058  -0.724577  0.077132  -0.274852  -0.236477  0.053988  3.513551  0.068
N  N125  1  0.50908499  0.71691473  0.78697750  1  -0.275119  -0.071784  3.221693  -0.084  -0.254103  -0.051448  3.526788  -0.065  -0.284317  -0.044192  3.54933  -0.057  -0.723686  -0.076604  -0.274943  -0.236699  -0.05474  3.513707  -0.067
N  N126  1  0.00909849  0.78309473  0.28698128  1  -0.275108  0.067999  3.221352  0.084  -0.254086  0.04944  3.52649  0.065  -0.284283  0.041413  3.549012  0.057  -0.723568  0.076628  -0.274925  -0.236686  0.053585  3.513411  0.067
N  N127  1  0.49091709  0.28308194  0.21304099  1  -0.274928  0.068255  3.221184  0.085  -0.254052  0.049563  3.526395  0.065  -0.28424  0.041454  3.548896  0.057  -0.724337  0.077071  -0.27491  -0.236721  0.05387  3.513386  0.068
N  N128  1  0.93700592  0.23521234  0.61563961  1  0.078978  0.000649  3.535585  0.0  0.201424  0.000839  3.711009  0.0  0.195177  0.000507  3.736178  0.0  -0.793455  0.00254  -0.141224  0.205688  0.001051  3.694189  0.001
N  N129  1  0.56304547  0.73522590  0.88436642  1  0.079269  -0.000715  3.535062  0.0  0.201557  -0.000868  3.71054  0.0  0.195324  -0.000581  3.735594  0.0  -0.792621  -0.002344  -0.141071  0.205799  -0.001017  3.693731  -0.001
N  N130  1  0.06305199  0.76477809  0.38437074  1  0.079243  0.001041  3.535062  0.0  0.201414  0.001051  3.71071  0.001  0.195133  0.000621  3.735849  0.0  -0.793042  0.003055  -0.141199  0.205661  0.001392  3.69388  0.001
N  N131  1  0.43699848  0.26479186  0.11563664  1  0.079056  0.001121  3.535415  0.0  0.201503  0.0011  3.710895  0.001  0.195289  0.000645  3.735986  0.0  -0.793104  0.003242  -0.141208  0.205761  0.00147  3.694089  0.001
Cl  Cl132  1  0.24014567  0.34601195  0.81999030  1  -0.518916  0.123704  0.93102  0.141  -0.502547  0.085741  1.211845  0.103  -0.535253  0.066695  1.188838  0.084  -0.603316  0.145973  -0.286354  -0.482888  0.09693  1.228142  0.112
Cl  Cl133  1  0.25981524  0.84583494  0.67993810  1  -0.518869  -0.130596  0.931587  -0.14  -0.502474  -0.089199  1.212513  -0.102  -0.535125  -0.071543  1.189444  -0.084  -0.603157  -0.144871  -0.2862  -0.482806  -0.098445  1.22881  -0.111
Cl  Cl134  1  0.75981803  0.65416671  0.17994855  1  -0.518859  0.123137  0.931596  0.14  -0.502481  0.085405  1.212479  0.102  -0.535149  0.066524  1.189464  0.084  -0.603199  0.14501  -0.286224  -0.482817  0.096263  1.228775  0.111
Cl  Cl135  1  0.74014845  0.15400786  0.31998323  1  -0.518931  0.123707  0.931028  0.141  -0.502544  0.085745  1.211878  0.103  -0.535234  0.066695  1.188851  0.084  -0.603317  0.146066  -0.286386  -0.482905  0.096955  1.228166  0.112
Cl  Cl136  1  0.73158503  0.34644622  0.83294872  1  -0.502128  0.131181  0.910569  0.149  -0.48803  0.088635  1.180874  0.106  -0.520957  0.06888  1.159356  0.087  -0.591667  0.15084  -0.297181  -0.468552  0.09999  1.196016  0.116
Cl  Cl137  1  0.76841285  0.84643402  0.66704649  1  -0.502272  -0.138227  0.910694  -0.148  -0.488061  -0.092212  1.181023  -0.106  -0.520959  -0.073967  1.159529  -0.087  -0.591845  -0.14945  -0.297203  -0.468613  -0.101411  1.196169  -0.115
Cl  Cl138  1  0.26841007  0.65355904  0.16704443  1  -0.50222  0.130311  0.910693  0.148  -0.488038  0.088254  1.180994  0.106  -0.520924  0.068764  1.159481  0.087  -0.591815  0.149544  -0.297222  -0.468595  0.099115  1.196136  0.115
Cl  Cl139  1  0.23158341  0.15355797  0.33295049  1  -0.502179  0.131173  0.910563  0.149  -0.488053  0.088658  1.180869  0.106  -0.520966  0.068907  1.159337  0.087  -0.591661  0.150787  -0.297185  -0.468564  0.100001  1.195982  0.116
