# generated using pymatgen
data_CoH13C12S2N
_symmetry_space_group_name_H-M   'P 1'
_cell_length_a   6.82293020
_cell_length_b   7.08214077
_cell_length_c   13.35712135
_cell_angle_alpha   97.01407402
_cell_angle_beta   105.08640179
_cell_angle_gamma   89.87613839
_symmetry_Int_Tables_number   1
_chemical_formula_structural   CoH13C12S2N
_chemical_formula_sum   'Co2 H26 C24 S4 N2'
_cell_volume   618.22441309
_cell_formula_units_Z   2
loop_
 _symmetry_equiv_pos_site_id
 _symmetry_equiv_pos_as_xyz
  1  'x, y, z'
loop_
 _atom_site_type_symbol
 _atom_site_label
 _atom_site_symmetry_multiplicity
 _atom_site_fract_x
 _atom_site_fract_y
 _atom_site_fract_z
 _atom_site_occupancy
 _atom_site_hle17_ddec_charge
 _atom_site_hle17_ddec_spin_density
 _atom_site_hle17_ddec_sum_bond_order
 _atom_site_hle17_magmom
 _atom_site_hse06_10hf_ddec_charge
 _atom_site_hse06_10hf_ddec_spin_density
 _atom_site_hse06_10hf_ddec_sum_bond_order
 _atom_site_hse06_10hf_magmom
 _atom_site_hse06_ddec_charge
 _atom_site_hse06_ddec_spin_density
 _atom_site_hse06_ddec_sum_bond_order
 _atom_site_hse06_magmom
 _atom_site_pbe_cm5_charge
 _atom_site_pbe_ddec_charge
 _atom_site_pbe_ddec_spin_density
 _atom_site_pbe_ddec_sum_bond_order
 _atom_site_pbe_magmom
Co  Co0  1  0.59599073  0.71034414  0.18469976  1  0.527684  2.532808  2.655386  2.18  0.537848  2.519551  3.14426  2.249  0.652009  2.705176  3.050338  2.46  0.422381  0.447312  2.280304  3.224776  2.001
Co  Co1  1  0.59156377  0.20780436  0.18662334  1  0.533139  -2.536851  2.631532  -2.186  0.543381  -2.52374  3.116766  -2.256  0.657193  -2.708443  3.02393  -2.466  0.422478  0.452445  -2.285367  3.197087  -2.009
H  H2  1  0.91342954  0.81599029  0.08568100  1  0.086967  0.000363  0.977466  0.0  0.096005  0.000331  1.044524  0.0  0.098066  0.000203  1.044741  0.0  0.088923  0.094487  0.000488  1.044666  0.0
H  H3  1  0.18041039  0.32223351  0.08762674  1  0.087709  -0.000352  0.98216  0.0  0.096032  -0.000332  1.05021  0.0  0.098135  -0.000209  1.050421  0.0  0.088073  0.094501  -0.00048  1.050338  0.0
H  H4  1  0.09293200  0.77587977  0.94514169  1  0.086355  -0.000376  0.976108  0.0  0.095604  -0.000256  1.039563  0.0  0.097712  -0.000204  1.040191  0.0  0.092878  0.094223  -0.000316  1.038903  0.0
H  H5  1  0.85925266  0.28372580  0.94634210  1  0.086063  0.000318  0.976447  0.0  0.095258  0.000189  1.040364  0.0  0.097503  0.000159  1.040799  0.0  0.092778  0.093804  0.000229  1.039747  0.0
H  H6  1  0.92084794  0.85547479  0.76734820  1  0.080507  0.000267  0.980544  0.001  0.091158  3.3e-05  1.043624  0.0  0.093111  2.6e-05  1.043872  0.0  0.09493  0.089863  3.5e-05  1.043382  0.0
H  H7  1  0.85441762  0.35639045  0.76768864  1  0.079932  -0.000286  0.977079  -0.001  0.09051  -3.6e-05  1.040493  0.0  0.092578  -2.9e-05  1.040522  0.0  0.0948  0.089145  -4.7e-05  1.040424  0.0
H  H8  1  0.57625486  0.98941174  0.73292282  1  0.083844  -1.2e-05  0.95854  0.0  0.096843  8e-05  1.016543  0.0  0.098534  5.1e-05  1.016667  0.0  0.098754  0.095864  0.000102  1.016303  0.0
H  H9  1  0.16749854  0.48127727  0.73327412  1  0.085156  4.6e-05  0.957741  0.0  0.098229  -5e-05  1.014993  0.0  0.100028  -3e-05  1.015025  0.0  0.099153  0.097204  -7e-05  1.014764  0.0
H  H10  1  0.39395109  0.02658268  0.87365134  1  0.099548  0.000437  0.949792  0.0  0.113421  0.000219  1.005382  0.0  0.116195  0.000165  1.004885  0.0  0.09932  0.111405  0.000243  1.005818  0.0
H  H11  1  0.49181857  0.51675272  0.87489842  1  0.100641  -0.000445  0.947746  0.0  0.114926  -0.000221  1.002806  0.0  0.117713  -0.000168  1.002281  0.0  0.099793  0.112884  -0.000246  1.003287  0.0
H  H12  1  0.69187116  0.98399025  0.39126803  1  0.084099  0.000305  0.999573  -0.001  0.091861  0.000664  1.070665  0.0  0.092825  0.000628  1.072258  0.0  0.091215  0.091028  0.000625  1.070062  0.0
H  H13  1  0.68004253  0.49394150  0.38753504  1  0.081493  -0.000352  1.005619  0.001  0.090048  -0.000662  1.076336  0.0  0.091049  -0.000624  1.077903  0.0  0.090566  0.089221  -0.000628  1.075656  0.0
H  H14  1  0.77951823  0.14413913  0.57278564  1  0.084663  0.000122  0.983041  0.0  0.094901  8e-06  1.046341  0.0  0.096321  4e-06  1.047853  0.0  0.094485  0.093835  1.8e-05  1.045387  0.0
H  H15  1  0.77724121  0.64972163  0.56969451  1  0.08634  -0.000101  0.9821  0.0  0.097389  1.3e-05  1.043651  0.0  0.098961  1e-05  1.045001  0.0  0.095383  0.096245  9e-06  1.04279  0.0
H  H16  1  0.09124419  0.05817265  0.70237761  1  0.081458  -0.000194  0.979929  -0.001  0.092676  2.4e-05  1.04296  0.0  0.095792  1.1e-05  1.04191  0.0  0.09506  0.09021  3.6e-05  1.044103  0.0
H  H17  1  0.60889071  0.55030600  0.70072775  1  0.082232  0.000167  0.975143  0.0  0.093349  -5.5e-05  1.038159  0.0  0.096389  -3.3e-05  1.037157  0.0  0.095352  0.090951  -8.4e-05  1.039209  0.0
H  H18  1  0.30798184  0.79967877  0.64810232  1  0.080027  0.000154  0.978166  0.0  0.089763  -3e-06  1.043358  0.0  0.092091  -8e-06  1.042935  0.0  0.095356  0.08801  6e-06  1.043815  0.0
H  H19  1  0.34634276  0.28434128  0.64616297  1  0.079029  -0.000136  0.980568  0.0  0.089603  5e-06  1.045108  0.0  0.091898  9e-06  1.044652  0.0  0.0951  0.087838  -6e-06  1.045643  0.0
H  H20  1  0.22431173  0.64350765  0.46645441  1  0.091285  6.3e-05  0.981478  -0.001  0.100876  0.000389  1.045954  0.0  0.103285  0.000288  1.046328  0.0  0.091568  0.099087  0.000474  1.045919  0.0
H  H21  1  0.24522269  0.13168275  0.46404243  1  0.090691  -7.3e-05  0.982453  0.001  0.100913  -0.000386  1.046081  0.0  0.103272  -0.000286  1.046554  0.0  0.091732  0.099091  -0.00047  1.046072  0.0
H  H22  1  0.25102338  0.66709259  0.23466764  1  0.32249  0.000419  0.903939  0.0  0.317409  0.001185  0.959079  0.002  0.326058  0.000833  0.953396  0.002  0.276933  0.310949  0.001585  0.963214  0.002
H  H23  1  0.98759717  0.16997892  0.25365771  1  0.320489  -0.000817  0.912211  0.0  0.313343  -0.001523  0.971641  -0.002  0.322248  -0.001079  0.965602  -0.002  0.27214  0.30664  -0.002009  0.976077  -0.002
H  H24  1  0.44106964  0.67042371  0.33857468  1  0.315867  -0.00014  0.918623  0.0  0.309479  0.000807  0.975942  0.002  0.315909  0.000647  0.973316  0.001  0.281746  0.304968  0.000943  0.97739  0.002
H  H25  1  0.88379810  0.18037719  0.35183148  1  0.313626  0.000171  0.922645  0.0  0.307602  -0.00076  0.97901  -0.002  0.313887  -0.000607  0.976812  -0.001  0.280458  0.303197  -0.000893  0.980107  -0.002
H  H26  1  0.36535873  0.87199396  0.29020412  1  0.302761  -0.000274  0.955955  0.0  0.29177  0.000353  1.023104  0.001  0.300515  0.000413  1.017631  0.001  0.255597  0.28514  0.000239  1.027246  0.001
H  H27  1  0.91763444  0.37711728  0.30080261  1  0.301903  0.000313  0.957916  0.0  0.290743  -0.00033  1.024823  -0.001  0.299598  -0.000411  1.019443  -0.001  0.254442  0.284008  -0.000206  1.028885  -0.001
C  C28  1  0.64169911  0.92052236  0.98762390  1  0.089052  0.005647  3.773487  0.008  0.120665  0.001889  4.016893  0.003  0.129173  0.001979  4.040202  0.003  -0.014355  0.113751  0.001649  4.000758  0.002
C  C29  1  0.35601358  0.41848907  0.98925250  1  0.08835  -0.005907  3.77841  -0.008  0.118675  -0.002028  4.023663  -0.003  0.12688  -0.002186  4.047289  -0.003  -0.014154  0.111958  -0.001693  4.007342  -0.003
C  C30  1  0.83990503  0.85288839  0.00810560  1  -0.119155  -0.008413  3.743116  -0.01  -0.13843  -0.002779  3.98289  -0.003  -0.144911  -0.002492  4.00658  -0.003  -0.095797  -0.133232  -0.002901  3.966311  -0.003
C  C31  1  0.17689551  0.35578306  0.00959575  1  -0.121772  0.008819  3.746267  0.011  -0.140145  0.003079  3.98616  0.003  -0.146706  0.002805  4.00997  0.003  -0.096556  -0.134988  0.003109  3.969592  0.003
C  C32  1  0.93973992  0.83010962  0.92896841  1  -0.055865  0.005414  3.780097  0.007  -0.064854  0.000901  4.022397  0.001  -0.065124  0.001171  4.044678  0.002  -0.090531  -0.064809  0.00053  4.006961  0.001
C  C33  1  0.99728170  0.33369077  0.92997540  1  -0.056561  -0.00576  3.779498  -0.008  -0.066009  -0.001096  4.022148  -0.002  -0.066269  -0.001407  4.044262  -0.002  -0.091534  -0.06596  -0.000702  4.006922  -0.001
C  C34  1  0.84363534  0.87579111  0.82947037  1  -0.078006  -0.009862  3.778891  -0.012  -0.093947  -0.003607  4.028465  -0.004  -0.097667  -0.002969  4.051814  -0.003  -0.096056  -0.090891  -0.0041  4.011977  -0.004
C  C35  1  0.99461930  0.37545212  0.83010692  1  -0.077327  0.010434  3.774074  0.013  -0.093032  0.004083  4.023856  0.005  -0.096689  0.003434  4.046994  0.004  -0.095067  -0.090119  0.004532  4.007634  0.005
C  C36  1  0.64890007  0.94897995  0.80990567  1  -0.079233  0.0056  3.794454  0.008  -0.089594  0.001237  4.043517  0.002  -0.091609  0.001398  4.066576  0.002  -0.095665  -0.088056  0.0011  4.027251  0.002
C  C37  1  0.17128871  0.44382710  0.81058565  1  -0.077607  -0.005934  3.789976  -0.008  -0.087854  -0.001446  4.038664  -0.002  -0.089799  -0.001649  4.061394  -0.002  -0.094334  -0.086363  -0.001246  4.022604  -0.002
C  C38  1  0.54662667  0.97100486  0.88840339  1  -0.116891  -0.007289  3.736682  -0.009  -0.136058  -0.0019  3.976287  -0.002  -0.139657  -0.001759  3.996033  -0.002  -0.096061  -0.133306  -0.00206  3.962659  -0.002
C  C39  1  0.35272850  0.46497940  0.88960703  1  -0.120372  0.00766  3.735657  0.01  -0.139989  0.002205  3.976998  0.003  -0.143542  0.002146  3.996669  0.003  -0.097458  -0.137193  0.002314  3.963409  0.003
C  C40  1  0.95590198  0.80718027  0.41449251  1  0.11076  -0.005844  3.800034  -0.011  0.136282  0.000808  4.04384  -0.002  0.14503  0.000182  4.065411  -0.002  -0.016666  0.129383  0.001365  4.029225  -0.001
C  C41  1  0.45042820  0.30557370  0.41119792  1  0.109387  0.005855  3.795258  0.011  0.135092  -0.000593  4.038868  0.002  0.143497  -1e-06  4.060571  0.002  -0.016696  0.128421  -0.001133  4.024257  0.001
C  C42  1  0.82930356  0.94571662  0.44700731  1  -0.159825  0.009634  3.764309  0.012  -0.171888  0.006209  4.001845  0.008  -0.178213  0.005172  4.025341  0.007  -0.109424  -0.16739  0.006812  3.985737  0.008
C  C43  1  0.60371553  0.44985332  0.44366534  1  -0.158491  -0.009237  3.76388  -0.012  -0.170886  -0.005896  4.000358  -0.007  -0.177163  -0.004938  4.023885  -0.006  -0.109146  -0.166426  -0.006459  3.9843  -0.008
C  C44  1  0.87828605  0.03513138  0.54996037  1  -0.061068  -0.005558  3.776552  -0.007  -0.071445  -0.001687  4.017962  -0.002  -0.071169  -0.001934  4.038678  -0.003  -0.094946  -0.071483  -0.00134  4.003951  -0.002
C  C45  1  0.65994398  0.53682846  0.54709645  1  -0.061041  0.005365  3.781318  0.007  -0.07163  0.001624  4.021944  0.002  -0.07141  0.001874  4.04255  0.003  -0.094352  -0.071713  0.001273  4.008081  0.002
C  C46  1  0.05207778  0.98579870  0.62267062  1  -0.104458  0.008864  3.799205  0.011  -0.117487  0.005291  4.046218  0.006  -0.12005  0.004348  4.065239  0.005  -0.106005  -0.116144  0.005864  4.034001  0.007
C  C47  1  0.56641220  0.48018041  0.62048724  1  -0.103422  -0.008543  3.798891  -0.01  -0.116351  -0.005137  4.046634  -0.006  -0.118714  -0.004241  4.065446  -0.005  -0.105831  -0.115165  -0.00567  4.0346  -0.006
C  C48  1  0.17420778  0.84309528  0.59194035  1  -0.069529  -0.005252  3.800418  -0.007  -0.080773  -0.001267  4.047227  -0.002  -0.080943  -0.00159  4.067271  -0.002  -0.096008  -0.080686  -0.00089  4.033913  -0.001
C  C49  1  0.41818521  0.33322638  0.58962837  1  -0.070782  0.005003  3.802029  0.006  -0.082802  0.001179  4.0494  0.002  -0.08285  0.001513  4.069139  0.002  -0.096317  -0.082798  0.000779  4.036341  0.001
C  C50  1  0.12768880  0.75463130  0.48918239  1  -0.131303  0.011822  3.734034  0.015  -0.145948  0.007105  3.971722  0.009  -0.150088  0.00572  3.990997  0.007  -0.103706  -0.142971  0.008038  3.95887  0.01
C  C51  1  0.36002974  0.24682999  0.48642248  1  -0.129869  -0.011148  3.72854  -0.014  -0.144629  -0.006675  3.965899  -0.008  -0.148653  -0.005408  3.985231  -0.007  -0.1036  -0.141724  -0.007499  3.953087  -0.009
S  S52  1  0.50304381  0.93632030  0.08390163  1  -0.308598  0.002147  2.727102  -0.001  -0.335596  0.005113  3.195459  0.003  -0.402584  0.004367  3.176055  0.002  -0.179949  -0.282237  0.004434  3.215597  0.003
S  S53  1  0.59069909  0.43438294  0.08684097  1  -0.307412  -0.003984  2.720755  -0.002  -0.333653  -0.006111  3.187255  -0.005  -0.400282  -0.004772  3.167771  -0.003  -0.179675  -0.280475  -0.005763  3.207359  -0.004
S  S54  1  0.91092548  0.69829374  0.28465268  1  -0.42779  0.104769  2.341664  0.124  -0.428265  0.076854  2.728496  0.081  -0.473692  0.056035  2.715185  0.056  -0.199257  -0.393132  0.09215  2.741686  0.097
S  S55  1  0.36564430  0.19797602  0.28082789  1  -0.432806  -0.099994  2.32524  -0.119  -0.430564  -0.073129  2.707078  -0.077  -0.474505  -0.053497  2.693446  -0.054  -0.198587  -0.39661  -0.087495  2.720596  -0.093
N  N56  1  0.39126719  0.72977894  0.27057280  1  -0.812283  0.044454  3.063478  0.06  -0.80091  0.034596  3.292095  0.039  -0.836416  0.028502  3.272574  0.031  -0.782151  -0.772803  0.039032  3.306497  0.044
N  N57  1  0.87537325  0.23399189  0.28303044  1  -0.812079  -0.044307  3.061524  -0.06  -0.798914  -0.034319  3.290031  -0.038  -0.834751  -0.028298  3.270544  -0.03  -0.781512  -0.770399  -0.038545  3.304353  -0.043
