# generated using pymatgen
data_ZnH16C22NO4
_symmetry_space_group_name_H-M   'P 1'
_cell_length_a   13.94133655
_cell_length_b   15.26618475
_cell_length_c   17.81282738
_cell_angle_alpha   89.99603994
_cell_angle_beta   90.21679492
_cell_angle_gamma   89.99911498
_symmetry_Int_Tables_number   1
_chemical_formula_structural   ZnH16C22NO4
_chemical_formula_sum   'Zn2 H32 C44 N2 O8'
_cell_volume   3791.09506265
_cell_formula_units_Z   2
loop_
 _symmetry_equiv_pos_site_id
 _symmetry_equiv_pos_as_xyz
  1  'x, y, z'
loop_
 _atom_site_type_symbol
 _atom_site_label
 _atom_site_symmetry_multiplicity
 _atom_site_fract_x
 _atom_site_fract_y
 _atom_site_fract_z
 _atom_site_occupancy
 _atom_site_pbe_bader_charge
 _atom_site_pbe_bader_spin_density
 _atom_site_pbe_cm5_charge
 _atom_site_pbe_ddec_charge
 _atom_site_pbe_ddec_spin_density
 _atom_site_pbe_ddec_sum_bond_order
 _atom_site_pbe_magmom
Zn  Zn0  1  0.40055523  0.49480672  0.50128745  1  1.277836  0  0.662869  0.808282  0  2.434036  0
Zn  Zn1  1  0.59944617  0.49480322  0.49871546  1  1.286269  0  0.66282  0.808109  0  2.43418  0
H  H2  1  0.34546269  0.54393640  0.87760143  1  0.07527  0  0.104016  0.105969  0  0.991549  0
H  H3  1  0.65452782  0.54391550  0.12239286  1  0.075229  0  0.104099  0.106084  0  0.991428  0
H  H4  1  0.34567380  0.55903222  0.12291878  1  0.083539  0  0.104108  0.106417  0  0.991287  0
H  H5  1  0.65431861  0.55902500  0.87707641  1  0.083797  0  0.104111  0.106421  0  0.991325  0
H  H6  1  0.34692277  0.51601029  0.73918674  1  0.104196  0  0.102814  0.104804  0  1.005393  0
H  H7  1  0.65306750  0.51599662  0.26081268  1  0.10444  0  0.102805  0.104715  0  1.0053  0
H  H8  1  0.34605216  0.53248368  0.26147362  1  0.094886  0  0.102635  0.103108  0  1.008331  0
H  H9  1  0.65394070  0.53247580  0.73852367  1  0.09497  0  0.102664  0.103202  0  1.008186  0
H  H10  1  0.43783699  0.05463237  0.61037859  1  0.022708  0  0.094809  0.097699  0  1.01814  0
H  H11  1  0.55416741  0.93546728  0.61328650  1  0.044366  0  0.094621  0.097586  0  1.018776  0
H  H12  1  0.44582439  0.93549450  0.38669423  1  0.044199  0  0.094627  0.097631  0  1.019055  0
H  H13  1  0.56215601  0.05465873  0.38962000  1  0.02239  0  0.094936  0.09789  0  1.018124  0
H  H14  1  0.93302180  0.45152060  0.38523534  1  0.073783  0  0.116023  0.121537  0  0.988138  0
H  H15  1  0.06697964  0.45155953  0.61478588  1  0.0735  0  0.116035  0.121617  0  0.988032  0
H  H16  1  0.93072518  0.54766430  0.61365183  1  0.084238  0  0.116113  0.122024  0  0.986475  0
H  H17  1  0.06927458  0.54762168  0.38633345  1  0.083553  0  0.116193  0.122017  0  0.986448  0
H  H18  1  0.75276950  0.45241420  0.38914555  1  0.138143  0  0.130065  0.109507  0  0.978029  0
H  H19  1  0.24723121  0.45245747  0.61087720  1  0.137754  0  0.130032  0.109486  0  0.978082  0
H  H20  1  0.75054592  0.54220042  0.60773549  1  0.135978  0  0.128746  0.10438  0  0.989404  0
H  H21  1  0.24945179  0.54216666  0.39225629  1  0.135771  0  0.128754  0.1043  0  0.989469  0
H  H22  1  0.35882106  0.26709018  0.61326454  1  0.019212  0  0.089588  0.129742  0  0.99969  0
H  H23  1  0.40685791  0.18633023  0.67518007  1  0.024021  0  0.088113  0.120865  0  1.003841  0
H  H24  1  0.47534269  0.28032625  0.65022159  1  0.038425  0  0.092464  0.135185  0  0.988077  0
H  H25  1  0.62816802  0.71811334  0.61939697  1  0.068533  0  0.089134  0.128974  0  1.001376  0
H  H26  1  0.58465036  0.80350419  0.67844181  1  0.001645  0  0.088489  0.121892  0  1.002361  0
H  H27  1  0.50984487  0.71356074  0.65368425  1  0.048565  0  0.09098  0.132569  0  0.996753  0
H  H28  1  0.49014204  0.71358550  0.34629406  1  0.049004  0  0.090934  0.132585  0  0.996743  0
H  H29  1  0.37182961  0.71813996  0.38059577  1  0.069352  0  0.089158  0.12895  0  1.001414  0
H  H30  1  0.41533146  0.80353506  0.32153973  1  0.001214  0  0.088371  0.121578  0  1.002431  0
H  H31  1  0.64119208  0.26711390  0.38675657  1  0.01921  0  0.089619  0.129648  0  0.999676  0
H  H32  1  0.59315011  0.18637312  0.32483124  1  0.024381  0  0.088001  0.120698  0  1.004225  0
H  H33  1  0.52467167  0.28036578  0.34980017  1  0.038375  0  0.092369  0.135019  0  0.988277  0
C  C34  1  0.50001613  0.32529601  0.50001058  1  1.504519  0  0.219908  0.625965  0  4.151244  0
C  C35  1  0.50000892  0.66498403  0.49998558  1  1.589537  0  0.220221  0.626215  0  4.151994  0
C  C36  1  0.50000618  0.22701409  0.50000682  1  0.078871  0  -0.021147  -0.153576  0  3.894067  0
C  C37  1  0.50000451  0.76326399  0.49998763  1  -0.044422  0  -0.020722  -0.149426  0  3.892972  0
C  C38  1  0.49999480  0.04348690  0.49999936  1  0.000285  0  -0.012851  0.080593  0  4.052092  0
C  C39  1  0.49999581  0.94667262  0.49999113  1  0.001493  0  -0.014657  0.077041  0  4.053306  0
C  C40  1  0.89573776  0.47331568  0.43552896  1  -0.030509  0  -0.074521  -0.173289  0  3.944823  0
C  C41  1  0.10425684  0.47333919  0.56448082  1  -0.010485  0  -0.074572  -0.173549  0  3.944667  0
C  C42  1  0.89450522  0.52498478  0.56294215  1  -0.071127  0  -0.07474  -0.173623  0  3.942243  0
C  C43  1  0.10548992  0.52495719  0.43705300  1  -0.070421  0  -0.074855  -0.173812  0  3.942267  0
C  C44  1  0.79608049  0.47266928  0.43725337  1  0.535187  0  0.06539  0.105727  0  3.911104  0
C  C45  1  0.20392131  0.47269515  0.56276383  1  0.534836  0  0.065554  0.105891  0  3.910683  0
C  C46  1  0.79492222  0.52302357  0.56016779  1  0.518007  0  0.065096  0.110518  0  3.906841  0
C  C47  1  0.20508228  0.52300387  0.43982882  1  0.518709  0  0.065123  0.110705  0  3.906503  0
C  C48  1  0.94708613  0.49954715  0.49959165  1  -0.073457  0  0.016392  0.106162  0  3.991665  0
C  C49  1  0.05291518  0.49954715  0.50041105  1  0.037697  0  0.016513  0.106714  0  3.991887  0
C  C50  1  0.49908570  0.50455368  0.35212764  1  1.565364  0  0.212748  0.58289  0  4.189076  0
C  C51  1  0.50089975  0.50455622  0.64787533  1  1.565305  0  0.212739  0.582682  0  4.189117  0
C  C52  1  0.41288456  0.54125584  0.84688630  1  -0.028777  0  -0.084988  -0.128694  0  3.955316  0
C  C53  1  0.58710456  0.54124633  0.15310787  1  -0.029591  0  -0.085046  -0.128808  0  3.955557  0
C  C54  1  0.41287819  0.54996885  0.15341874  1  -0.034475  0  -0.085636  -0.130629  0  3.955138  0
C  C55  1  0.58711294  0.54996728  0.84657512  1  -0.034876  0  -0.085525  -0.130449  0  3.954922  0
C  C56  1  0.41367091  0.52563988  0.77009700  1  -0.052892  0  -0.084021  -0.091431  0  3.997915  0
C  C57  1  0.58631920  0.52563248  0.22990140  1  -0.052521  0  -0.084014  -0.091214  0  3.997892  0
C  C58  1  0.41306132  0.53500939  0.23028577  1  -0.000814  0  -0.084279  -0.089529  0  3.999752  0
C  C59  1  0.58693078  0.53500899  0.76971223  1  -0.000977  0  -0.084428  -0.089882  0  3.999824  0
C  C60  1  0.50053001  0.52172285  0.73072941  1  -0.080959  0  -0.016188  -0.02838  0  3.959341  0
C  C61  1  0.49946376  0.52172111  0.26926965  1  -0.081038  0  -0.016239  -0.028659  0  3.959565  0
C  C62  1  0.49990959  0.55231879  0.88668160  1  0.084651  0  0.000661  0.142379  0  4.118697  0
C  C63  1  0.50008366  0.55231269  0.11331357  1  0.084948  0  0.000704  0.142314  0  4.118986  0
C  C64  1  0.49994762  0.56082563  0.96571063  1  -0.296154  0  -0.046377  -0.11107  0  4.129066  0
C  C65  1  0.50004403  0.56082319  0.03428033  1  -0.064218  0  -0.04621  -0.110577  0  4.128751  0
C  C66  1  0.46592029  0.09045364  0.56212172  1  -0.039355  0  -0.102807  -0.214418  0  3.972117  0
C  C67  1  0.52948108  0.89970782  0.56374044  1  0.039362  0  -0.102257  -0.213207  0  3.972235  0
C  C68  1  0.47051348  0.89972529  0.43624110  1  0.03914  0  -0.102144  -0.213204  0  3.972954  0
C  C69  1  0.53407569  0.09046832  0.43787775  1  -0.03799  0  -0.102947  -0.214645  0  3.972228  0
C  C70  1  0.46412693  0.18195591  0.56280555  1  -0.026457  0  -0.010037  0.156687  0  3.989291  0
C  C71  1  0.53093963  0.80818988  0.56458133  1  -0.067999  0  -0.010697  0.155477  0  3.987945  0
C  C72  1  0.46906435  0.80820601  0.43539443  1  -0.068495  0  -0.010921  0.155233  0  3.988074  0
C  C73  1  0.53587758  0.18197117  0.43720590  1  -0.026463  0  -0.010014  0.156502  0  3.989525  0
C  C74  1  0.42425270  0.23117289  0.62906126  1  -0.038054  0  -0.23989  -0.407125  0  3.974734  0
C  C75  1  0.56523167  0.75862400  0.63274449  1  -0.068897  0  -0.240655  -0.407422  0  3.972569  0
C  C76  1  0.43476167  0.75865150  0.36723880  1  -0.069678  0  -0.240502  -0.407071  0  3.972882  0
C  C77  1  0.57576031  0.23120053  0.37095281  1  -0.038528  0  -0.239765  -0.406606  0  3.975087  0
N  N78  1  0.74681511  0.49698016  0.49853933  1  -1.249444  0  -0.312921  -0.184368  0  3.504712  0
N  N79  1  0.25318411  0.49698254  0.50146883  1  -1.249086  0  -0.313125  -0.18466  0  3.504713  0
O  O80  1  0.41956426  0.36318200  0.49029660  1  -1.157193  0  -0.317729  -0.54758  0  2.298751  0
O  O81  1  0.57942479  0.62715433  0.48650320  1  -1.161628  0  -0.318544  -0.548882  0  2.293084  0
O  O82  1  0.42058150  0.62715305  0.51347244  1  -1.161212  0  -0.318571  -0.548918  0  2.292711  0
O  O83  1  0.58045229  0.36317421  0.50972227  1  -1.156956  0  -0.317608  -0.547309  0  2.299489  0
O  O84  1  0.41908932  0.51265098  0.38593277  1  -1.179368  0  -0.316811  -0.557433  0  2.336974  0
O  O85  1  0.58090674  0.51265026  0.61406553  1  -1.17917  0  -0.316896  -0.557537  0  2.336543  0
O  O86  1  0.42131120  0.48385651  0.61720408  1  -1.171605  0  -0.318138  -0.556505  0  2.326946  0
O  O87  1  0.57868250  0.48384881  0.38280285  1  -1.171378  0  -0.318169  -0.556695  0  2.326423  0
