# generated using pymatgen
data_ZnH16C14(NO)4
_symmetry_space_group_name_H-M   'P 1'
_cell_length_a   9.81199999
_cell_length_b   10.57658780
_cell_length_c   11.07781747
_cell_angle_alpha   90.63136122
_cell_angle_beta   89.92614367
_cell_angle_gamma   91.04215652
_symmetry_Int_Tables_number   1
_chemical_formula_structural   ZnH16C14(NO)4
_chemical_formula_sum   'Zn2 H32 C28 N8 O8'
_cell_volume   1149.36733977
_cell_formula_units_Z   2
loop_
 _symmetry_equiv_pos_site_id
 _symmetry_equiv_pos_as_xyz
  1  'x, y, z'
loop_
 _atom_site_type_symbol
 _atom_site_label
 _atom_site_symmetry_multiplicity
 _atom_site_fract_x
 _atom_site_fract_y
 _atom_site_fract_z
 _atom_site_occupancy
 _atom_site_pbe_bader_charge
 _atom_site_pbe_bader_spin_density
 _atom_site_pbe_cm5_charge
 _atom_site_pbe_ddec_charge
 _atom_site_pbe_ddec_spin_density
 _atom_site_pbe_ddec_sum_bond_order
 _atom_site_pbe_magmom
Zn  Zn0  1  0.64859720  0.50525121  0.50053601  1  1.303294  0  0.672234  0.825603  0  2.477847  0
Zn  Zn1  1  0.35140085  0.49475162  0.49946555  1  1.307494  0  0.672254  0.825621  0  2.477833  0
H  H2  1  0.12563554  0.37478470  0.35278210  1  0.091741  0  0.12968  0.108518  0  0.981128  0
H  H3  1  0.62377296  0.91157715  0.09925719  1  0.026654  0  0.095381  0.099927  0  0.995968  0
H  H4  1  0.66583593  0.04058707  0.19854154  1  0.065653  0  0.099369  0.110891  0  1.010713  0
H  H5  1  0.49571846  0.02022304  0.14696695  1  0.034492  0  0.084717  0.082294  0  1.030021  0
H  H6  1  0.72540743  0.82667587  0.64131596  1  0.427105  0  0.288161  0.23355  0  0.996917  0
H  H7  1  0.83160402  0.94492989  0.80095904  1  0.039726  0  0.099713  0.104199  0  0.986391  0
H  H8  1  0.70886582  0.06468261  0.78600661  1  0.043054  0  0.099723  0.104249  0  1.001376  0
H  H9  1  0.83963419  0.05018791  0.67584149  1  -0.009869  0  0.085432  0.082236  0  1.018818  0
H  H10  1  0.27459052  0.17332257  0.35867864  1  0.427234  0  0.288167  0.233554  0  0.996913  0
H  H11  1  0.16840387  0.05505868  0.19903170  1  0.039681  0  0.099694  0.104196  0  0.986441  0
H  H12  1  0.16036075  0.94981282  0.32415749  1  -0.009898  0  0.085397  0.082142  0  1.018868  0
H  H13  1  0.87436147  0.62521719  0.64721952  1  0.091773  0  0.129673  0.108537  0  0.981017  0
H  H14  1  0.29113896  0.93530571  0.21400316  1  0.042805  0  0.099664  0.104145  0  1.001501  0
H  H15  1  0.78514324  0.16617535  0.46052938  1  0.415516  0  0.286512  0.229915  0  0.997092  0
H  H16  1  0.94690227  0.03598925  0.35364315  1  0.044085  0  0.090862  0.089186  0  1.028305  0
H  H17  1  0.81647300  0.91788092  0.33497720  1  0.090266  0  0.101136  0.114232  0  1.005655  0
H  H18  1  0.88887521  0.94614968  0.47983300  1  0.012644  0  0.081186  0.072967  0  1.036678  0
H  H19  1  0.21485784  0.83382629  0.53946954  1  0.415656  0  0.286503  0.229916  0  0.997047  0
H  H20  1  0.05309781  0.96401318  0.64635390  1  0.044127  0  0.090849  0.089158  0  1.028304  0
H  H21  1  0.11112281  0.05385182  0.52016412  1  0.012579  0  0.081215  0.073036  0  1.036714  0
H  H22  1  0.18352609  0.08212230  0.66501798  1  0.090237  0  0.101137  0.114249  0  1.005695  0
H  H23  1  0.30264126  0.41439743  0.88210325  1  0.082064  0  0.101838  0.106044  0  1.001363  0
H  H24  1  0.13335006  0.62045769  0.64900206  1  0.13871  0  0.132408  0.113433  0  0.975531  0
H  H25  1  0.69735881  0.58560444  0.11789837  1  0.082063  0  0.101828  0.106009  0  1.00137  0
H  H26  1  0.30021284  0.40961951  0.10949548  1  0.083674  0  0.099021  0.10107  0  1.009391  0
H  H27  1  0.69978822  0.59038150  0.89050710  1  0.083668  0  0.099055  0.101072  0  1.009401  0
H  H28  1  0.86664693  0.37954326  0.35099962  1  0.138721  0  0.132421  0.113425  0  0.97554  0
H  H29  1  0.49799722  0.18801100  0.73981273  1  0.418978  0  0.29541  0.239602  0  0.957835  0
H  H30  1  0.37625668  0.08842603  0.90075068  1  0.026319  0  0.095369  0.099935  0  0.995855  0
H  H31  1  0.50427071  0.97975058  0.85301392  1  0.026603  0  0.084727  0.082248  0  1.029952  0
H  H32  1  0.33413803  0.95943064  0.80146626  1  0.065597  0  0.099298  0.110783  0  1.010708  0
H  H33  1  0.50200884  0.81198621  0.26019011  1  0.418988  0  0.29543  0.239648  0  0.957801  0
C  C34  1  0.49865400  0.49716329  0.12624283  1  -0.042204  0  -0.01862  -0.026525  0  3.971454  0
C  C35  1  0.37157893  0.95945212  0.53866033  1  0.407126  0  0.087984  0.103669  0  3.713942  0
C  C36  1  0.47157170  0.05036322  0.61145406  1  0.421491  0  0.100164  0.122654  0  3.708778  0
C  C37  1  0.52842938  0.94963841  0.38854486  1  0.421468  0  0.100203  0.122662  0  3.708815  0
C  C38  1  0.50512030  0.12432131  0.49246639  1  0.029884  0  -0.01071  -0.167667  0  3.798384  0
C  C39  1  0.49488081  0.87568127  0.50753246  1  0.030018  0  -0.010749  -0.167744  0  3.798533  0
C  C40  1  0.06827469  0.42970900  0.41870792  1  0.497345  0  0.054091  0.036295  0  3.925568  0
C  C41  1  0.93172229  0.57029202  0.58129466  1  0.497379  0  0.054081  0.036302  0  3.925399  0
C  C42  1  0.07279426  0.56707857  0.58274235  1  0.480685  0  0.054366  0.034598  0  3.917732  0
C  C43  1  0.92720272  0.43292246  0.41726023  1  0.480718  0  0.05433  0.034641  0  3.917708  0
C  C44  1  0.38826544  0.45185260  0.93485236  1  -0.05011  0  -0.090635  -0.104205  0  3.994316  0
C  C45  1  0.50134703  0.50283669  0.87375892  1  -0.042186  0  -0.018651  -0.026507  0  3.971496  0
C  C46  1  0.61173460  0.54814840  0.06515022  1  -0.050099  0  -0.090628  -0.104124  0  3.994247  0
C  C47  1  0.38702962  0.44908504  0.06035597  1  -0.027772  0  -0.089893  -0.100618  0  3.998539  0
C  C48  1  0.61297143  0.55091589  0.93964571  1  -0.02775  0  -0.089922  -0.100662  0  3.99858  0
C  C49  1  0.41271299  0.03084110  0.82461266  1  0.277094  0  -0.148489  -0.218692  0  3.983384  0
C  C50  1  0.58728493  0.96915678  0.17538651  1  0.268827  0  -0.148566  -0.218881  0  3.983727  0
C  C51  1  0.76999535  0.99588437  0.73537263  1  0.294385  0  -0.143338  -0.212152  0  4.011578  0
C  C52  1  0.23000653  0.00410870  0.26462595  1  0.294429  0  -0.143229  -0.211969  0  4.011568  0
C  C53  1  0.85666705  0.99234152  0.39574276  1  0.224381  0  -0.150059  -0.215679  0  3.998694  0
C  C54  1  0.14333201  0.00766084  0.60425339  1  0.224385  0  -0.150102  -0.215774  0  3.998869  0
C  C55  1  0.50399469  0.50456565  0.73854254  1  1.575165  0  0.208437  0.588802  0  4.191934  0
C  C56  1  0.49600435  0.49543623  0.26145907  1  1.575483  0  0.20843  0.588801  0  4.191855  0
C  C57  1  0.49692327  0.73789024  0.50460086  1  1.538789  0  0.2228  0.630962  0  4.160802  0
C  C58  1  0.50307682  0.26211242  0.49539890  1  1.538835  0  0.222737  0.630845  0  4.160869  0
C  C59  1  0.59577319  0.95873678  0.58281648  1  0.406917  0  0.085394  0.091165  0  3.708448  0
C  C60  1  0.40422687  0.04126478  0.41718153  1  0.406891  0  0.085387  0.091228  0  3.708403  0
C  C61  1  0.62842116  0.04055046  0.46133852  1  0.40702  0  0.087971  0.1038  0  3.713862  0
N  N62  1  0.85803953  0.50350586  0.49861368  1  -1.227295  0  -0.313323  -0.178811  0  3.488407  0
N  N63  1  0.14195743  0.49649430  0.50138986  1  -1.227106  0  -0.313333  -0.178763  0  3.488449  0
N  N64  1  0.43518934  0.11265847  0.72018022  1  -1.150504  0  -0.465659  -0.326802  0  3.481748  0
N  N65  1  0.56481273  0.88734237  0.27982057  1  -1.150532  0  -0.465676  -0.326815  0  3.481914  0
N  N66  1  0.67989338  0.90696477  0.67171327  1  -1.145164  0  -0.471433  -0.325282  0  3.537829  0
N  N67  1  0.32010660  0.09303382  0.32828314  1  -1.145055  0  -0.471427  -0.325251  0  3.537673  0
N  N68  1  0.75258552  0.08768752  0.41387523  1  -1.121736  0  -0.471755  -0.32911  0  3.516838  0
N  N69  1  0.24741357  0.91231594  0.58612266  1  -1.12211  0  -0.471731  -0.329031  0  3.516791  0
O  O70  1  0.62103032  0.51025093  0.68891351  1  -1.178927  0  -0.327969  -0.568581  0  2.316792  0
O  O71  1  0.37896781  0.48975464  0.31108696  1  -1.178976  0  -0.328025  -0.568632  0  2.316705  0
O  O72  1  0.61086455  0.50109489  0.31538134  1  -1.178744  0  -0.326435  -0.567831  0  2.312412  0
O  O73  1  0.38913342  0.49890519  0.68462131  1  -1.178428  0  -0.326467  -0.56787  0  2.312453  0
O  O74  1  0.61466931  0.68958663  0.50857335  1  -1.161846  0  -0.311978  -0.538487  0  2.374213  0
O  O75  1  0.38533083  0.31041777  0.49142448  1  -1.161829  0  -0.312001  -0.538476  0  2.374192  0
O  O76  1  0.61779915  0.31906642  0.50686314  1  -1.170894  0  -0.315509  -0.545534  0  2.370703  0
O  O77  1  0.38220092  0.68093553  0.49313938  1  -1.170883  0  -0.315527  -0.545539  0  2.370662  0
