# generated using pymatgen
data_CuH4C7N3
_symmetry_space_group_name_H-M   'P 1'
_cell_length_a   5.94951796
_cell_length_b   8.25916534
_cell_length_c   13.70598200
_cell_angle_alpha   90.00148980
_cell_angle_beta   90.00068303
_cell_angle_gamma   90.00110525
_symmetry_Int_Tables_number   1
_chemical_formula_structural   CuH4C7N3
_chemical_formula_sum   'Cu4 H16 C28 N12'
_cell_volume   673.48526320
_cell_formula_units_Z   4
loop_
 _symmetry_equiv_pos_site_id
 _symmetry_equiv_pos_as_xyz
  1  'x, y, z'
loop_
 _atom_site_type_symbol
 _atom_site_label
 _atom_site_symmetry_multiplicity
 _atom_site_fract_x
 _atom_site_fract_y
 _atom_site_fract_z
 _atom_site_occupancy
 _atom_site_hle17_bader_spin_density
 _atom_site_hle17_ddec_charge
 _atom_site_hle17_ddec_spin_density
 _atom_site_hle17_ddec_sum_bond_order
 _atom_site_hle17_magmom
 _atom_site_hse06_10hf_bader_spin_density
 _atom_site_hse06_10hf_ddec_charge
 _atom_site_hse06_10hf_ddec_spin_density
 _atom_site_hse06_10hf_ddec_sum_bond_order
 _atom_site_hse06_10hf_magmom
 _atom_site_hse06_bader_spin_density
 _atom_site_hse06_ddec_charge
 _atom_site_hse06_ddec_spin_density
 _atom_site_hse06_ddec_sum_bond_order
 _atom_site_hse06_magmom
 _atom_site_pbe_bader_spin_density
 _atom_site_pbe_cm5_charge
 _atom_site_pbe_ddec_charge
 _atom_site_pbe_ddec_spin_density
 _atom_site_pbe_ddec_sum_bond_order
 _atom_site_pbe_magmom
Cu  Cu0  1  0.23974695  0.38369900  0.75451311  1  0  0.439324  0  2.470796  0  0  0.356247  0  2.989629  0  0  0.332112  0  2.961538  0  0  0.566031  0.377188  0  3.003414  0
Cu  Cu1  1  0.73973343  0.11629764  0.24548576  1  0  0.439374  0  2.471178  0  0  0.356329  0  2.990029  0  0  0.332188  0  2.961925  0  0  0.566074  0.377269  0  3.003805  0
Cu  Cu2  1  0.76026112  0.88368299  0.74548428  1  0  0.439275  0  2.470327  0  0  0.356164  0  2.989156  0  0  0.332007  0  2.961059  0  0  0.56597  0.377092  0  3.002985  0
Cu  Cu3  1  0.26025958  0.61629869  0.25452349  1  0  0.439422  0  2.471134  0  0  0.35642  0  2.989976  0  0  0.332252  0  2.961865  0  0  0.566175  0.377356  0  3.003809  0
H  H4  1  0.67776296  0.25906583  0.68233544  1  0  0.092942  0  0.953886  0  0  0.099764  0  1.01771  0  0  0.102884  0  1.015605  0  0  0.117305  0.097411  0  1.019456  0
H  H5  1  0.17780318  0.24091201  0.31766644  1  0  0.092959  0  0.953886  0  0  0.099719  0  1.017783  0  0  0.102826  0  1.01568  0  0  0.117319  0.097364  0  1.019535  0
H  H6  1  0.32216696  0.75907184  0.81767559  1  0  0.092862  0  0.953895  0  0  0.09969  0  1.017704  0  0  0.102802  0  1.015592  0  0  0.117301  0.097334  0  1.019459  0
H  H7  1  0.82220747  0.74096012  0.18232844  1  0  0.092961  0  0.953921  0  0  0.099767  0  1.017757  0  0  0.102872  0  1.015653  0  0  0.117345  0.097412  0  1.019511  0
H  H8  1  0.95403939  0.31756754  0.55183714  1  0  0.113274  0  0.955351  0  0  0.120907  0  1.020826  0  0  0.123946  0  1.020342  0  0  0.110269  0.118669  0  1.021466  0
H  H9  1  0.45405387  0.18239984  0.44817601  1  0  0.113227  0  0.955338  0  0  0.120771  0  1.02088  0  0  0.123831  0  1.020338  0  0  0.110226  0.118536  0  1.021522  0
H  H10  1  0.04594125  0.81761465  0.94818635  1  0  0.113266  0  0.955414  0  0  0.12081  0  1.020948  0  0  0.123876  0  1.020388  0  0  0.110271  0.118574  0  1.021589  0
H  H11  1  0.54597498  0.68243504  0.05181589  1  0  0.113248  0  0.955372  0  0  0.120792  0  1.0209  0  0  0.123864  0  1.020323  0  0  0.110281  0.118544  0  1.021575  0
H  H12  1  0.47524631  0.66075781  0.43176084  1  0  0.10873  0  0.971963  0  0  0.111892  0  1.04697  0  0  0.11744  0  1.042093  0  0  0.104586  0.107846  0  1.05056  0
H  H13  1  0.97519997  0.83922488  0.56822984  1  0  0.108832  0  0.971761  0  0  0.112004  0  1.046761  0  0  0.117573  0  1.041849  0  0  0.104604  0.107936  0  1.050403  0
H  H14  1  0.52482719  0.16078456  0.06822858  1  0  0.108788  0  0.971746  0  0  0.111999  0  1.046727  0  0  0.117559  0  1.041823  0  0  0.104585  0.107917  0  1.050375  0
H  H15  1  0.02480996  0.33923529  0.93177352  1  0  0.108673  0  0.971813  0  0  0.111843  0  1.046835  0  0  0.117403  0  1.041937  0  0  0.104524  0.107791  0  1.050443  0
H  H16  1  0.22282073  0.59255212  0.57297628  1  0  0.077988  0  0.953812  0  0  0.087387  0  1.01628  0  0  0.089023  0  1.016522  0  0  0.113126  0.086048  0  1.01653  0
H  H17  1  0.72280314  0.90744734  0.42700674  1  0  0.078021  0  0.953838  0  0  0.087369  0  1.016366  0  0  0.088999  0  1.016615  0  0  0.113127  0.08604  0  1.016589  0
H  H18  1  0.77719603  0.09253011  0.92701427  1  0  0.077979  0  0.953792  0  0  0.087358  0  1.016276  0  0  0.088989  0  1.016527  0  0  0.113126  0.086019  0  1.016519  0
H  H19  1  0.27719966  0.40748992  0.07298528  1  0  0.077905  0  0.953723  0  0  0.087327  0  1.016163  0  0  0.088955  0  1.016418  0  0  0.113025  0.085987  0  1.016416  0
C  C20  1  0.07975260  0.18719532  0.75650884  1  0  -0.139761  0  3.502424  0  0  -0.149969  0  3.885148  0  0  -0.136058  0  3.885967  0  0  -0.066107  -0.159393  0  3.882692  0
C  C21  1  0.57974052  0.31278030  0.24349464  1  0  -0.139938  0  3.501655  0  0  -0.150227  0  3.884504  0  0  -0.136299  0  3.885324  0  0  -0.06625  -0.159651  0  3.882048  0
C  C22  1  0.92021356  0.68715785  0.74349466  1  0  -0.139756  0  3.502709  0  0  -0.149958  0  3.885458  0  0  -0.136049  0  3.886271  0  0  -0.06611  -0.159375  0  3.883015  0
C  C23  1  0.42022213  0.81280005  0.25651653  1  0  -0.139996  0  3.502153  0  0  -0.150244  0  3.88493  0  0  -0.136308  0  3.885732  0  0  -0.066329  -0.159675  0  3.882502  0
C  C24  1  0.63834939  0.34712761  0.62579651  1  0  0.132741  0  3.673562  0  0  0.105128  0  3.923185  0  0  0.109773  0  3.937725  0  0  0.049356  0.101836  0  3.914046  0
C  C25  1  0.13837338  0.15285345  0.37420323  1  0  0.132705  0  3.673434  0  0  0.10507  0  3.923115  0  0  0.109726  0  3.937655  0  0  0.049328  0.10178  0  3.913973  0
C  C26  1  0.36161374  0.84713561  0.87420913  1  0  0.132936  0  3.673503  0  0  0.105283  0  3.923131  0  0  0.109932  0  3.937667  0  0  0.049427  0.101991  0  3.913985  0
C  C27  1  0.86164271  0.65289313  0.12579265  1  0  0.13256  0  3.673373  0  0  0.104983  0  3.92307  0  0  0.109638  0  3.937614  0  0  0.049284  0.101699  0  3.913926  0
C  C28  1  0.79262401  0.37947612  0.55243449  1  0  -0.123346  0  3.672795  0  0  -0.144546  0  3.917209  0  0  -0.148255  0  3.935121  0  0  -0.068469  -0.142444  0  3.905972  0
C  C29  1  0.29263469  0.12049443  0.44756722  1  0  -0.123127  0  3.672697  0  0  -0.144164  0  3.917006  0  0  -0.147874  0  3.934934  0  0  -0.068336  -0.142067  0  3.905773  0
C  C30  1  0.20736543  0.87951277  0.94757305  1  0  -0.123261  0  3.673067  0  0  -0.144359  0  3.917426  0  0  -0.148068  0  3.935358  0  0  -0.068368  -0.14226  0  3.906186  0
C  C31  1  0.70738872  0.62052527  0.05242239  1  0  -0.123255  0  3.672833  0  0  -0.144345  0  3.917222  0  0  -0.148058  0  3.935168  0  0  -0.068417  -0.142246  0  3.905974  0
C  C32  1  0.73685283  0.49546765  0.48135832  1  0  0.06056  0  3.861709  0  0  0.080434  0  4.085694  0  0  0.082559  0  4.103713  0  0  0.018862  0.078596  0  4.074079  0
C  C33  1  0.23684220  0.00450354  0.51864201  1  0  0.060276  0  3.861887  0  0  0.080142  0  4.085868  0  0  0.082268  0  4.103898  0  0  0.018764  0.078306  0  4.074249  0
C  C34  1  0.26316470  0.99550919  0.01864947  1  0  0.06016  0  3.861995  0  0  0.080094  0  4.085915  0  0  0.08221  0  4.103955  0  0  0.018798  0.078264  0  4.074282  0
C  C35  1  0.76316655  0.50452458  0.98134954  1  0  0.06038  0  3.86195  0  0  0.080294  0  4.085872  0  0  0.082418  0  4.103907  0  0  0.018807  0.078461  0  4.074243  0
C  C36  1  0.52674990  0.57320579  0.48689527  1  0  -0.126353  0  3.68313  0  0  -0.1452  0  3.924498  0  0  -0.149967  0  3.942411  0  0  -0.070912  -0.142216  0  3.913024  0
C  C37  1  0.02672960  0.92677469  0.51309897  1  0  -0.126355  0  3.682921  0  0  -0.145256  0  3.924314  0  0  -0.150032  0  3.942224  0  0  -0.071036  -0.142272  0  3.912831  0
C  C38  1  0.47328200  0.07322929  0.01310100  1  0  -0.126164  0  3.683066  0  0  -0.145133  0  3.924445  0  0  -0.149901  0  3.942376  0  0  -0.071013  -0.142136  0  3.912966  0
C  C39  1  0.97327488  0.42680003  0.98689753  1  0  -0.126285  0  3.682979  0  0  -0.145182  0  3.924338  0  0  -0.149958  0  3.942264  0  0  -0.070981  -0.142195  0  3.912844  0
C  C40  1  0.38522756  0.53335546  0.56366888  1  0  0.120813  0  3.697509  0  0  0.094028  0  3.946872  0  0  0.098003  0  3.96361  0  0  0.044107  0.091234  0  3.936237  0
C  C41  1  0.88521591  0.96663477  0.43632120  1  0  0.120733  0  3.697281  0  0  0.09399  0  3.94664  0  0  0.097953  0  3.963407  0  0  0.044154  0.091198  0  3.936013  0
C  C42  1  0.61478385  0.03334676  0.93632525  1  0  0.120723  0  3.6977  0  0  0.093992  0  3.947032  0  0  0.097957  0  3.963766  0  0  0.044168  0.091198  0  3.936406  0
C  C43  1  0.11478553  0.46667401  0.06367453  1  0  0.120871  0  3.697364  0  0  0.094184  0  3.946675  0  0  0.098153  0  3.963422  0  0  0.044374  0.091383  0  3.936059  0
C  C44  1  0.89482703  0.53558572  0.40779644  1  0  0.295337  0  3.678758  0  0  0.28096  0  3.939936  0  0  0.29117  0  3.952964  0  0  0.209285  0.274325  0  3.931637  0
C  C45  1  0.39481463  0.96438403  0.59220968  1  0  0.295319  0  3.678787  0  0  0.280926  0  3.939968  0  0  0.291134  0  3.952988  0  0  0.209291  0.27429  0  3.931662  0
C  C46  1  0.10518679  0.03564201  0.09221246  1  0  0.295504  0  3.678698  0  0  0.281089  0  3.939921  0  0  0.291295  0  3.95296  0  0  0.20932  0.274461  0  3.931577  0
C  C47  1  0.60518607  0.46439562  0.90778734  1  0  0.295276  0  3.678913  0  0  0.280858  0  3.940116  0  0  0.291066  0  3.953146  0  0  0.209281  0.274222  0  3.931794  0
N  N48  1  0.96126570  0.07310353  0.75368166  1  0  -0.410603  0  3.300507  0  0  -0.348376  0  3.625826  0  0  -0.363168  0  3.636546  0  0  -0.432355  -0.338784  0  3.617343  0
N  N49  1  0.46120687  0.42688087  0.24631616  1  0  -0.410472  0  3.299613  0  0  -0.34825  0  3.625006  0  0  -0.363018  0  3.63566  0  0  -0.432278  -0.338659  0  3.616528  0
N  N50  1  0.03874368  0.57310431  0.74630278  1  0  -0.410533  0  3.300988  0  0  -0.348317  0  3.626283  0  0  -0.363116  0  3.637028  0  0  -0.432335  -0.338727  0  3.617787  0
N  N51  1  0.53876970  0.92688476  0.25368998  1  0  -0.410409  0  3.300217  0  0  -0.348187  0  3.625544  0  0  -0.362977  0  3.636254  0  0  -0.432204  -0.338588  0  3.617052  0
N  N52  1  0.43812960  0.42258472  0.63212944  1  0  -0.268783  0  3.307839  0  0  -0.208463  0  3.598604  0  0  -0.211232  0  3.602962  0  0  -0.339858  -0.207443  0  3.595811  0
N  N53  1  0.93813755  0.07740549  0.36786404  1  0  -0.268674  0  3.307666  0  0  -0.208302  0  3.598333  0  0  -0.211068  0  3.602686  0  0  -0.339787  -0.207283  0  3.595539  0
N  N54  1  0.56184280  0.92257873  0.86786993  1  0  -0.268773  0  3.307832  0  0  -0.208432  0  3.598525  0  0  -0.211181  0  3.602871  0  0  -0.339899  -0.207409  0  3.595729  0
N  N55  1  0.06186760  0.57744449  0.13213228  1  0  -0.268495  0  3.30758  0  0  -0.208326  0  3.598422  0  0  -0.21109  0  3.602779  0  0  -0.339885  -0.207306  0  3.595634  0
N  N56  1  0.03472591  0.56944651  0.35149048  1  0  -0.372967  0  3.065032  0  0  -0.340269  0  3.390268  0  0  -0.338322  0  3.388404  0  0  -0.355265  -0.342941  0  3.390959  0
N  N57  1  0.53470615  0.93052921  0.64851542  1  0  -0.372808  0  3.06487  0  0  -0.340085  0  3.390103  0  0  -0.33813  0  3.388229  0  0  -0.355184  -0.34275  0  3.390779  0
N  N58  1  0.96526553  0.06948297  0.14851230  1  0  -0.373018  0  3.065083  0  0  -0.340318  0  3.390355  0  0  -0.338374  0  3.388502  0  0  -0.355294  -0.342985  0  3.391022  0
N  N59  1  0.46527157  0.43054869  0.85148771  1  0  -0.372812  0  3.065066  0  0  -0.340107  0  3.390338  0  0  -0.338153  0  3.388468  0  0  -0.355202  -0.34277  0  3.390991  0
