# generated using pymatgen
data_ZnH6C16N4(ClO)4
_symmetry_space_group_name_H-M   'P 1'
_cell_length_a   7.97365359
_cell_length_b   9.88558831
_cell_length_c   11.55601590
_cell_angle_alpha   105.78915110
_cell_angle_beta   91.77327128
_cell_angle_gamma   96.28994011
_symmetry_Int_Tables_number   1
_chemical_formula_structural   ZnH6C16N4(ClO)4
_chemical_formula_sum   'Zn2 H12 C32 N8 Cl8 O8'
_cell_volume   869.48995341
_cell_formula_units_Z   2
loop_
 _symmetry_equiv_pos_site_id
 _symmetry_equiv_pos_as_xyz
  1  'x, y, z'
loop_
 _atom_site_type_symbol
 _atom_site_label
 _atom_site_symmetry_multiplicity
 _atom_site_fract_x
 _atom_site_fract_y
 _atom_site_fract_z
 _atom_site_occupancy
 _atom_site_hle17_bader_spin_density
 _atom_site_hle17_ddec_charge
 _atom_site_hle17_ddec_spin_density
 _atom_site_hle17_ddec_sum_bond_order
 _atom_site_hle17_magmom
 _atom_site_hse06_10hf_bader_spin_density
 _atom_site_hse06_10hf_ddec_charge
 _atom_site_hse06_10hf_ddec_spin_density
 _atom_site_hse06_10hf_ddec_sum_bond_order
 _atom_site_hse06_10hf_magmom
 _atom_site_hse06_bader_spin_density
 _atom_site_hse06_ddec_charge
 _atom_site_hse06_ddec_spin_density
 _atom_site_hse06_ddec_sum_bond_order
 _atom_site_hse06_magmom
 _atom_site_pbe_bader_spin_density
 _atom_site_pbe_cm5_charge
 _atom_site_pbe_ddec_charge
 _atom_site_pbe_ddec_spin_density
 _atom_site_pbe_ddec_sum_bond_order
 _atom_site_pbe_magmom
Zn  Zn0  1  0.13610245  0.85228418  0.98521442  1  0  1.098788  0  1.833798  0  0  0.917085  0  2.32749  0  0  0.963789  0  2.266109  0  0  0.711698  0.884069  0  2.370236  0
Zn  Zn1  1  0.86389593  0.14771610  0.01478586  1  0  1.098756  0  1.833767  0  0  0.917062  0  2.327449  0  0  0.963759  0  2.266061  0  0  0.711695  0.884042  0  2.370175  0
H  H2  1  0.74441680  0.83522689  0.87011136  1  0  0.30918  0  0.876874  0  0  0.290444  0  0.937095  0  0  0.299077  0  0.929687  0  0  0.326781  0.284424  0  0.942189  0
H  H3  1  0.25558269  0.16477235  0.12988870  1  0  0.309184  0  0.876876  0  0  0.290437  0  0.937105  0  0  0.299075  0  0.929695  0  0  0.326771  0.284417  0  0.942197  0
H  H4  1  0.58018430  0.10972531  0.16618052  1  0  0.277378  0  0.932306  0  0  0.246987  0  1.017028  0  0  0.257248  0  1.007497  0  0  0.307254  0.239662  0  1.024021  0
H  H5  1  0.41981533  0.89027498  0.83381892  1  0  0.27739  0  0.932303  0  0  0.246986  0  1.017025  0  0  0.257245  0  1.007495  0  0  0.307257  0.239662  0  1.024022  0
H  H6  1  0.93684903  0.55743625  0.10517965  1  0  0.13793  0  0.918498  0  0  0.147553  0  0.976412  0  0  0.151677  0  0.973257  0  0  0.116772  0.144575  0  0.978852  0
H  H7  1  0.06315214  0.44256616  0.89481858  1  0  0.137942  0  0.918483  0  0  0.147565  0  0.976395  0  0  0.15169  0  0.97324  0  0  0.116783  0.144591  0  0.978835  0
H  H8  1  0.34033520  0.62547817  0.20128879  1  0  0.132419  0  0.929449  0  0  0.140381  0  0.991245  0  0  0.144659  0  0.988118  0  0  0.112118  0.137265  0  0.993581  0
H  H9  1  0.65966430  0.37452107  0.79871214  1  0  0.132391  0  0.929487  0  0  0.140357  0  0.991276  0  0  0.144634  0  0.988148  0  0  0.112111  0.137242  0  0.993612  0
H  H10  1  0.62695924  0.87413474  0.47369083  1  0  0.145307  0  0.929696  0  0  0.15007  0  0.994971  0  0  0.15492  0  0.991001  0  0  0.113819  0.146609  0  0.997811  0
H  H11  1  0.37303913  0.12586554  0.52630772  1  0  0.145268  0  0.929749  0  0  0.150036  0  0.995011  0  0  0.154884  0  0.991043  0  0  0.113809  0.146576  0  0.997849  0
H  H12  1  0.17800809  0.87753500  0.27875693  1  0  0.146544  0  0.92786  0  0  0.152986  0  0.990586  0  0  0.15771  0  0.986938  0  0  0.114962  0.149596  0  0.993288  0
H  H13  1  0.82199310  0.12246743  0.72124650  1  0  0.146541  0  0.927905  0  0  0.152981  0  0.99063  0  0  0.157706  0  0.986981  0  0  0.114955  0.149594  0  0.993331  0
C  C14  1  0.80713938  0.57247241  0.12689353  1  0  -0.094091  0  3.668006  0  0  -0.127687  0  3.921829  0  0  -0.127433  0  3.938866  0  0  -0.077014  -0.128051  0  3.91086  0
C  C15  1  0.19286011  0.42752682  0.87310479  1  0  -0.094055  0  3.668104  0  0  -0.127629  0  3.921926  0  0  -0.127372  0  3.938964  0  0  -0.077015  -0.127994  0  3.910961  0
C  C16  1  0.73341366  0.51859214  0.21473506  1  0  0.082622  0  3.779829  0  0  0.089713  0  4.050262  0  0  0.091413  0  4.071084  0  0  0.01494  0.088139  0  4.036876  0
C  C17  1  0.26658443  0.48140602  0.78526386  1  0  0.082606  0  3.779824  0  0  0.089647  0  4.050328  0  0  0.091342  0  4.071156  0  0  0.01493  0.088063  0  4.036962  0
C  C18  1  0.56299800  0.53644747  0.24066326  1  0  0.088108  0  3.783964  0  0  0.091022  0  4.05827  0  0  0.094252  0  4.079092  0  0  0.012159  0.089083  0  4.043926  0
C  C19  1  0.43700134  0.46355070  0.75933482  1  0  0.088108  0  3.783825  0  0  0.091039  0  4.058141  0  0  0.094271  0  4.078964  0  0  0.012166  0.089113  0  4.043782  0
C  C20  1  0.47004940  0.60995294  0.18027953  1  0  -0.112616  0  3.680939  0  0  -0.147765  0  3.939607  0  0  -0.149752  0  3.957255  0  0  -0.083681  -0.146544  0  3.927444  0
C  C21  1  0.52995077  0.39004207  0.81971957  1  0  -0.112599  0  3.680822  0  0  -0.147724  0  3.939491  0  0  -0.14971  0  3.95714  0  0  -0.083676  -0.146504  0  3.927327  0
C  C22  1  0.54462383  0.66589465  0.09228080  1  0  -0.029442  0  3.757492  0  0  -0.018141  0  3.993207  0  0  -0.019875  0  4.014117  0  0  -0.004845  -0.016842  0  3.979056  0
C  C23  1  0.45537397  0.33410139  0.90771762  1  0  -0.029382  0  3.757326  0  0  -0.018095  0  3.993153  0  0  -0.019829  0  4.014057  0  0  -0.004804  -0.016796  0  3.979007  0
C  C24  1  0.71288479  0.64628430  0.06565653  1  0  -0.058545  0  3.794068  0  0  -0.046674  0  4.034204  0  0  -0.052745  0  4.056753  0  0  -0.01181  -0.042798  0  4.019192  0
C  C25  1  0.28711190  0.35371279  0.93434124  1  0  -0.058649  0  3.794147  0  0  -0.046769  0  4.034311  0  0  -0.052839  0  4.056861  0  0  -0.011836  -0.042894  0  4.019305  0
C  C26  1  0.45053031  0.74360266  0.02683548  1  0  0.455927  0  3.910223  0  0  0.415688  0  4.202182  0  0  0.438438  0  4.209929  0  0  0.208264  0.400118  0  4.196759  0
C  C27  1  0.54946918  0.25639657  0.97316372  1  0  0.456086  0  3.909921  0  0  0.415718  0  4.202102  0  0  0.438469  0  4.209847  0  0  0.208238  0.400151  0  4.196672  0
C  C28  1  0.78814500  0.70934746  0.97722899  1  0  0.490814  0  3.857215  0  0  0.440343  0  4.143739  0  0  0.467573  0  4.146591  0  0  0.225602  0.422188  0  4.141178  0
C  C29  1  0.21185324  0.29065177  0.02277104  1  0  0.490861  0  3.85711  0  0  0.440399  0  4.14362  0  0  0.467635  0  4.146474  0  0  0.225644  0.422251  0  4.141049  0
C  C30  1  0.74536182  0.87024295  0.42865321  1  0  -0.104602  0  3.667  0  0  -0.135388  0  3.920193  0  0  -0.13673  0  3.938238  0  0  -0.07709  -0.134564  0  3.907907  0
C  C31  1  0.25463782  0.12975734  0.57134623  1  0  -0.104576  0  3.666891  0  0  -0.135363  0  3.920094  0  0  -0.136704  0  3.938137  0  0  -0.077081  -0.134532  0  3.907805  0
C  C32  1  0.87632231  0.80635567  0.46565711  1  0  0.081965  0  3.777503  0  0  0.085877  0  4.050232  0  0  0.087995  0  4.071992  0  0  0.01299  0.08437  0  4.035946  0
C  C33  1  0.12367608  0.19364462  0.53434317  1  0  0.08191  0  3.777464  0  0  0.085857  0  4.050144  0  0  0.087977  0  4.071903  0  0  0.012992  0.084348  0  4.035861  0
C  C34  1  0.03248121  0.80688960  0.41035264  1  0  0.082946  0  3.788413  0  0  0.087466  0  4.059821  0  0  0.089428  0  4.081582  0  0  0.012591  0.085963  0  4.045618  0
C  C35  1  0.96751717  0.19311069  0.58964764  1  0  0.082974  0  3.788481  0  0  0.08748  0  4.059884  0  0  0.089442  0  4.081645  0  0  0.01258  0.085972  0  4.045689  0
C  C36  1  0.05637719  0.87264401  0.31906857  1  0  -0.108148  0  3.659251  0  0  -0.137706  0  3.910404  0  0  -0.138717  0  3.927635  0  0  -0.080755  -0.137167  0  3.899002  0
C  C37  1  0.94362385  0.12735735  0.68093201  1  0  -0.108162  0  3.659391  0  0  -0.137717  0  3.910543  0  0  -0.138728  0  3.927773  0  0  -0.080708  -0.137178  0  3.899143  0
C  C38  1  0.92387515  0.93565629  0.28066678  1  0  -0.045725  0  3.780041  0  0  -0.036004  0  4.023373  0  0  -0.040015  0  4.045248  0  0  -0.01435  -0.033402  0  4.008541  0
C  C39  1  0.07612464  0.06434506  0.71933377  1  0  -0.045756  0  3.779992  0  0  -0.036022  0  4.023343  0  0  -0.04003  0  4.045213  0  0  -0.014358  -0.033422  0  4.008516  0
C  C40  1  0.76770963  0.93441049  0.33534601  1  0  -0.048527  0  3.742833  0  0  -0.039062  0  3.984978  0  0  -0.042697  0  4.006254  0  0  -0.010572  -0.036336  0  3.970458  0
C  C41  1  0.23229155  0.06559193  0.66465482  1  0  -0.04859  0  3.742779  0  0  -0.039169  0  3.984999  0  0  -0.042803  0  4.006273  0  0  -0.010634  -0.036445  0  3.970491  0
C  C42  1  0.94487875  0.00263238  0.18366297  1  0  0.457559  0  3.912776  0  0  0.409933  0  4.203564  0  0  0.434542  0  4.209418  0  0  0.201488  0.393492  0  4.198995  0
C  C43  1  0.05512118  0.99737003  0.81633870  1  0  0.457645  0  3.912653  0  0  0.409992  0  4.203473  0  0  0.4346  0  4.209324  0  0  0.201492  0.393559  0  4.198899  0
C  C44  1  0.62841967  0.00101370  0.29479872  1  0  0.4887  0  3.89023  0  0  0.441444  0  4.186236  0  0  0.468951  0  4.188199  0  0  0.219907  0.422768  0  4.184661  0
C  C45  1  0.37158152  0.99898872  0.70520211  1  0  0.488926  0  3.890055  0  0  0.441649  0  4.186052  0  0  0.469155  0  4.188009  0  0  0.219986  0.422968  0  4.184494  0
N  N46  1  0.52216299  0.79855051  0.94444672  1  0  -0.328803  0  2.961095  0  0  -0.312517  0  3.249577  0  0  -0.325811  0  3.260866  0  0  -0.240875  -0.303585  0  3.242181  0
N  N47  1  0.47783524  0.20144872  0.05555331  1  0  -0.328875  0  2.961084  0  0  -0.312552  0  3.249603  0  0  -0.325839  0  3.260895  0  0  -0.240867  -0.30362  0  3.242201  0
N  N48  1  0.68737307  0.77908395  0.92445601  1  0  -0.241418  0  3.458285  0  0  -0.18629  0  3.710369  0  0  -0.201931  0  3.72368  0  0  -0.2792  -0.175922  0  3.701145  0
N  N49  1  0.31262767  0.22091529  0.07554321  1  0  -0.241447  0  3.458378  0  0  -0.186283  0  3.710416  0  0  -0.201945  0  3.723739  0  0  -0.279182  -0.175915  0  3.701184  0
N  N50  1  0.81815459  0.06217395  0.14933346  1  0  -0.364957  0  3.287995  0  0  -0.308102  0  3.605386  0  0  -0.327603  0  3.616155  0  0  -0.271232  -0.295134  0  3.599224  0
N  N51  1  0.18184645  0.93782740  0.85066625  1  0  -0.365025  0  3.287867  0  0  -0.308185  0  3.605251  0  0  -0.327691  0  3.616024  0  0  -0.271298  -0.295217  0  3.599095  0
N  N52  1  0.66845679  0.06225431  0.20415239  1  0  -0.261258  0  3.40908  0  0  -0.211957  0  3.662245  0  0  -0.230865  0  3.677358  0  0  -0.293935  -0.199434  0  3.653064  0
N  N53  1  0.33154424  0.93774705  0.79584733  1  0  -0.261347  0  3.409038  0  0  -0.211982  0  3.662149  0  0  -0.230885  0  3.677258  0  0  -0.293924  -0.199463  0  3.652986  0
Cl  Cl54  1  0.47080052  0.46629199  0.34693053  1  0  -0.06081  0  1.500346  0  0  -0.050851  0  1.760096  0  0  -0.053466  0  1.754332  0  0  0.007702  -0.048735  0  1.762657  0
Cl  Cl55  1  0.52920119  0.53370514  0.65306822  1  0  -0.060819  0  1.500349  0  0  -0.05086  0  1.760102  0  0  -0.053475  0  1.754338  0  0  0.007699  -0.048746  0  1.762658  0
Cl  Cl56  1  0.84866600  0.43136735  0.29237499  1  0  -0.056488  0  1.49901  0  0  -0.051304  0  1.76259  0  0  -0.053734  0  1.757572  0  0  0.016822  -0.048583  0  1.766507  0
Cl  Cl57  1  0.15133489  0.56863294  0.70762448  1  0  -0.05649  0  1.498981  0  0  -0.05129  0  1.762584  0  0  -0.05372  0  1.75757  0  0  0.016826  -0.048562  0  1.766511  0
Cl  Cl58  1  0.84745204  0.72723982  0.58001245  1  0  -0.047062  0  1.465238  0  0  -0.03479  0  1.723507  0  0  -0.037358  0  1.717996  0  0  0.013604  -0.033149  0  1.726706  0
Cl  Cl59  1  0.15254509  0.27276045  0.41998781  1  0  -0.047026  0  1.465264  0  0  -0.034767  0  1.723526  0  0  -0.037335  0  1.718013  0  0  0.013603  -0.033126  0  1.726728  0
Cl  Cl60  1  0.19398583  0.72739787  0.45534800  1  0  -0.056  0  1.445573  0  0  -0.044202  0  1.690134  0  0  -0.047266  0  1.68614  0  0  0.01818  -0.042104  0  1.692653  0
Cl  Cl61  1  0.80601271  0.27260347  0.54465426  1  0  -0.055996  0  1.445614  0  0  -0.0442  0  1.690186  0  0  -0.047263  0  1.686191  0  0  0.018182  -0.042099  0  1.692702  0
O  O62  1  0.29518588  0.75650515  0.05193186  1  0  -0.61793  0  2.102829  0  0  -0.545314  0  2.387871  0  0  -0.574361  0  2.375482  0  0  -0.332567  -0.524921  0  2.395739  0
O  O63  1  0.70481235  0.24349407  0.94806644  1  0  -0.617984  0  2.102671  0  0  -0.545332  0  2.387799  0  0  -0.574378  0  2.375407  0  0  -0.332575  -0.524939  0  2.395658  0
O  O64  1  0.94188334  0.70100423  0.95036992  1  0  -0.626892  0  2.10606  0  0  -0.560861  0  2.391499  0  0  -0.585259  0  2.375871  0  0  -0.33202  -0.543667  0  2.401585  0
O  O65  1  0.05811631  0.29899606  0.04963212  1  0  -0.62688  0  2.105977  0  0  -0.560866  0  2.391427  0  0  -0.585262  0  2.375791  0  0  -0.332062  -0.543675  0  2.401505  0
O  O66  1  0.08474103  0.00648779  0.12801720  1  0  -0.675897  0  2.114928  0  0  -0.606233  0  2.402103  0  0  -0.630425  0  2.384358  0  0  -0.342726  -0.588881  0  2.412824  0
O  O67  1  0.91526127  0.99351358  0.87198341  1  0  -0.675898  0  2.114904  0  0  -0.606206  0  2.402067  0  0  -0.630401  0  2.384333  0  0  -0.3427  -0.588841  0  2.412752  0
O  O68  1  0.48590876  0.00331599  0.33534538  1  0  -0.536974  0  1.891734  0  0  -0.506144  0  2.113108  0  0  -0.525626  0  2.106778  0  0  -0.314989  -0.492522  0  2.116882  0
O  O69  1  0.51409257  0.99668749  0.66465570  1  0  -0.537031  0  1.891624  0  0  -0.506193  0  2.113005  0  0  -0.525679  0  2.106673  0  0  -0.314989  -0.492566  0  2.116784  0
