# generated using pymatgen
data_CuH6C3S3N3Cl
_symmetry_space_group_name_H-M   'P 1'
_cell_length_a   13.28534023
_cell_length_b   13.28537306
_cell_length_c   13.46471230
_cell_angle_alpha   89.99995128
_cell_angle_beta   90.00014360
_cell_angle_gamma   114.86644481
_symmetry_Int_Tables_number   1
_chemical_formula_structural   CuH6C3S3N3Cl
_chemical_formula_sum   'Cu8 H48 C24 S24 N24 Cl8'
_cell_volume   2156.20399863
_cell_formula_units_Z   8
loop_
 _symmetry_equiv_pos_site_id
 _symmetry_equiv_pos_as_xyz
  1  'x, y, z'
loop_
 _atom_site_type_symbol
 _atom_site_label
 _atom_site_symmetry_multiplicity
 _atom_site_fract_x
 _atom_site_fract_y
 _atom_site_fract_z
 _atom_site_occupancy
 _atom_site_pbe_bader_charge
 _atom_site_pbe_bader_spin_density
 _atom_site_pbe_cm5_charge
 _atom_site_pbe_ddec_charge
 _atom_site_pbe_ddec_spin_density
 _atom_site_pbe_ddec_sum_bond_order
 _atom_site_pbe_magmom
Cu  Cu0  1  0.20239965  0.52253718  0.50351914  1  0.495038  0  0.333734  0.260206  0  2.875656  0
Cu  Cu1  1  0.29759636  0.97745847  0.50351981  1  0.494909  0  0.333739  0.260203  0  2.875626  0
Cu  Cu2  1  0.02254358  0.70240375  0.99647554  1  0.494986  0  0.333649  0.260069  0  2.875485  0
Cu  Cu3  1  0.47745290  0.79759092  0.99647680  1  0.494893  0  0.333635  0.260107  0  2.87554  0
Cu  Cu4  1  0.79760553  0.47746211  0.49648373  1  0.495062  0  0.33369  0.260106  0  2.875719  0
Cu  Cu5  1  0.70239554  0.02253600  0.49648380  1  0.495064  0  0.333714  0.260175  0  2.87567  0
Cu  Cu6  1  0.97745496  0.29759576  0.00352214  1  0.495014  0  0.333654  0.260064  0  2.875478  0
Cu  Cu7  1  0.52254315  0.20240153  0.00352013  1  0.494984  0  0.333675  0.260124  0  2.875446  0
H  H8  1  0.45325510  0.79737048  0.33924178  1  0.472219  0  0.292663  0.302436  0  0.962221  0
H  H9  1  0.04674628  0.70262982  0.33924132  1  0.472229  0  0.292695  0.302455  0  0.96229  0
H  H10  1  0.29736577  0.95325116  0.16074904  1  0.472356  0  0.292682  0.302487  0  0.962248  0
H  H11  1  0.20263514  0.54674985  0.16074983  1  0.472364  0  0.292695  0.302505  0  0.962217  0
H  H12  1  0.54675092  0.20263367  0.66075663  1  0.472282  0  0.292654  0.302382  0  0.962453  0
H  H13  1  0.95325143  0.29736784  0.66075561  1  0.472267  0  0.292658  0.302385  0  0.962427  0
H  H14  1  0.70263527  0.04675015  0.83924938  1  0.472362  0  0.292702  0.302485  0  0.962288  0
H  H15  1  0.79736589  0.45325221  0.83925081  1  0.472333  0  0.292741  0.302596  0  0.962242  0
H  H16  1  0.38477956  0.71257246  0.44154841  1  0.492465  0  0.274053  0.298663  0  1.005264  0
H  H17  1  0.11522209  0.78742787  0.44154656  1  0.492489  0  0.274063  0.298677  0  1.005283  0
H  H18  1  0.21257784  0.88478518  0.05843931  1  0.492325  0  0.274035  0.298692  0  1.005337  0
H  H19  1  0.28742445  0.61521575  0.05843952  1  0.492316  0  0.274006  0.298641  0  1.005444  0
H  H20  1  0.61522147  0.28742810  0.55845149  1  0.492448  0  0.274036  0.29867  0  1.005266  0
H  H21  1  0.88477977  0.21257379  0.55845037  1  0.492431  0  0.274031  0.298669  0  1.005259  0
H  H22  1  0.78742568  0.11521718  0.94155910  1  0.492327  0  0.274008  0.298624  0  1.005415  0
H  H23  1  0.71257575  0.38478522  0.94155964  1  0.492335  0  0.274003  0.298619  0  1.005431  0
H  H24  1  0.25211888  0.52683130  0.69335022  1  0.477241  0  0.285527  0.298822  0  0.976579  0
H  H25  1  0.24787929  0.97316961  0.69335077  1  0.477226  0  0.285495  0.298809  0  0.97656  0
H  H26  1  0.02683108  0.75211872  0.80664748  1  0.477244  0  0.285517  0.298827  0  0.976568  0
H  H27  1  0.47316904  0.74787990  0.80665026  1  0.477264  0  0.2855  0.298803  0  0.976591  0
H  H28  1  0.74788215  0.47316700  0.30665043  1  0.477296  0  0.285538  0.298815  0  0.976604  0
H  H29  1  0.75212009  0.02683628  0.30665062  1  0.477253  0  0.285557  0.298828  0  0.976545  0
H  H30  1  0.97317161  0.24788178  0.19335317  1  0.477284  0  0.285511  0.298824  0  0.976556  0
H  H31  1  0.52682867  0.25212002  0.19335336  1  0.477245  0  0.285492  0.298797  0  0.976598  0
H  H32  1  0.23499817  0.56049701  0.81680993  1  0.494291  0  0.278597  0.302397  0  0.98613  0
H  H33  1  0.26500033  0.93950243  0.81681278  1  0.494253  0  0.278595  0.302444  0  0.986037  0
H  H34  1  0.06049555  0.73499704  0.68318555  1  0.494235  0  0.278582  0.302377  0  0.986134  0
H  H35  1  0.43950176  0.76500051  0.68318378  1  0.494211  0  0.278593  0.302398  0  0.986046  0
H  H36  1  0.76500453  0.43950425  0.18319146  1  0.494335  0  0.278635  0.302438  0  0.986091  0
H  H37  1  0.73499656  0.06049790  0.18319083  1  0.494317  0  0.278629  0.302414  0  0.986094  0
H  H38  1  0.93950465  0.26500393  0.31681361  1  0.494244  0  0.278592  0.302384  0  0.986126  0
H  H39  1  0.56049513  0.23499831  0.31681316  1  0.494237  0  0.278572  0.302372  0  0.986136  0
H  H40  1  0.42294511  0.35906928  0.46598805  1  0.493127  0  0.277256  0.296691  0  0.995849  0
H  H41  1  0.07705598  0.14093180  0.46598920  1  0.493137  0  0.277257  0.296672  0  0.995861  0
H  H42  1  0.85907124  0.92294297  0.03400957  1  0.493103  0  0.277295  0.296673  0  0.995863  0
H  H43  1  0.64092675  0.57705398  0.03401019  1  0.493083  0  0.277281  0.296666  0  0.995847  0
H  H44  1  0.57705758  0.64093122  0.53401334  1  0.493074  0  0.27728  0.296681  0  0.995874  0
H  H45  1  0.92294506  0.85907026  0.53401367  1  0.493076  0  0.277249  0.296679  0  0.995887  0
H  H46  1  0.14092730  0.07705805  0.96598736  1  0.493119  0  0.277306  0.296696  0  0.995845  0
H  H47  1  0.35907428  0.42294357  0.96598749  1  0.493108  0  0.277291  0.296691  0  0.995869  0
H  H48  1  0.38020631  0.46609273  0.49241926  1  0.506552  0  0.275087  0.295819  0  0.998044  0
H  H49  1  0.11979402  0.03390802  0.49241912  1  0.506553  0  0.275085  0.295806  0  0.998069  0
H  H50  1  0.96608627  0.88020403  0.00757915  1  0.506519  0  0.275147  0.295904  0  0.997983  0
H  H51  1  0.53391248  0.61979326  0.00757947  1  0.506541  0  0.275149  0.29592  0  0.997965  0
H  H52  1  0.61979306  0.53390789  0.50758138  1  0.506554  0  0.275084  0.29581  0  0.998076  0
H  H53  1  0.88020535  0.96609109  0.50758301  1  0.506564  0  0.275098  0.295837  0  0.998055  0
H  H54  1  0.03391476  0.11979578  0.99241852  1  0.506562  0  0.275154  0.295882  0  0.998021  0
H  H55  1  0.46608690  0.38020660  0.99241895  1  0.506544  0  0.275136  0.295882  0  0.998031  0
C  C56  1  0.31724317  0.65855602  0.30438167  1  0.449896  0  0.135835  0.260703  0  4.017082  0
C  C57  1  0.18275811  0.84144352  0.30437919  1  0.417393  0  0.135817  0.260704  0  4.01704  0
C  C58  1  0.15856667  0.81723822  0.19561636  1  0.450008  0  0.135861  0.260879  0  4.016946  0
C  C59  1  0.34143267  0.68276210  0.19561813  1  0.417423  0  0.135846  0.260773  0  4.017051  0
C  C60  1  0.68276118  0.34144518  0.69562121  1  0.449512  0  0.13578  0.260679  0  4.017012  0
C  C61  1  0.81724126  0.15855634  0.69561997  1  0.449753  0  0.135794  0.260692  0  4.017108  0
C  C62  1  0.84143767  0.18275921  0.80438206  1  0.417798  0  0.135883  0.26085  0  4.016949  0
C  C63  1  0.65856422  0.31724274  0.80438252  1  0.417461  0  0.135873  0.260799  0  4.016909  0
C  C64  1  0.13857057  0.59007221  0.71164899  1  0.450443  0  0.138943  0.262518  0  4.014785  0
C  C65  1  0.36142432  0.90992355  0.71164988  1  0.450555  0  0.138913  0.262486  0  4.0148  0
C  C66  1  0.09007478  0.63856968  0.78834643  1  0.412214  0  0.138821  0.262301  0  4.014912  0
C  C67  1  0.40992613  0.86142702  0.78834748  1  0.413014  0  0.138812  0.262363  0  4.014778  0
C  C68  1  0.86143626  0.40992928  0.28835165  1  0.449439  0  0.138952  0.262506  0  4.014716  0
C  C69  1  0.63856841  0.09007278  0.28835151  1  0.450494  0  0.138989  0.262567  0  4.01482  0
C  C70  1  0.90992625  0.36143012  0.21165496  1  0.412404  0  0.138824  0.262337  0  4.015044  0
C  C71  1  0.59007490  0.13857203  0.21165465  1  0.41223  0  0.138839  0.262393  0  4.015021  0
C  C72  1  0.25981692  0.30985532  0.50571022  1  0.414749  0  0.142258  0.269719  0  4.023557  0
C  C73  1  0.24018510  0.19014386  0.50570950  1  0.458187  0  0.14223  0.269701  0  4.023605  0
C  C74  1  0.80985270  0.75981641  0.99428929  1  0.414458  0  0.142266  0.269759  0  4.023891  0
C  C75  1  0.69014535  0.74018125  0.99428989  1  0.458087  0  0.142304  0.269774  0  4.023834  0
C  C76  1  0.74018494  0.69014408  0.49429191  1  0.458114  0  0.142229  0.269677  0  4.023685  0
C  C77  1  0.75981593  0.80985444  0.49429189  1  0.414661  0  0.142253  0.26975  0  4.023565  0
C  C78  1  0.19014833  0.24018566  0.00570839  1  0.414483  0  0.142233  0.269749  0  4.023946  0
C  C79  1  0.30985237  0.25981717  0.00570853  1  0.458011  0  0.142295  0.269782  0  4.02385  0
S  S80  1  0.20770541  0.54212905  0.33853827  1  -0.096134  0  -0.178085  -0.286636  0  2.719465  0
S  S81  1  0.29229348  0.95787096  0.33853894  1  -0.096114  0  -0.178119  -0.28668  0  2.7195  0
S  S82  1  0.04213101  0.70771393  0.16145883  1  -0.096044  0  -0.178119  -0.286703  0  2.719405  0
S  S83  1  0.45786990  0.79228557  0.16146079  1  -0.096036  0  -0.178137  -0.286699  0  2.719413  0
S  S84  1  0.79229148  0.45787278  0.66146312  1  -0.096097  0  -0.178108  -0.28663  0  2.719616  0
S  S85  1  0.70770921  0.04212804  0.66146245  1  -0.096085  0  -0.178102  -0.286623  0  2.719576  0
S  S86  1  0.95787003  0.29228662  0.83853884  1  -0.096039  0  -0.178153  -0.286708  0  2.71944  0
S  S87  1  0.54213196  0.20771459  0.83853688  1  -0.095952  0  -0.178155  -0.286694  0  2.719461  0
S  S88  1  0.10221403  0.59002093  0.59177710  1  -0.084206  0  -0.171588  -0.274473  0  2.732219  0
S  S89  1  0.39778304  0.90997660  0.59177881  1  -0.084387  0  -0.171564  -0.274472  0  2.732256  0
S  S90  1  0.09002444  0.60221379  0.90821681  1  -0.08416  0  -0.171547  -0.274381  0  2.732321  0
S  S91  1  0.40997098  0.89778201  0.90822080  1  -0.084679  0  -0.171527  -0.274422  0  2.732148  0
S  S92  1  0.89778783  0.40997697  0.40822355  1  -0.083994  0  -0.171558  -0.274402  0  2.732178  0
S  S93  1  0.60221633  0.09002628  0.40822332  1  -0.084482  0  -0.171573  -0.274475  0  2.732202  0
S  S94  1  0.90997743  0.39779012  0.09178606  1  -0.084131  0  -0.171486  -0.274325  0  2.73219  0
S  S95  1  0.59002258  0.10221165  0.09178579  1  -0.084243  0  -0.171502  -0.274375  0  2.732255  0
S  S96  1  0.15441029  0.34178253  0.53755405  1  -0.094125  0  -0.174667  -0.284681  0  2.671885  0
S  S97  1  0.34559181  0.15821591  0.53754991  1  -0.094079  0  -0.174654  -0.284687  0  2.671893  0
S  S98  1  0.84177306  0.65441420  0.96244094  1  -0.093973  0  -0.174624  -0.284655  0  2.671822  0
S  S99  1  0.65822242  0.84558241  0.96244137  1  -0.09391  0  -0.174663  -0.28471  0  2.671814  0
S  S100  1  0.84558825  0.65821548  0.46244659  1  -0.094032  0  -0.174668  -0.284671  0  2.671947  0
S  S101  1  0.65441088  0.84178233  0.46244702  1  -0.094036  0  -0.174672  -0.284694  0  2.671891  0
S  S102  1  0.15822466  0.34558572  0.03755525  1  -0.093937  0  -0.174605  -0.28463  0  2.671874  0
S  S103  1  0.34177530  0.15441601  0.03755482  1  -0.093894  0  -0.174637  -0.284685  0  2.671837  0
N  N104  1  0.38633711  0.73177022  0.36745771  1  -1.242276  0  -0.543141  -0.501859  0  3.431781  0
N  N105  1  0.11366186  0.76822980  0.36745661  1  -1.242234  0  -0.543175  -0.501908  0  3.431871  0
N  N106  1  0.23176435  0.88634167  0.13253375  1  -1.24237  0  -0.543138  -0.502017  0  3.431909  0
N  N107  1  0.26823649  0.61365858  0.13253391  1  -1.242337  0  -0.543133  -0.501963  0  3.431984  0
N  N108  1  0.61366144  0.26823532  0.63254220  1  -1.242183  0  -0.543084  -0.501813  0  3.43183  0
N  N109  1  0.88634000  0.23176584  0.63254181  1  -1.242235  0  -0.543098  -0.501847  0  3.43194  0
N  N110  1  0.76823503  0.11365820  0.86746541  1  -1.242348  0  -0.543142  -0.501954  0  3.432048  0
N  N111  1  0.73176704  0.38634377  0.86746748  1  -1.242409  0  -0.543164  -0.502029  0  3.43201  0
N  N112  1  0.20908115  0.55063039  0.74409539  1  -1.242231  0  -0.53927  -0.490006  0  3.425897  0
N  N113  1  0.29091881  0.94937047  0.74409681  1  -1.242277  0  -0.539207  -0.489998  0  3.425867  0
N  N114  1  0.05062921  0.70908080  0.75590080  1  -1.241944  0  -0.539227  -0.489925  0  3.425699  0
N  N115  1  0.44936913  0.79091636  0.75590052  1  -1.242367  0  -0.539241  -0.489962  0  3.425845  0
N  N116  1  0.79091988  0.44936941  0.25590600  1  -1.241967  0  -0.539349  -0.490068  0  3.425723  0
N  N117  1  0.70908139  0.05063426  0.25590532  1  -1.242388  0  -0.539391  -0.490065  0  3.425871  0
N  N118  1  0.94937349  0.29092045  0.24409910  1  -1.241846  0  -0.539232  -0.489953  0  3.42574  0
N  N119  1  0.55062610  0.20908101  0.24409938  1  -1.241859  0  -0.539217  -0.489957  0  3.425818  0
N  N120  1  0.36062319  0.38327310  0.48154418  1  -1.272423  0  -0.53658  -0.486765  0  3.404912  0
N  N121  1  0.13937711  0.11672689  0.48154550  1  -1.27241  0  -0.536566  -0.486705  0  3.404903  0
N  N122  1  0.88326930  0.86061979  0.01844969  1  -1.272303  0  -0.536684  -0.486838  0  3.405233  0
N  N123  1  0.61673031  0.63937936  0.01845020  1  -1.272374  0  -0.536664  -0.486823  0  3.405254  0
N  N124  1  0.63937784  0.61672671  0.51845647  1  -1.272346  0  -0.53658  -0.486716  0  3.40499  0
N  N125  1  0.86062309  0.88327332  0.51845811  1  -1.272372  0  -0.536573  -0.486786  0  3.404956  0
N  N126  1  0.11673007  0.13938008  0.98154575  1  -1.272358  0  -0.536694  -0.486851  0  3.405192  0
N  N127  1  0.38327072  0.36062120  0.98154599  1  -1.272399  0  -0.536683  -0.486861  0  3.405221  0
Cl  Cl128  1  0.39511602  0.61646707  0.57145098  1  -0.701117  0  -0.290558  -0.523489  0  1.267028  0
Cl  Cl129  1  0.10488266  0.88353340  0.57145051  1  -0.701038  0  -0.290557  -0.523483  0  1.267059  0
Cl  Cl130  1  0.11646360  0.89511894  0.92854616  1  -0.701069  0  -0.290547  -0.523476  0  1.267073  0
Cl  Cl131  1  0.38353602  0.60488012  0.92854438  1  -0.701015  0  -0.290532  -0.523457  0  1.267065  0
Cl  Cl132  1  0.60488418  0.38353465  0.42855040  1  -0.701122  0  -0.290541  -0.523456  0  1.266985  0
Cl  Cl133  1  0.89511506  0.11646576  0.42855013  1  -0.701147  0  -0.290555  -0.523478  0  1.266985  0
Cl  Cl134  1  0.88353578  0.10488318  0.07145523  1  -0.701086  0  -0.290561  -0.523464  0  1.267004  0
Cl  Cl135  1  0.61646252  0.39511713  0.07145478  1  -0.701064  0  -0.290555  -0.523471  0  1.266982  0
