# generated using pymatgen
data_Zn8H32C49O44
_symmetry_space_group_name_H-M   'P 1'
_cell_length_a   18.51823302
_cell_length_b   18.68837543
_cell_length_c   18.28980675
_cell_angle_alpha   90.92128782
_cell_angle_beta   121.06611344
_cell_angle_gamma   117.83345315
_symmetry_Int_Tables_number   1
_chemical_formula_structural   Zn8H32C49O44
_chemical_formula_sum   'Zn8 H32 C49 O44'
_cell_volume   4510.12624528
_cell_formula_units_Z   1
loop_
 _symmetry_equiv_pos_site_id
 _symmetry_equiv_pos_as_xyz
  1  'x, y, z'
loop_
 _atom_site_type_symbol
 _atom_site_label
 _atom_site_symmetry_multiplicity
 _atom_site_fract_x
 _atom_site_fract_y
 _atom_site_fract_z
 _atom_site_occupancy
 _atom_site_pbe_bader_charge
 _atom_site_pbe_bader_spin_density
 _atom_site_pbe_cm5_charge
 _atom_site_pbe_ddec_charge
 _atom_site_pbe_ddec_spin_density
 _atom_site_pbe_ddec_sum_bond_order
 _atom_site_pbe_magmom
Zn  Zn0  1  0.91870640  0.45950325  0.05124664  1  1.3182  0  0.67795  0.962823  0  2.35926  0
Zn  Zn1  1  0.91775626  0.47105770  0.87493080  1  1.303193  0  0.675156  0.966052  0  2.373031  0
Zn  Zn2  1  0.08617368  0.45879240  0.04499376  1  1.314327  0  0.677265  0.959005  0  2.376464  0
Zn  Zn3  1  0.08693273  0.63333035  0.05698912  1  1.321245  0  0.686073  0.981109  0  2.322636  0
Zn  Zn4  1  0.08240435  0.03312573  0.45312068  1  1.303343  0  0.673971  0.965831  0  2.359607  0
Zn  Zn5  1  0.91020595  0.04179295  0.44505643  1  1.3219  0  0.686315  0.985027  0  2.326694  0
Zn  Zn6  1  0.09147346  0.04612525  0.63059604  1  1.315897  0  0.672802  0.964308  0  2.369816  0
Zn  Zn7  1  0.91080081  0.87410771  0.46078006  1  1.311843  0  0.674684  0.959901  0  2.375649  0
H  H8  1  0.14042912  0.80387223  0.26344024  1  0.036452  0  0.0962  0.104182  0  0.996789  0
H  H9  1  0.93544527  0.30201538  0.71988590  1  0.085629  0  0.12025  0.142731  0  0.97273  0
H  H10  1  0.60032228  0.28294829  0.89757057  1  0.14335  0  0.116674  0.147161  0  0.9973  0
H  H11  1  0.04404014  0.86976542  0.24036264  1  0.038182  0  0.099601  0.019603  0  1.022944  0
H  H12  1  0.85494387  0.58062927  0.18265188  1  0.090114  0  0.10851  0.137576  0  0.960035  0
H  H13  1  0.97079308  0.61461267  0.28903315  1  0.06372  0  0.111792  0.142899  0  0.945542  0
H  H14  1  0.80543440  0.71461652  0.23694121  1  0.614429  0  0.312918  0.358104  0  0.912088  0
H  H15  1  0.93010600  0.89281421  0.21411636  1  0.589778  0  0.319769  0.354238  0  0.900012  0
H  H16  1  0.86758535  0.15225617  0.13721445  1  0.069514  0  0.10309  0.038668  0  0.979808  0
H  H17  1  0.16006177  0.25645509  0.22641538  1  0.614295  0  0.349555  0.37217  0  0.857424  0
H  H18  1  0.54983893  0.61988518  0.25351856  1  0.653057  0  0.310218  0.345958  0  0.971582  0
H  H19  1  0.85668115  0.69262969  0.11053193  1  0.126133  0  0.122133  0.135838  0  0.946253  0
H  H20  1  0.63052289  0.92327792  0.22308125  1  0.120005  0  0.10669  0.059625  0  0.972927  0
H  H21  1  0.32681812  0.55049359  0.07198892  1  0.123584  0  0.117835  0.069846  0  0.9711  0
H  H22  1  0.36831090  0.77319214  0.22731397  1  0.629317  0  0.343106  0.378065  0  0.86885  0
H  H23  1  0.02141751  0.58317289  0.75559619  1  0.076062  0  0.107544  0.046177  0  0.958991  0
H  H24  1  0.95742756  0.79652041  0.79709328  1  0.082936  0  0.106099  0.042708  0  0.965787  0
H  H25  1  0.85545935  0.15075113  0.70635137  1  0.048826  0  0.098506  0.031375  0  0.984282  0
H  H26  1  0.46979967  0.28405132  0.87876534  1  0.600342  0  0.346011  0.370174  0  0.860324  0
H  H27  1  0.19064152  0.81699132  0.48312073  1  0.607628  0  0.301188  0.331905  0  0.965899  0
H  H28  1  0.50218857  0.17853713  0.68881225  1  0.064432  0  0.090671  0.021469  0  0.993013  0
H  H29  1  0.64072158  0.37744983  0.72104970  1  0.624307  0  0.336318  0.374166  0  0.881939  0
H  H30  1  0.13465664  0.22980584  0.33471419  1  0.098267  0  0.12231  0.134326  0  0.966345  0
H  H31  1  0.18941998  0.93763331  0.35591804  1  0.059311  0  0.113021  0.060868  0  0.962326  0
H  H32  1  0.03321005  0.83302990  0.11231164  1  0.050092  0  0.099534  0.027629  0  0.949576  0
H  H33  1  0.90876785  0.70371087  0.38597953  1  0.602418  0  0.308094  0.352919  0  0.933024  0
H  H34  1  0.97016800  0.30393148  0.22733484  1  0.110995  0  0.116469  0.15479  0  0.989804  0
H  H35  1  0.14017690  0.72691400  0.31857087  1  0.071712  0  0.107813  0.131198  0  0.959266  0
H  H36  1  0.92811047  0.69945348  0.60773908  1  0.134971  0  0.125065  0.139377  0  0.966571  0
H  H37  1  0.09520750  0.86182918  0.77996450  1  0.099887  0  0.118751  0.138017  0  0.979604  0
H  H38  1  0.12131174  0.24173488  0.78787106  1  0.130358  0  0.121049  0.124186  0  0.964404  0
H  H39  1  0.10544912  0.30610171  0.89450104  1  0.1179  0  0.119716  0.121994  0  0.962394  0
C  C40  1  0.01122157  0.65048519  0.87793592  1  1.583473  0  0.233172  0.615634  0  4.173364  0
C  C41  1  0.01591958  0.31523311  0.20314296  1  0.024724  0  -0.116464  -0.391186  0  3.857985  0
C  C42  1  0.56005470  0.72559095  0.25100955  1  0.595031  0  0.135892  0.3773  0  3.922634  0
C  C43  1  0.01472837  0.37087721  0.14782451  1  1.538717  0  0.215436  0.667052  0  4.177259  0
C  C44  1  0.61698331  0.81332887  0.26632872  1  0.009527  0  -0.06029  -0.305055  0  3.898052  0
C  C45  1  0.44771778  0.67001467  0.19120875  1  0.103979  0  -0.029738  -0.201392  0  3.959783  0
C  C46  1  0.38838658  0.69417109  0.19198983  1  0.547102  0  0.121384  0.200404  0  3.972005  0
C  C47  1  0.98067388  0.73587072  0.68048169  1  -0.053163  0  -0.059289  -0.0558  0  3.947737  0
C  C48  1  0.03531890  0.82255131  0.70856678  1  0.010865  0  -0.07506  -0.211083  0  3.87284  0
C  C49  1  0.98901490  0.68539161  0.74020847  1  -0.025076  0  0.01718  0.043312  0  3.915181  0
C  C50  1  0.00705449  0.70823141  0.82224864  1  -0.032636  0  0.004653  -0.120423  0  3.808825  0
C  C51  1  0.92893804  0.63681453  0.23832394  1  -0.018394  0  -0.161813  -0.305118  0  3.808524  0
C  C52  1  0.04761277  0.22981545  0.76375724  1  -0.076803  0  -0.047018  -0.044202  0  3.907261  0
C  C53  1  0.96537750  0.16468277  0.68366395  1  0.006506  0  -0.008333  -0.105116  0  3.874087  0
C  C54  1  0.04838573  0.28451987  0.82127028  1  -0.104471  0  -0.058507  -0.013545  0  3.97689  0
C  C55  1  0.73095295  0.37930984  0.86535597  1  1.590844  0  0.227795  0.55014  0  4.194025  0
C  C56  1  0.98867359  0.31509855  0.79178996  1  0.048593  0  -0.081826  -0.23104  0  3.879022  0
C  C57  1  0.44891260  0.23046289  0.77384851  1  0.505746  0  0.114365  0.369758  0  4.014777  0
C  C58  1  0.38270466  0.17891290  0.68400448  1  0.035293  0  -0.047655  -0.276303  0  3.877545  0
C  C59  1  0.55909810  0.28056849  0.82722888  1  0.00726  0  -0.114236  -0.346364  0  4.00422  0
C  C60  1  0.61734740  0.33050491  0.80187347  1  0.482379  0  0.086941  0.189049  0  4.082546  0
C  C61  1  0.72657992  0.86846658  0.34056694  1  1.535177  0  0.218036  0.627845  0  4.170477  0
C  C62  1  0.98937440  0.69005176  0.20375970  1  0.042898  0  -0.00287  0.0447  0  3.765055  0
C  C63  1  0.27134570  0.13443463  0.63269142  1  1.592784  0  0.226457  0.648936  0  4.142249  0
C  C64  1  0.98903214  0.11426890  0.34116737  1  1.619726  0  0.231292  0.623539  0  4.164284  0
C  C65  1  0.01942918  0.87130942  0.64510106  1  1.582041  0  0.221915  0.641046  0  4.178505  0
C  C66  1  0.98369590  0.12359214  0.62934909  1  1.610644  0  0.233568  0.623206  0  4.166052  0
C  C67  1  0.27470427  0.63562821  0.14129109  1  1.614892  0  0.233847  0.545825  0  4.184694  0
C  C68  1  0.99620066  0.85069304  0.36771401  1  1.563579  0  0.23285  0.62251  0  4.122637  0
C  C69  1  0.99414013  0.37085679  0.85521403  1  1.540951  0  0.220994  0.642396  0  4.183771  0
C  C70  1  0.99146724  0.63460641  0.14376603  1  1.549636  0  0.239901  0.610907  0  4.081503  0
C  C71  1  0.09962332  0.75776058  0.28601885  1  -0.045603  0  -0.158913  -0.286317  0  3.833455  0
C  C72  1  0.10111553  0.80331047  0.35956293  1  0.516006  0  0.067601  0.247842  0  3.82187  0
C  C73  1  0.99450097  0.78938334  0.31043656  1  0.004657  0  -0.023765  -0.256675  0  3.710388  0
C  C74  1  0.93922172  0.73781991  0.15048804  1  -0.040625  0  -0.087776  -0.180348  0  3.787611  0
C  C75  1  0.87300079  0.12840002  0.19409274  1  0.947519  0  0.095582  0.270208  0  3.98042  0
C  C76  1  0.57448464  0.85387680  0.20324721  1  0.923313  0  0.075909  0.29961  0  4.005122  0
C  C77  1  0.40163584  0.58191603  0.13802575  1  0.871654  0  0.101777  0.29155  0  3.937341  0
C  C78  1  0.97335439  0.60222587  0.70462681  1  0.980765  0  0.110176  0.282775  0  3.932396  0
C  C79  1  0.00917427  0.78387656  0.85379559  1  0.961568  0  0.099061  0.281735  0  3.981229  0
C  C80  1  0.85995738  0.12765363  0.65316538  1  0.967156  0  0.091966  0.275087  0  3.996813  0
C  C81  1  0.42372904  0.16240607  0.63949511  1  0.94525  0  0.079866  0.302923  0  4.032475  0
C  C82  1  0.19015283  0.89807103  0.40054906  1  0.969785  0  0.102096  0.232579  0  3.884558  0
C  C83  1  0.96325084  0.76751088  0.08458141  1  0.963162  0  0.106667  0.328852  0  3.906627  0
C  C84  1  0.97234973  0.81271125  0.22200002  1  0.475521  0  0.005044  0.196573  0  3.848268  0
C  C85  1  0.91174391  0.69161364  0.28267557  1  0.986514  0  0.148908  0.512087  0  3.82614  0
C  C86  1  0.06239329  0.22087627  0.28179811  1  -0.000557  0  -0.064298  -0.188826  0  3.922144  0
C  C87  1  0.97783073  0.15938866  0.27240286  1  -0.031849  0  -0.003038  -0.064413  0  3.890877  0
C  C88  1  0.06848211  0.27712645  0.22759539  1  0.458158  0  0.101662  0.358922  0  4.077849  0
O  O89  1  0.00342561  0.50698231  0.00756962  1  -1.217411  0  -0.571084  -1.033632  0  2.529886  0
O  O90  1  0.07320017  0.95277106  0.68279929  1  -1.165242  0  -0.312195  -0.537701  0  2.288576  0
O  O91  1  0.92811649  0.10754497  0.54441740  1  -1.154181  0  -0.298662  -0.520001  0  2.335332  0
O  O92  1  0.07911119  0.68510479  0.96292982  1  -1.147917  0  -0.296346  -0.514945  0  2.338845  0
O  O93  1  0.92661706  0.81969747  0.37911050  1  -1.191948  0  -0.297886  -0.547387  0  2.370085  0
O  O94  1  0.05421305  0.11083049  0.67407140  1  -1.175351  0  -0.313037  -0.549006  0  2.322848  0
O  O95  1  0.06624440  0.93003218  0.39716269  1  -1.167394  0  -0.298676  -0.532939  0  2.354673  0
O  O96  1  0.03158594  0.07434700  0.34949316  1  -1.17164  0  -0.317263  -0.552998  0  2.284761  0
O  O97  1  0.95356061  0.82875553  0.56012334  1  -1.176262  0  -0.313354  -0.54052  0  2.304718  0
O  O98  1  0.77207445  0.94857443  0.34889180  1  -1.17045  0  -0.318338  -0.5605  0  2.35014  0
O  O99  1  0.23307088  0.10708300  0.67577464  1  -1.160419  0  -0.316254  -0.544823  0  2.341725  0
O  O100  1  0.77347064  0.38093833  0.94672148  1  -1.170934  0  -0.299683  -0.507179  0  2.331065  0
O  O101  1  0.95277544  0.39340523  0.12833750  1  -1.165926  0  -0.325115  -0.556911  0  2.288204  0
O  O102  1  0.77385941  0.41517067  0.82754915  1  -1.16947  0  -0.307564  -0.53997  0  2.343744  0
O  O103  1  0.23074509  0.55541666  0.10772481  1  -1.168045  0  -0.289124  -0.505444  0  2.381619  0
O  O104  1  0.93235038  0.39446479  0.81794920  1  -1.152853  0  -0.317119  -0.546247  0  2.292357  0
O  O105  1  0.05903003  0.67565956  0.13050586  1  -1.167261  0  -0.310417  -0.544114  0  2.365858  0
O  O106  1  0.05815797  0.39060145  0.94026829  1  -1.178488  0  -0.316417  -0.552628  0  2.329008  0
O  O107  1  0.92870312  0.55367406  0.11344659  1  -1.158114  0  -0.301603  -0.5252  0  2.348816  0
O  O108  1  0.81331768  0.67294127  0.21453574  1  -1.114694  0  -0.404506  -0.552439  0  2.173252  0
O  O109  1  0.89707872  0.83222150  0.18340451  1  -1.096347  0  -0.398875  -0.48944  0  2.178622  0
O  O110  1  0.79723932  0.07676614  0.18852865  1  -1.044275  0  -0.248003  -0.321655  0  2.085142  0
O  O111  1  0.23398123  0.67566170  0.13970948  1  -1.168791  0  -0.30099  -0.531042  0  2.323862  0
O  O112  1  0.13330324  0.29208595  0.20628023  1  -1.090589  0  -0.322751  -0.400674  0  2.253386  0
O  O113  1  0.60392494  0.68381433  0.28851151  1  -1.125021  0  -0.310263  -0.384791  0  2.296015  0
O  O114  1  0.48800720  0.81726798  0.13232676  1  -1.109462  0  -0.305105  -0.413035  0  2.126906  0
O  O115  1  0.44563398  0.54387759  0.16307900  1  -1.071849  0  -0.258453  -0.356433  0  2.137657  0
O  O116  1  0.42696702  0.77193704  0.24166101  1  -1.094207  0  -0.293896  -0.343793  0  2.336887  0
O  O117  1  0.91327902  0.55924966  0.62418795  1  -1.055286  0  -0.243948  -0.320506  0  2.076299  0
O  O118  1  0.05844010  0.82710232  0.93287115  1  -1.048485  0  -0.252541  -0.326922  0  2.102223  0
O  O119  1  0.78317466  0.07254827  0.58011467  1  -1.053507  0  -0.260335  -0.333834  0  2.086269  0
O  O120  1  0.41294414  0.23875535  0.81986546  1  -1.083561  0  -0.320527  -0.398568  0  2.260338  0
O  O121  1  0.12175558  0.76978489  0.43129322  1  -1.118777  0  -0.397709  -0.499168  0  2.219353  0
O  O122  1  0.94285533  0.57032387  0.83310922  1  -1.152932  0  -0.305819  -0.547451  0  2.357626  0
O  O123  1  0.37915961  0.13084831  0.55800663  1  -1.07261  0  -0.279487  -0.362517  0  2.120287  0
O  O124  1  0.58078625  0.34021104  0.72002079  1  -1.113597  0  -0.325093  -0.387787  0  2.306777  0
O  O125  1  0.26394885  0.92581544  0.47918373  1  -1.082182  0  -0.24467  -0.317512  0  2.167786  0
O  O126  1  0.90998069  0.72364389  0.00507588  1  -1.081357  0  -0.268189  -0.359839  0  2.097144  0
O  O127  1  0.91583499  0.66628993  0.35596422  1  -1.104023  0  -0.40474  -0.534785  0  2.188478  0
O  O128  1  0.07289060  0.39253735  0.12273719  1  -1.1572  0  -0.31953  -0.544522  0  2.331613  0
O  O129  1  0.99921592  0.99904014  0.49743564  1  -1.218479  0  -0.574074  -1.035753  0  2.539745  0
O  O130  1  0.76989803  0.83522595  0.39321756  1  -1.170238  0  -0.326569  -0.550589  0  2.36681  0
O  O131  1  0.22172931  0.12481380  0.54825035  1  -1.162085  0  -0.318176  -0.548544  0  2.345639  0
O  O132  1  0.95589541  0.12135303  0.38459026  1  -1.153308  0  -0.297437  -0.521353  0  2.297277  0
