# generated using pymatgen
data_Cu2H5C4IN3
_symmetry_space_group_name_H-M   'P 1'
_cell_length_a   8.51119001
_cell_length_b   12.70834487
_cell_length_c   12.70836415
_cell_angle_alpha   89.99985135
_cell_angle_beta   90.00023951
_cell_angle_gamma   90.00010837
_symmetry_Int_Tables_number   1
_chemical_formula_structural   Cu2H5C4IN3
_chemical_formula_sum   'Cu16 H40 C32 I8 N24'
_cell_volume   1374.57654345
_cell_formula_units_Z   8
loop_
 _symmetry_equiv_pos_site_id
 _symmetry_equiv_pos_as_xyz
  1  'x, y, z'
loop_
 _atom_site_type_symbol
 _atom_site_label
 _atom_site_symmetry_multiplicity
 _atom_site_fract_x
 _atom_site_fract_y
 _atom_site_fract_z
 _atom_site_occupancy
 _atom_site_hle17_bader_spin_density
 _atom_site_hle17_ddec_charge
 _atom_site_hle17_ddec_spin_density
 _atom_site_hle17_ddec_sum_bond_order
 _atom_site_hle17_magmom
 _atom_site_hse06_10hf_bader_spin_density
 _atom_site_hse06_10hf_ddec_charge
 _atom_site_hse06_10hf_ddec_spin_density
 _atom_site_hse06_10hf_ddec_sum_bond_order
 _atom_site_hse06_10hf_magmom
 _atom_site_hse06_bader_spin_density
 _atom_site_hse06_ddec_charge
 _atom_site_hse06_ddec_spin_density
 _atom_site_hse06_ddec_sum_bond_order
 _atom_site_hse06_magmom
 _atom_site_pbe_bader_spin_density
 _atom_site_pbe_cm5_charge
 _atom_site_pbe_ddec_charge
 _atom_site_pbe_ddec_spin_density
 _atom_site_pbe_ddec_sum_bond_order
 _atom_site_pbe_magmom
Cu  Cu0  1  0.36217844  0.66754953  0.80769368  1  0  0.202105  0  2.265303  0  0  0.135002  0  2.723979  0  0  0.14755  0  2.662844  0  0  0.250386  0.127913  0  2.765118  0
Cu  Cu1  1  0.36217596  0.83244999  0.69230490  1  0  0.202183  0  2.265304  0  0  0.135039  0  2.723969  0  0  0.147597  0  2.662836  0  0  0.250399  0.127956  0  2.76511  0
Cu  Cu2  1  0.86217870  0.19230389  0.16755124  1  0  0.202154  0  2.265303  0  0  0.13503  0  2.72398  0  0  0.14759  0  2.662849  0  0  0.250441  0.127979  0  2.765089  0
Cu  Cu3  1  0.86218056  0.30769321  0.33244957  1  0  0.202115  0  2.265238  0  0  0.13498  0  2.723911  0  0  0.147537  0  2.662783  0  0  0.250406  0.127932  0  2.765026  0
Cu  Cu4  1  0.63782140  0.33244864  0.19230295  1  0  0.202179  0  2.265239  0  0  0.135018  0  2.723897  0  0  0.147603  0  2.662778  0  0  0.250456  0.127993  0  2.765033  0
Cu  Cu5  1  0.63782505  0.16754739  0.30769331  1  0  0.202182  0  2.265256  0  0  0.135063  0  2.723934  0  0  0.14762  0  2.662801  0  0  0.250458  0.128011  0  2.765061  0
Cu  Cu6  1  0.13782583  0.80769506  0.83245090  1  0  0.202251  0  2.265258  0  0  0.13514  0  2.723919  0  0  0.147705  0  2.662792  0  0  0.250428  0.128062  0  2.765045  0
Cu  Cu7  1  0.13782163  0.69230653  0.66755177  1  0  0.202236  0  2.265294  0  0  0.135077  0  2.723965  0  0  0.147655  0  2.662841  0  0  0.250428  0.128028  0  2.765096  0
Cu  Cu8  1  0.34300758  0.44609366  0.65132763  1  0  0.42463  0  1.69622  0  0  0.307493  0  2.127571  0  0  0.322255  0  2.08174  0  0  0.44449  0.298821  0  2.158484  0
Cu  Cu9  1  0.34300647  0.05390621  0.84867534  1  0  0.424665  0  1.696207  0  0  0.307541  0  2.127504  0  0  0.322282  0  2.081722  0  0  0.444488  0.29884  0  2.15844  0
Cu  Cu10  1  0.84300777  0.34867414  0.94609732  1  0  0.42467  0  1.696153  0  0  0.307556  0  2.127488  0  0  0.322298  0  2.081677  0  0  0.444487  0.298868  0  2.158395  0
Cu  Cu11  1  0.84300392  0.15132637  0.55390548  1  0  0.424656  0  1.69616  0  0  0.307569  0  2.127469  0  0  0.322282  0  2.081675  0  0  0.444491  0.298855  0  2.158419  0
Cu  Cu12  1  0.65698991  0.55390608  0.34867529  1  0  0.424609  0  1.696154  0  0  0.307484  0  2.127491  0  0  0.322231  0  2.081668  0  0  0.444455  0.29878  0  2.158409  0
Cu  Cu13  1  0.65699454  0.94609589  0.15132444  1  0  0.424623  0  1.696219  0  0  0.307566  0  2.127504  0  0  0.322262  0  2.081728  0  0  0.444454  0.298812  0  2.15846  0
Cu  Cu14  1  0.15699911  0.65132718  0.05390324  1  0  0.424673  0  1.696194  0  0  0.307586  0  2.127494  0  0  0.322318  0  2.081688  0  0  0.444512  0.2989  0  2.158423  0
Cu  Cu15  1  0.15699356  0.84867101  0.44609115  1  0  0.424581  0  1.6962  0  0  0.307461  0  2.127552  0  0  0.322215  0  2.081714  0  0  0.444498  0.298793  0  2.15845  0
H  H16  1  0.61725963  0.66948993  0.97728707  1  0  0.128461  0  0.977642  0  0  0.147412  0  1.04182  0  0  0.148802  0  1.041895  0  0  0.079877  0.146367  0  1.041802  0
H  H17  1  0.61725139  0.83050991  0.52271301  1  0  0.128463  0  0.977644  0  0  0.147404  0  1.041844  0  0  0.148794  0  1.041913  0  0  0.079884  0.146359  0  1.041831  0
H  H18  1  0.11725679  0.02271328  0.16949244  1  0  0.12844  0  0.977673  0  0  0.147397  0  1.041866  0  0  0.148787  0  1.041942  0  0  0.079887  0.146345  0  1.041853  0
H  H19  1  0.11725675  0.47728525  0.33051101  1  0  0.128441  0  0.977617  0  0  0.14738  0  1.041819  0  0  0.148771  0  1.04189  0  0  0.079861  0.146332  0  1.04181  0
H  H20  1  0.38274490  0.33051060  0.02270956  1  0  0.128475  0  0.977703  0  0  0.147413  0  1.041885  0  0  0.148804  0  1.041954  0  0  0.079885  0.146362  0  1.041877  0
H  H21  1  0.38273904  0.16948904  0.47728204  1  0  0.128364  0  0.977494  0  0  0.147303  0  1.041737  0  0  0.148695  0  1.041806  0  0  0.079834  0.146255  0  1.041722  0
H  H22  1  0.88274422  0.97728725  0.83050812  1  0  0.128471  0  0.977653  0  0  0.147419  0  1.041845  0  0  0.148808  0  1.041922  0  0  0.079894  0.146371  0  1.04183  0
H  H23  1  0.88273720  0.52271528  0.66949270  1  0  0.128457  0  0.977679  0  0  0.147419  0  1.041861  0  0  0.148811  0  1.041932  0  0  0.079887  0.146373  0  1.041844  0
H  H24  1  0.80785802  0.61116932  0.96988520  1  0  0.123949  0  0.982874  0  0  0.141624  0  1.04917  0  0  0.14315  0  1.049299  0  0  0.082095  0.140432  0  1.049245  0
H  H25  1  0.80785352  0.88883154  0.53011620  1  0  0.124029  0  0.982833  0  0  0.141702  0  1.049115  0  0  0.143228  0  1.049238  0  0  0.08211  0.140508  0  1.049196  0
H  H26  1  0.30785863  0.03011648  0.11117048  1  0  0.123973  0  0.982851  0  0  0.141661  0  1.049139  0  0  0.143188  0  1.049266  0  0  0.082106  0.140471  0  1.049213  0
H  H27  1  0.30785777  0.46988385  0.38883193  1  0  0.123969  0  0.982861  0  0  0.141644  0  1.049153  0  0  0.143169  0  1.049281  0  0  0.082108  0.140452  0  1.049233  0
H  H28  1  0.19214534  0.38883121  0.03011222  1  0  0.124038  0  0.98284  0  0  0.1417  0  1.049135  0  0  0.143226  0  1.04926  0  0  0.082127  0.140506  0  1.049217  0
H  H29  1  0.19214044  0.11116662  0.46987964  1  0  0.123921  0  0.982861  0  0  0.141606  0  1.049165  0  0  0.143131  0  1.049296  0  0  0.082066  0.140413  0  1.049241  0
H  H30  1  0.69214238  0.96988247  0.88883087  1  0  0.123975  0  0.982886  0  0  0.141656  0  1.049172  0  0  0.143183  0  1.049299  0  0  0.082097  0.140464  0  1.049245  0
H  H31  1  0.69213736  0.53011746  0.61117100  1  0  0.123938  0  0.982853  0  0  0.141626  0  1.049148  0  0  0.143152  0  1.049278  0  0  0.082088  0.140435  0  1.049223  0
H  H32  1  0.66544140  0.55649847  0.05533385  1  0  0.122106  0  0.986538  0  0  0.139506  0  1.052803  0  0  0.140226  0  1.054665  0  0  0.086973  0.138909  0  1.051615  0
H  H33  1  0.66543376  0.94350351  0.44466433  1  0  0.122106  0  0.986467  0  0  0.139489  0  1.052741  0  0  0.140196  0  1.054611  0  0  0.086969  0.138912  0  1.051539  0
H  H34  1  0.16543784  0.94466750  0.05649880  1  0  0.122117  0  0.986518  0  0  0.139491  0  1.052813  0  0  0.140199  0  1.054686  0  0  0.086965  0.138911  0  1.051614  0
H  H35  1  0.16543849  0.55533306  0.44350270  1  0  0.122103  0  0.98653  0  0  0.139475  0  1.052817  0  0  0.140182  0  1.054691  0  0  0.086963  0.138906  0  1.05161  0
H  H36  1  0.33456196  0.44350206  0.94466200  1  0  0.122093  0  0.986491  0  0  0.139495  0  1.052747  0  0  0.140202  0  1.054621  0  0  0.086969  0.138923  0  1.051545  0
H  H37  1  0.33455550  0.05649623  0.55533151  1  0  0.122111  0  0.986511  0  0  0.139462  0  1.052838  0  0  0.140175  0  1.054706  0  0  0.086964  0.13888  0  1.051642  0
H  H38  1  0.83456200  0.05533302  0.94350176  1  0  0.122147  0  0.986498  0  0  0.139514  0  1.052796  0  0  0.140222  0  1.054668  0  0  0.086963  0.138926  0  1.051598  0
H  H39  1  0.83455899  0.44466904  0.55650101  1  0  0.122177  0  0.986462  0  0  0.139532  0  1.052784  0  0  0.14024  0  1.054657  0  0  0.086979  0.138936  0  1.051592  0
H  H40  1  0.54898446  0.29935712  0.65812049  1  0  0.08136  0  0.967696  0  0  0.093844  0  1.041924  0  0  0.097007  0  1.037995  0  0  0.084365  0.091434  0  1.044865  0
H  H41  1  0.54898020  0.20064301  0.84187676  1  0  0.081354  0  0.967728  0  0  0.093809  0  1.041959  0  0  0.096973  0  1.038032  0  0  0.084349  0.091401  0  1.044899  0
H  H42  1  0.04898555  0.34188065  0.79935742  1  0  0.081334  0  0.967705  0  0  0.093828  0  1.041934  0  0  0.096993  0  1.038006  0  0  0.084365  0.091425  0  1.044867  0
H  H43  1  0.04898146  0.15812042  0.70064630  1  0  0.081359  0  0.967732  0  0  0.093831  0  1.041954  0  0  0.096994  0  1.038025  0  0  0.084369  0.09143  0  1.044893  0
H  H44  1  0.45102007  0.70064104  0.34187693  1  0  0.081343  0  0.967704  0  0  0.093832  0  1.041932  0  0  0.096996  0  1.038004  0  0  0.084366  0.091428  0  1.044873  0
H  H45  1  0.45102198  0.79935437  0.15812065  1  0  0.0813  0  0.967707  0  0  0.093771  0  1.041955  0  0  0.096934  0  1.038028  0  0  0.084343  0.091371  0  1.044895  0
H  H46  1  0.95101898  0.65812302  0.20064550  1  0  0.081368  0  0.967701  0  0  0.093839  0  1.041922  0  0  0.096999  0  1.037996  0  0  0.084374  0.091428  0  1.044868  0
H  H47  1  0.95101955  0.84188168  0.29935899  1  0  0.081313  0  0.96771  0  0  0.093801  0  1.041925  0  0  0.096966  0  1.037996  0  0  0.084349  0.091385  0  1.044873  0
H  H48  1  0.75275628  0.31018319  0.67584767  1  0  0.091108  0  0.946517  0  0  0.105169  0  1.014276  0  0  0.107788  0  1.012018  0  0  0.092476  0.103137  0  1.016093  0
H  H49  1  0.75275069  0.18981484  0.82415723  1  0  0.091171  0  0.946494  0  0  0.105213  0  1.014244  0  0  0.107835  0  1.011982  0  0  0.092479  0.103172  0  1.016071  0
H  H50  1  0.25275730  0.32415619  0.81018210  1  0  0.091105  0  0.946438  0  0  0.105168  0  1.014238  0  0  0.107789  0  1.01198  0  0  0.092476  0.103128  0  1.016065  0
H  H51  1  0.25275084  0.17584435  0.68981668  1  0  0.091168  0  0.946457  0  0  0.105189  0  1.014253  0  0  0.107807  0  1.011998  0  0  0.09248  0.103168  0  1.016069  0
H  H52  1  0.24724826  0.68981734  0.32415526  1  0  0.091116  0  0.946511  0  0  0.10517  0  1.014289  0  0  0.107787  0  1.012036  0  0  0.09248  0.103141  0  1.01611  0
H  H53  1  0.24725149  0.81018096  0.17584097  1  0  0.09114  0  0.946417  0  0  0.105171  0  1.014223  0  0  0.107791  0  1.011965  0  0  0.092475  0.103147  0  1.01604  0
H  H54  1  0.74724841  0.67584670  0.18981453  1  0  0.091174  0  0.94645  0  0  0.105209  0  1.01423  0  0  0.107828  0  1.011971  0  0  0.092485  0.103172  0  1.016058  0
H  H55  1  0.74724429  0.82415618  0.31018309  1  0  0.091097  0  0.946468  0  0  0.105123  0  1.014272  0  0  0.107745  0  1.012012  0  0  0.092462  0.103104  0  1.016089  0
C  C56  1  0.62774889  0.52581358  0.89286098  1  0  0.420645  0  3.686367  0  0  0.408346  0  3.941994  0  0  0.423495  0  3.957976  0  0  0.214862  0.398098  0  3.931261  0
C  C57  1  0.62774393  0.97418705  0.60713598  1  0  0.420712  0  3.686487  0  0  0.408425  0  3.942047  0  0  0.423555  0  3.958045  0  0  0.214892  0.398177  0  3.931324  0
C  C58  1  0.12775323  0.10713988  0.02581690  1  0  0.420627  0  3.686445  0  0  0.408329  0  3.942067  0  0  0.423472  0  3.958059  0  0  0.214873  0.398076  0  3.931333  0
C  C59  1  0.12774680  0.39286258  0.47418816  1  0  0.420558  0  3.686441  0  0  0.408277  0  3.941983  0  0  0.42341  0  3.957994  0  0  0.214862  0.398037  0  3.93126  0
C  C60  1  0.37225330  0.47418537  0.10713643  1  0  0.420695  0  3.686431  0  0  0.408396  0  3.941991  0  0  0.423542  0  3.957976  0  0  0.214888  0.398156  0  3.931269  0
C  C61  1  0.37224886  0.02581269  0.39285986  1  0  0.420671  0  3.686448  0  0  0.408397  0  3.94201  0  0  0.42354  0  3.958004  0  0  0.214921  0.398147  0  3.931281  0
C  C62  1  0.87225248  0.89286379  0.97418524  1  0  0.420646  0  3.686373  0  0  0.408382  0  3.941944  0  0  0.423519  0  3.957941  0  0  0.214877  0.398137  0  3.931215  0
C  C63  1  0.87224833  0.60713716  0.52581555  1  0  0.420705  0  3.686413  0  0  0.408413  0  3.942014  0  0  0.423557  0  3.958007  0  0  0.214893  0.398157  0  3.931291  0
C  C64  1  0.61121836  0.39600845  0.78386913  1  0  0.352716  0  3.734382  0  0  0.340064  0  3.981184  0  0  0.353654  0  3.999784  0  0  0.208505  0.330933  0  3.968595  0
C  C65  1  0.61121539  0.10399490  0.71613223  1  0  0.352782  0  3.734369  0  0  0.340058  0  3.98122  0  0  0.35365  0  3.999815  0  0  0.208513  0.330933  0  3.96863  0
C  C66  1  0.11122022  0.21613406  0.89600977  1  0  0.352689  0  3.73444  0  0  0.340021  0  3.981292  0  0  0.353614  0  3.999889  0  0  0.208466  0.330894  0  3.96869  0
C  C67  1  0.11121470  0.28386788  0.60399491  1  0  0.352804  0  3.734312  0  0  0.340054  0  3.981222  0  0  0.353649  0  3.999817  0  0  0.20852  0.330931  0  3.968621  0
C  C68  1  0.38878382  0.60398893  0.21613065  1  0  0.352649  0  3.734597  0  0  0.339954  0  3.981449  0  0  0.353545  0  4.000046  0  0  0.208464  0.330826  0  3.968859  0
C  C69  1  0.38878327  0.89600169  0.28386440  1  0  0.352625  0  3.734294  0  0  0.339923  0  3.981212  0  0  0.353514  0  3.999807  0  0  0.208403  0.33079  0  3.968613  0
C  C70  1  0.88878784  0.78387041  0.10399473  1  0  0.35272  0  3.734351  0  0  0.339982  0  3.981236  0  0  0.353571  0  3.999832  0  0  0.208434  0.33085  0  3.968649  0
C  C71  1  0.88878161  0.71613265  0.39601352  1  0  0.352594  0  3.734746  0  0  0.339936  0  3.981543  0  0  0.353525  0  4.000144  0  0  0.208385  0.330786  0  3.968955  0
C  C72  1  0.68180750  0.59498065  0.97883663  1  0  -0.391837  0  3.687057  0  0  -0.467805  0  3.911688  0  0  -0.472914  0  3.9203  0  0  -0.252994  -0.464019  0  3.905825  0
C  C73  1  0.68179946  0.90502005  0.52116363  1  0  -0.391944  0  3.686993  0  0  -0.467886  0  3.911687  0  0  -0.473004  0  3.920374  0  0  -0.253007  -0.464094  0  3.905751  0
C  C74  1  0.18180569  0.02116561  0.09498177  1  0  -0.391865  0  3.687144  0  0  -0.467839  0  3.91185  0  0  -0.472938  0  3.920478  0  0  -0.252996  -0.464052  0  3.905979  0
C  C75  1  0.18180496  0.47883535  0.40502029  1  0  -0.391803  0  3.687035  0  0  -0.467756  0  3.911719  0  0  -0.47285  0  3.920348  0  0  -0.25295  -0.463962  0  3.905805  0
C  C76  1  0.31819821  0.40501987  0.02116079  1  0  -0.391951  0  3.687132  0  0  -0.467896  0  3.911765  0  0  -0.472999  0  3.920403  0  0  -0.252997  -0.464098  0  3.905842  0
C  C77  1  0.31819098  0.09497890  0.47883221  1  0  -0.391661  0  3.686849  0  0  -0.467616  0  3.911543  0  0  -0.472719  0  3.920166  0  0  -0.252883  -0.463829  0  3.905678  0
C  C78  1  0.81819532  0.97883491  0.90501801  1  0  -0.391912  0  3.687135  0  0  -0.467888  0  3.911848  0  0  -0.472984  0  3.920476  0  0  -0.252992  -0.464099  0  3.905958  0
C  C79  1  0.81819253  0.52116675  0.59498342  1  0  -0.391913  0  3.687158  0  0  -0.467875  0  3.91183  0  0  -0.472976  0  3.920457  0  0  -0.253005  -0.464086  0  3.905961  0
C  C80  1  0.64110221  0.30133297  0.71892466  1  0  -0.186505  0  3.733252  0  0  -0.226853  0  3.97457  0  0  -0.229322  0  3.983336  0  0  -0.161049  -0.224875  0  3.96844  0
C  C81  1  0.64110108  0.19866649  0.78107835  1  0  -0.186585  0  3.73346  0  0  -0.226794  0  3.974673  0  0  -0.229261  0  3.983435  0  0  -0.160991  -0.224798  0  3.968513  0
C  C82  1  0.14110303  0.28107735  0.80133350  1  0  -0.18646  0  3.733301  0  0  -0.2268  0  3.974599  0  0  -0.229271  0  3.983364  0  0  -0.16102  -0.224819  0  3.968484  0
C  C83  1  0.14110144  0.21892384  0.69866891  1  0  -0.186597  0  3.733418  0  0  -0.226858  0  3.974786  0  0  -0.229322  0  3.983547  0  0  -0.161024  -0.224871  0  3.9686  0
C  C84  1  0.35889762  0.69866677  0.28107511  1  0  -0.186493  0  3.733337  0  0  -0.22682  0  3.974699  0  0  -0.229287  0  3.983465  0  0  -0.161016  -0.224839  0  3.968539  0
C  C85  1  0.35890110  0.80133089  0.21892064  1  0  -0.186362  0  3.733229  0  0  -0.226645  0  3.974598  0  0  -0.22911  0  3.983357  0  0  -0.160942  -0.224657  0  3.968426  0
C  C86  1  0.85890033  0.71892396  0.19866785  1  0  -0.186618  0  3.733314  0  0  -0.226907  0  3.974657  0  0  -0.229369  0  3.983418  0  0  -0.16105  -0.224899  0  3.968467  0
C  C87  1  0.85889957  0.78107748  0.30133402  1  0  -0.18641  0  3.73324  0  0  -0.226707  0  3.974485  0  0  -0.229176  0  3.983245  0  0  -0.160977  -0.224729  0  3.968345  0
I  I88  1  0.41694679  0.66610829  0.57736120  1  0  -0.309529  0  1.781695  0  0  -0.269692  0  2.251803  0  0  -0.274939  0  2.19615  0  0  -0.117637  -0.267023  0  2.290589  0
I  I89  1  0.41694340  0.83388736  0.92264697  1  0  -0.309566  0  1.781758  0  0  -0.269738  0  2.251844  0  0  -0.274973  0  2.196187  0  0  -0.117628  -0.267053  0  2.290619  0
I  I90  1  0.91694457  0.42263998  0.16610709  1  0  -0.309546  0  1.781724  0  0  -0.269696  0  2.251827  0  0  -0.274942  0  2.196174  0  0  -0.117607  -0.266977  0  2.290587  0
I  I91  1  0.91694813  0.07735877  0.33389309  1  0  -0.309503  0  1.781709  0  0  -0.269687  0  2.25183  0  0  -0.274916  0  2.196169  0  0  -0.117601  -0.266948  0  2.290576  0
I  I92  1  0.58305422  0.33388988  0.42264014  1  0  -0.30954  0  1.781631  0  0  -0.269726  0  2.251773  0  0  -0.274971  0  2.196122  0  0  -0.117624  -0.267009  0  2.290538  0
I  I93  1  0.58305760  0.16610687  0.07735753  1  0  -0.309556  0  1.781753  0  0  -0.269729  0  2.251857  0  0  -0.27497  0  2.196207  0  0  -0.117645  -0.267021  0  2.290626  0
I  I94  1  0.08305409  0.57736055  0.83389112  1  0  -0.309551  0  1.781713  0  0  -0.269738  0  2.251855  0  0  -0.274987  0  2.196209  0  0  -0.117649  -0.267066  0  2.29064  0
I  I95  1  0.08305170  0.92264019  0.66610904  1  0  -0.309579  0  1.781713  0  0  -0.269742  0  2.251805  0  0  -0.274985  0  2.196151  0  0  -0.117637  -0.267058  0  2.290582  0
N  N96  1  0.51183660  0.54891731  0.82568771  1  0  -0.257696  0  3.236515  0  0  -0.2005  0  3.52153  0  0  -0.21595  0  3.534584  0  0  -0.293543  -0.190673  0  3.51305  0
N  N97  1  0.51183199  0.95108160  0.67431208  1  0  -0.257837  0  3.236652  0  0  -0.200598  0  3.521614  0  0  -0.216035  0  3.534671  0  0  -0.293631  -0.190786  0  3.513144  0
N  N98  1  0.01183541  0.17431454  0.04891875  1  0  -0.257709  0  3.236554  0  0  -0.200495  0  3.521568  0  0  -0.215944  0  3.534629  0  0  -0.293584  -0.190677  0  3.513095  0
N  N99  1  0.01183453  0.32568936  0.45108440  1  0  -0.25763  0  3.236495  0  0  -0.200374  0  3.521422  0  0  -0.215817  0  3.534482  0  0  -0.293535  -0.190572  0  3.512956  0
N  N100  1  0.48816441  0.45108085  0.17431128  1  0  -0.257698  0  3.236479  0  0  -0.200485  0  3.52146  0  0  -0.215941  0  3.53454  0  0  -0.293569  -0.190677  0  3.513002  0
N  N101  1  0.48816667  0.04891656  0.32568612  1  0  -0.257791  0  3.236617  0  0  -0.200535  0  3.521597  0  0  -0.215976  0  3.534639  0  0  -0.293584  -0.190719  0  3.513127  0
N  N102  1  0.98817265  0.82568913  0.95108417  1  0  -0.257777  0  3.236507  0  0  -0.200596  0  3.52153  0  0  -0.216042  0  3.534595  0  0  -0.293629  -0.190775  0  3.513055  0
N  N103  1  0.98816883  0.67431274  0.54891695  1  0  -0.257806  0  3.236546  0  0  -0.200558  0  3.52152  0  0  -0.216013  0  3.534593  0  0  -0.293588  -0.190755  0  3.513068  0
N  N104  1  0.49996366  0.46526213  0.75710856  1  0  -0.317384  0  3.367837  0  0  -0.247269  0  3.66287  0  0  -0.2628  0  3.674665  0  0  -0.316341  -0.237348  0  3.65522  0
N  N105  1  0.49995713  0.03473637  0.74289171  1  0  -0.317418  0  3.367935  0  0  -0.247313  0  3.662968  0  0  -0.262844  0  3.674763  0  0  -0.31636  -0.237385  0  3.655316  0
N  N106  1  0.99996576  0.24289490  0.96526458  1  0  -0.317407  0  3.367892  0  0  -0.247315  0  3.662941  0  0  -0.262842  0  3.674728  0  0  -0.316314  -0.237391  0  3.65529  0
N  N107  1  0.99996091  0.25710895  0.53473944  1  0  -0.317477  0  3.367919  0  0  -0.247377  0  3.663001  0  0  -0.262899  0  3.674773  0  0  -0.316377  -0.237438  0  3.655328  0
N  N108  1  0.50003500  0.53473683  0.24289043  1  0  -0.317341  0  3.367808  0  0  -0.247205  0  3.662814  0  0  -0.262738  0  3.67461  0  0  -0.316304  -0.237279  0  3.655169  0
N  N109  1  0.50004035  0.96525944  0.25710807  1  0  -0.317428  0  3.367903  0  0  -0.247373  0  3.662998  0  0  -0.26289  0  3.674763  0  0  -0.316366  -0.237431  0  3.655329  0
N  N110  1  0.00004465  0.75711192  0.03473913  1  0  -0.317401  0  3.367867  0  0  -0.247289  0  3.662942  0  0  -0.262814  0  3.674729  0  0  -0.316341  -0.237364  0  3.655293  0
N  N111  1  0.00003187  0.74289157  0.46526033  1  0  -0.317244  0  3.367944  0  0  -0.247162  0  3.662969  0  0  -0.262687  0  3.674759  0  0  -0.316258  -0.237231  0  3.655316  0
N  N112  1  0.69214978  0.42950213  0.87013365  1  0  -0.484173  0  3.274742  0  0  -0.40639  0  3.573409  0  0  -0.42805  0  3.578757  0  0  -0.402514  -0.392214  0  3.569708  0
N  N113  1  0.69214617  0.07049739  0.62986558  1  0  -0.484128  0  3.274755  0  0  -0.406334  0  3.573438  0  0  -0.427975  0  3.578772  0  0  -0.402476  -0.392164  0  3.569736  0
N  N114  1  0.19215365  0.12986870  0.92950447  1  0  -0.484117  0  3.274759  0  0  -0.406295  0  3.573379  0  0  -0.427957  0  3.578741  0  0  -0.402484  -0.392108  0  3.569665  0
N  N115  1  0.19215170  0.37013334  0.57049965  1  0  -0.484181  0  3.274673  0  0  -0.406357  0  3.573342  0  0  -0.428022  0  3.57871  0  0  -0.402551  -0.392187  0  3.56964  0
N  N116  1  0.30785005  0.57049603  0.12986692  1  0  -0.484202  0  3.274894  0  0  -0.406403  0  3.57356  0  0  -0.428055  0  3.578902  0  0  -0.402554  -0.392231  0  3.569866  0
N  N117  1  0.30784661  0.92950077  0.37013026  1  0  -0.484113  0  3.274735  0  0  -0.406312  0  3.573432  0  0  -0.427969  0  3.578783  0  0  -0.402507  -0.392127  0  3.569724  0
N  N118  1  0.80785323  0.87013183  0.07049845  1  0  -0.484087  0  3.274687  0  0  -0.406263  0  3.573345  0  0  -0.427908  0  3.578681  0  0  -0.402434  -0.392084  0  3.569636  0
N  N119  1  0.80784579  0.62987112  0.42950170  1  0  -0.484153  0  3.274877  0  0  -0.406369  0  3.573526  0  0  -0.428026  0  3.578875  0  0  -0.402517  -0.392192  0  3.56983  0
