# generated using pymatgen
data_Cd3H12(C4N11)2
_symmetry_space_group_name_H-M   'P 1'
_cell_length_a   8.24362500
_cell_length_b   9.75752083
_cell_length_c   14.32777513
_cell_angle_alpha   81.94721451
_cell_angle_beta   73.28718371
_cell_angle_gamma   65.01261004
_symmetry_Int_Tables_number   1
_chemical_formula_structural   Cd3H12(C4N11)2
_chemical_formula_sum   'Cd6 H24 C16 N44'
_cell_volume   1000.25980939
_cell_formula_units_Z   2
loop_
 _symmetry_equiv_pos_site_id
 _symmetry_equiv_pos_as_xyz
  1  'x, y, z'
loop_
 _atom_site_type_symbol
 _atom_site_label
 _atom_site_symmetry_multiplicity
 _atom_site_fract_x
 _atom_site_fract_y
 _atom_site_fract_z
 _atom_site_occupancy
 _atom_site_hle17_bader_spin_density
 _atom_site_hle17_ddec_charge
 _atom_site_hle17_ddec_spin_density
 _atom_site_hle17_ddec_sum_bond_order
 _atom_site_hle17_magmom
 _atom_site_hse06_10hf_bader_spin_density
 _atom_site_hse06_10hf_ddec_charge
 _atom_site_hse06_10hf_ddec_spin_density
 _atom_site_hse06_10hf_ddec_sum_bond_order
 _atom_site_hse06_10hf_magmom
 _atom_site_hse06_bader_spin_density
 _atom_site_hse06_ddec_charge
 _atom_site_hse06_ddec_spin_density
 _atom_site_hse06_ddec_sum_bond_order
 _atom_site_hse06_magmom
 _atom_site_pbe_bader_spin_density
 _atom_site_pbe_cm5_charge
 _atom_site_pbe_ddec_charge
 _atom_site_pbe_ddec_spin_density
 _atom_site_pbe_ddec_sum_bond_order
 _atom_site_pbe_magmom
Cd  Cd0  1  0.97258603  0.96087259  0.87319299  1  0  0.998425  0  1.837224  0  0  0.781802  0  2.306028  0  0  0.82905  0  2.267438  0  0  0.794284  0.747772  0  2.333001  0
Cd  Cd1  1  0.80664634  0.53909817  0.62680409  1  0  0.999266  0  1.835943  0  0  0.782776  0  2.304423  0  0  0.830068  0  2.265837  0  0  0.794444  0.748006  0  2.332258  0
Cd  Cd2  1  0.02741218  0.03912375  0.12681007  1  0  0.998424  0  1.837215  0  0  0.781816  0  2.306032  0  0  0.829067  0  2.267434  0  0  0.79427  0.747783  0  2.333006  0
Cd  Cd3  1  0.19334806  0.46090722  0.37319313  1  0  0.999235  0  1.835976  0  0  0.782733  0  2.304477  0  0  0.830025  0  2.265893  0  0  0.794422  0.747959  0  2.332312  0
Cd  Cd4  1  0.58170767  0.24996086  0.74999648  1  0  1.000483  0  1.897847  0  0  0.805743  0  2.356754  0  0  0.849554  0  2.321352  0  0  0.799025  0.773359  0  2.381389  0
Cd  Cd5  1  0.41828863  0.75004000  0.25000240  1  0  1.000458  0  1.897895  0  0  0.80573  0  2.356807  0  0  0.849538  0  2.321408  0  0  0.799026  0.773345  0  2.381442  0
H  H6  1  0.50232351  0.78478309  0.01482395  1  0  0.331259  0  0.898805  0  0  0.31407  0  0.965378  0  0  0.320973  0  0.959624  0  0  0.29799  0.309259  0  0.969302  0
H  H7  1  0.30203427  0.71518150  0.48516681  1  0  0.331166  0  0.899523  0  0  0.314449  0  0.965286  0  0  0.321334  0  0.959581  0  0  0.29808  0.309538  0  0.969441  0
H  H8  1  0.49768006  0.21520873  0.98517477  1  0  0.331314  0  0.898754  0  0  0.314073  0  0.965406  0  0  0.320977  0  0.959648  0  0  0.298014  0.309263  0  0.96933  0
H  H9  1  0.69796216  0.28482276  0.51483656  1  0  0.331193  0  0.899497  0  0  0.314436  0  0.965302  0  0  0.321319  0  0.9596  0  0  0.298085  0.309526  0  0.969456  0
H  H10  1  0.66513143  0.80887135  0.91519003  1  0  0.321014  0  0.906003  0  0  0.306675  0  0.967141  0  0  0.31219  0  0.96349  0  0  0.302253  0.302913  0  0.969473  0
H  H11  1  0.38926365  0.69109457  0.58482850  1  0  0.320787  0  0.905667  0  0  0.306114  0  0.967312  0  0  0.311613  0  0.963714  0  0  0.301884  0.302304  0  0.969763  0
H  H12  1  0.33487386  0.19112273  0.08481090  1  0  0.321  0  0.905952  0  0  0.306636  0  0.9671  0  0  0.312151  0  0.96345  0  0  0.30224  0.302873  0  0.969431  0
H  H13  1  0.61073916  0.30890743  0.41517343  1  0  0.320764  0  0.905615  0  0  0.3061  0  0.967245  0  0  0.311597  0  0.96365  0  0  0.301866  0.302289  0  0.969696  0
H  H14  1  0.68330860  0.87482096  0.52608893  1  0  0.313549  0  0.906753  0  0  0.298595  0  0.973347  0  0  0.303834  0  0.969972  0  0  0.297052  0.294908  0  0.975679  0
H  H15  1  0.08424589  0.62518852  0.97385206  1  0  0.312595  0  0.908963  0  0  0.298057  0  0.974957  0  0  0.303312  0  0.97156  0  0  0.297298  0.294468  0  0.977109  0
H  H16  1  0.31669730  0.12518104  0.47390609  1  0  0.313452  0  0.906853  0  0  0.29855  0  0.973396  0  0  0.303788  0  0.970022  0  0  0.29702  0.294863  0  0.975728  0
H  H17  1  0.91575956  0.37480670  0.02615066  1  0  0.312614  0  0.908985  0  0  0.298074  0  0.974977  0  0  0.303329  0  0.971579  0  0  0.2973  0.294485  0  0.977128  0
H  H18  1  0.64198611  0.05436691  0.54337776  1  0  0.314042  0  0.931622  0  0  0.296373  0  1.002415  0  0  0.302908  0  0.997259  0  0  0.290167  0.291721  0  1.00598  0
H  H19  1  0.23968186  0.44567075  0.95660244  1  0  0.313055  0  0.933639  0  0  0.295598  0  1.003808  0  0  0.302067  0  0.998819  0  0  0.290119  0.2908  0  1.007632  0
H  H20  1  0.35801962  0.94563622  0.45662067  1  0  0.31392  0  0.931808  0  0  0.296313  0  1.00252  0  0  0.302841  0  0.997361  0  0  0.290148  0.291662  0  1.006092  0
H  H21  1  0.76032554  0.55432334  0.04339890  1  0  0.313064  0  0.93367  0  0  0.295594  0  1.003856  0  0  0.302063  0  0.998868  0  0  0.290103  0.290792  0  1.007694  0
H  H22  1  0.70788367  0.90955392  0.25343842  1  0  0.083507  0  0.974284  0  0  0.090412  0  1.047888  0  0  0.092246  0  1.04501  0  0  0.126174  0.089092  0  1.049965  0
H  H23  1  0.87099178  0.59044275  0.24654993  1  0  0.084117  0  0.973886  0  0  0.091344  0  1.047193  0  0  0.093078  0  1.044396  0  0  0.126808  0.089788  0  1.049658  0
H  H24  1  0.29210491  0.09044695  0.74656311  1  0  0.083522  0  0.974299  0  0  0.090494  0  1.047822  0  0  0.092305  0  1.044967  0  0  0.126179  0.089172  0  1.0499  0
H  H25  1  0.12899865  0.40955359  0.75344825  1  0  0.08406  0  0.973945  0  0  0.09128  0  1.047277  0  0  0.093015  0  1.044476  0  0  0.126767  0.089725  0  1.049741  0
H  H26  1  0.95090671  0.65693190  0.79099523  1  0  0.084233  0  0.960807  0  0  0.091901  0  1.033561  0  0  0.09376  0  1.030252  0  0  0.126184  0.090468  0  1.036227  0
H  H27  1  0.39907998  0.84298711  0.70899421  1  0  0.083985  0  0.960958  0  0  0.091502  0  1.034023  0  0  0.093331  0  1.030752  0  0  0.126248  0.090043  0  1.036512  0
H  H28  1  0.04909613  0.34306783  0.20900401  1  0  0.084247  0  0.960785  0  0  0.091913  0  1.033529  0  0  0.093771  0  1.030222  0  0  0.126201  0.09048  0  1.036191  0
H  H29  1  0.60091812  0.15701376  0.29100921  1  0  0.083976  0  0.960934  0  0  0.091483  0  1.034014  0  0  0.093312  0  1.030745  0  0  0.126238  0.090025  0  1.036507  0
C  C30  1  0.72222040  0.89590311  0.17717658  1  0  0.210389  0  3.773894  0  0  0.150394  0  4.052007  0  0  0.165218  0  4.065785  0  0  0.128808  0.140627  0  4.042554  0
C  C31  1  0.79526984  0.60413303  0.32279686  1  0  0.211752  0  3.770909  0  0  0.151563  0  4.04896  0  0  0.16648  0  4.062786  0  0  0.128248  0.141716  0  4.039781  0
C  C32  1  0.27777478  0.10409437  0.82282514  1  0  0.210195  0  3.774112  0  0  0.150153  0  4.052209  0  0  0.164996  0  4.065994  0  0  0.128693  0.140386  0  4.042756  0
C  C33  1  0.20472554  0.39586897  0.67720110  1  0  0.211846  0  3.770884  0  0  0.151657  0  4.048931  0  0  0.166574  0  4.062759  0  0  0.128327  0.141809  0  4.039755  0
C  C34  1  0.69181329  0.83777033  0.04703902  1  0  0.568319  0  3.849842  0  0  0.520902  0  4.130362  0  0  0.544386  0  4.139772  0  0  0.313571  0.504847  0  4.123966  0
C  C35  1  0.57669023  0.66216692  0.45295068  1  0  0.569475  0  3.850522  0  0  0.520955  0  4.132413  0  0  0.544497  0  4.141872  0  0  0.312804  0.504968  0  4.126207  0
C  C36  1  0.30818523  0.16222828  0.95296513  1  0  0.568422  0  3.849813  0  0  0.520986  0  4.130351  0  0  0.544469  0  4.139763  0  0  0.313568  0.504929  0  4.123957  0
C  C37  1  0.42330712  0.33783395  0.54704841  1  0  0.569554  0  3.850558  0  0  0.521064  0  4.13238  0  0  0.544609  0  4.141835  0  0  0.312822  0.505077  0  4.126176  0
C  C38  1  0.87946583  0.75672890  0.75086334  1  0  0.200891  0  3.785322  0  0  0.144371  0  4.057491  0  0  0.16041  0  4.069558  0  0  0.122445  0.133632  0  4.049432  0
C  C39  1  0.38704134  0.74323972  0.74907587  1  0  0.202223  0  3.785708  0  0  0.145517  0  4.057874  0  0  0.161528  0  4.070026  0  0  0.123325  0.134945  0  4.049633  0
C  C40  1  0.12053910  0.24327083  0.24913381  1  0  0.200907  0  3.785278  0  0  0.144395  0  4.05745  0  0  0.160434  0  4.06952  0  0  0.122404  0.133657  0  4.049395  0
C  C41  1  0.61296013  0.25676002  0.25092729  1  0  0.202182  0  3.785614  0  0  0.145478  0  4.057789  0  0  0.16149  0  4.069942  0  0  0.123297  0.134903  0  4.049551  0
C  C42  1  0.73545440  0.90340319  0.64914756  1  0  0.571008  0  3.826671  0  0  0.52933  0  4.101891  0  0  0.551944  0  4.111918  0  0  0.309557  0.513747  0  4.094555  0
C  C43  1  0.28812987  0.59660904  0.85083650  1  0  0.570489  0  3.825753  0  0  0.528484  0  4.101733  0  0  0.551171  0  4.111681  0  0  0.308939  0.512931  0  4.094817  0
C  C44  1  0.26455103  0.09659768  0.35084978  1  0  0.57109  0  3.826662  0  0  0.529348  0  4.101966  0  0  0.55196  0  4.111991  0  0  0.309568  0.5138  0  4.094585  0
C  C45  1  0.71187447  0.40338843  0.14916619  1  0  0.570412  0  3.825949  0  0  0.528454  0  4.101852  0  0  0.551142  0  4.111801  0  0  0.308914  0.512902  0  4.094934  0
N  N46  1  0.82452151  0.89208136  0.01938046  1  0  -0.423041  0  3.10154  0  0  -0.35216  0  3.385923  0  0  -0.371727  0  3.398854  0  0  -0.289536  -0.338962  0  3.376953  0
N  N47  1  0.73607364  0.60785195  0.48059110  1  0  -0.423427  0  3.102067  0  0  -0.352201  0  3.386795  0  0  -0.371797  0  3.399791  0  0  -0.289197  -0.338845  0  3.378049  0
N  N48  1  0.17547635  0.10791499  0.98062169  1  0  -0.423107  0  3.101508  0  0  -0.352232  0  3.385927  0  0  -0.371803  0  3.398862  0  0  -0.289569  -0.339035  0  3.376957  0
N  N49  1  0.26392457  0.39215570  0.51940622  1  0  -0.423433  0  3.102024  0  0  -0.352215  0  3.386746  0  0  -0.37181  0  3.399741  0  0  -0.289233  -0.338859  0  3.378002  0
N  N50  1  0.84144338  0.93043955  0.10486558  1  0  -0.297767  0  3.225085  0  0  -0.230807  0  3.512209  0  0  -0.248024  0  3.530797  0  0  -0.278252  -0.218603  0  3.499315  0
N  N51  1  0.87675971  0.56957324  0.39509202  1  0  -0.299203  0  3.223049  0  0  -0.232006  0  3.510117  0  0  -0.249373  0  3.528788  0  0  -0.278844  -0.220532  0  3.497695  0
N  N52  1  0.15855434  0.06955566  0.89513728  1  0  -0.297608  0  3.225202  0  0  -0.230635  0  3.512306  0  0  -0.247849  0  3.53089  0  0  -0.278195  -0.218431  0  3.49941  0
N  N53  1  0.12323934  0.43042989  0.60490676  1  0  -0.299328  0  3.223239  0  0  -0.232148  0  3.510321  0  0  -0.249512  0  3.528988  0  0  -0.278915  -0.220675  0  3.497902  0
N  N54  1  0.62629855  0.83696953  0.14515951  1  0  -0.5203  0  3.148059  0  0  -0.442726  0  3.428098  0  0  -0.466697  0  3.438639  0  0  -0.378855  -0.425945  0  3.420609  0
N  N55  1  0.60840526  0.66301628  0.35482913  1  0  -0.520414  0  3.14515  0  0  -0.442615  0  3.425827  0  0  -0.466682  0  3.436365  0  0  -0.37848  -0.426168  0  3.418215  0
N  N56  1  0.37369691  0.16303021  0.85484078  1  0  -0.52034  0  3.147993  0  0  -0.442764  0  3.428058  0  0  -0.466733  0  3.438589  0  0  -0.3788  -0.425982  0  3.420569  0
N  N57  1  0.39159215  0.33698233  0.64516978  1  0  -0.520401  0  3.144927  0  0  -0.44261  0  3.425602  0  0  -0.466675  0  3.436136  0  0  -0.378449  -0.426163  0  3.417993  0
N  N58  1  0.63416243  0.77963138  0.98709235  1  0  -0.692946  0  3.050099  0  0  -0.654056  0  3.275564  0  0  -0.672128  0  3.270536  0  0  -0.580509  -0.641014  0  3.278692  0
N  N59  1  0.40099175  0.72031075  0.51291663  1  0  -0.692955  0  3.052232  0  0  -0.653487  0  3.277629  0  0  -0.67161  0  3.272588  0  0  -0.579772  -0.640794  0  3.281218  0
N  N60  1  0.36584197  0.22036157  0.01290497  1  0  -0.692973  0  3.050185  0  0  -0.654015  0  3.275774  0  0  -0.672085  0  3.270745  0  0  -0.580491  -0.640974  0  3.278901  0
N  N61  1  0.59900732  0.27969238  0.48708466  1  0  -0.693029  0  3.052184  0  0  -0.65352  0  3.27761  0  0  -0.671645  0  3.272571  0  0  -0.579792  -0.640827  0  3.281199  0
N  N62  1  0.84449838  0.89650806  0.77201760  1  0  -0.317116  0  3.244885  0  0  -0.246718  0  3.532545  0  0  -0.263903  0  3.549989  0  0  -0.281682  -0.235068  0  3.520371  0
N  N63  1  0.51299109  0.60348901  0.72794780  1  0  -0.315827  0  3.244853  0  0  -0.245292  0  3.532265  0  0  -0.262511  0  3.549774  0  0  -0.281065  -0.233427  0  3.519915  0
N  N64  1  0.15550797  0.10349167  0.22798067  1  0  -0.317171  0  3.24501  0  0  -0.246789  0  3.532668  0  0  -0.263974  0  3.550114  0  0  -0.28169  -0.235139  0  3.520496  0
N  N65  1  0.48700959  0.39651299  0.27205372  1  0  -0.315816  0  3.244758  0  0  -0.245279  0  3.53218  0  0  -0.262498  0  3.549686  0  0  -0.281047  -0.233414  0  3.519829  0
N  N66  1  0.75130941  0.99268177  0.70633647  1  0  -0.40151  0  3.071337  0  0  -0.343736  0  3.346252  0  0  -0.363079  0  3.363621  0  0  -0.278311  -0.329163  0  3.333649  0
N  N67  1  0.45041071  0.50732176  0.79368693  1  0  -0.402293  0  3.070939  0  0  -0.34432  0  3.345802  0  0  -0.363729  0  3.363163  0  0  -0.278616  -0.330503  0  3.333355  0
N  N68  1  0.24869694  0.00731797  0.29366180  1  0  -0.401589  0  3.071387  0  0  -0.343765  0  3.346284  0  0  -0.363109  0  3.363656  0  0  -0.278344  -0.329201  0  3.333669  0
N  N69  1  0.54959354  0.49267798  0.20631343  1  0  -0.402299  0  3.070987  0  0  -0.344357  0  3.345841  0  0  -0.363767  0  3.363204  0  0  -0.278654  -0.330539  0  3.333393  0
N  N70  1  0.81333833  0.75433287  0.67515523  1  0  -0.535939  0  3.139244  0  0  -0.456802  0  3.418722  0  0  -0.482071  0  3.429701  0  0  -0.378143  -0.438455  0  3.410735  0
N  N71  1  0.24285006  0.74566699  0.82481294  1  0  -0.536604  0  3.139068  0  0  -0.456886  0  3.418216  0  0  -0.482277  0  3.429271  0  0  -0.378551  -0.439506  0  3.410815  0
N  N72  1  0.18666765  0.24566687  0.32484213  1  0  -0.535971  0  3.139304  0  0  -0.456818  0  3.418808  0  0  -0.482089  0  3.429789  0  0  -0.378117  -0.43848  0  3.410805  0
N  N73  1  0.75715303  0.25433162  0.17519044  1  0  -0.536407  0  3.139005  0  0  -0.456701  0  3.418115  0  0  -0.48209  0  3.429165  0  0  -0.378474  -0.439323  0  3.410713  0
N  N74  1  0.64391729  0.95388208  0.57671638  1  0  -0.695672  0  3.039357  0  0  -0.666364  0  3.277432  0  0  -0.6846  0  3.274137  0  0  -0.595431  -0.652954  0  3.279076  0
N  N75  1  0.17453044  0.54613654  0.92324047  1  0  -0.692977  0  3.040736  0  0  -0.664071  0  3.278662  0  0  -0.682328  0  3.275448  0  0  -0.595608  -0.650758  0  3.280522  0
N  N76  1  0.35609201  0.04611879  0.42328090  1  0  -0.695414  0  3.03952  0  0  -0.666192  0  3.277541  0  0  -0.684415  0  3.274247  0  0  -0.595338  -0.652798  0  3.279173  0
N  N77  1  0.82547677  0.45385868  0.07676176  1  0  -0.693048  0  3.040775  0  0  -0.664137  0  3.278655  0  0  -0.682395  0  3.275441  0  0  -0.595598  -0.650824  0  3.280519  0
N  N78  1  0.74444482  0.21499876  0.87502521  1  0  -0.627759  0  2.710512  0  0  -0.57958  0  3.012732  0  0  -0.603846  0  3.0184  0  0  -0.328885  -0.562052  0  3.008282  0
N  N79  1  0.83446299  0.28489439  0.62497495  1  0  -0.626565  0  2.713837  0  0  -0.57893  0  3.016516  0  0  -0.603249  0  3.022161  0  0  -0.328217  -0.561627  0  3.012478  0
N  N80  1  0.25555393  0.78499646  0.12497536  1  0  -0.627804  0  2.710449  0  0  -0.579694  0  3.012774  0  0  -0.603942  0  3.018395  0  0  -0.32895  -0.562166  0  3.008325  0
N  N81  1  0.16552587  0.71511439  0.37502229  1  0  -0.626514  0  2.713811  0  0  -0.578893  0  3.016519  0  0  -0.603234  0  3.022148  0  0  -0.328107  -0.56159  0  3.012482  0
N  N82  1  0.79620728  0.31641283  0.86507334  1  0  0.401114  0  4.251493  0  0  0.428962  0  4.536997  0  0  0.444511  0  4.566959  0  0  0.074472  0.418494  0  4.516162  0
N  N83  1  0.97767676  0.18352142  0.63495946  1  0  0.399625  0  4.258376  0  0  0.427925  0  4.543325  0  0  0.443556  0  4.573535  0  0  0.074308  0.417276  0  4.523165  0
N  N84  1  0.20379099  0.68358126  0.13492954  1  0  0.401114  0  4.251509  0  0  0.428972  0  4.536996  0  0  0.444525  0  4.566962  0  0  0.074456  0.418502  0  4.516164  0
N  N85  1  0.02231251  0.81649076  0.36503564  1  0  0.399614  0  4.258442  0  0  0.427891  0  4.543433  0  0  0.443556  0  4.573597  0  0  0.074154  0.417241  0  4.523274  0
N  N86  1  0.84389518  0.41548590  0.85491667  1  0  -0.387628  0  2.415876  0  0  -0.386013  0  2.655955  0  0  -0.392124  0  2.664417  0  0  -0.193011  -0.381987  0  2.65122  0
N  N87  1  0.11430177  0.08449308  0.64514834  1  0  -0.386779  0  2.41894  0  0  -0.384989  0  2.658545  0  0  -0.391217  0  2.667177  0  0  -0.193479  -0.38119  0  2.65354  0
N  N88  1  0.15610473  0.58450705  0.14508895  1  0  -0.387559  0  2.415946  0  0  -0.385933  0  2.655984  0  0  -0.392046  0  2.664448  0  0  -0.192927  -0.381907  0  2.65125  0
N  N89  1  0.88569542  0.91551797  0.35484322  1  0  -0.386817  0  2.419046  0  0  -0.384985  0  2.658656  0  0  -0.391231  0  2.667266  0  0  -0.193435  -0.38119  0  2.653656  0
