# generated using pymatgen
data_Cu3H44C40(NO8)2
_symmetry_space_group_name_H-M   'P 1'
_cell_length_a   10.13225149
_cell_length_b   16.55130590
_cell_length_c   16.96029584
_cell_angle_alpha   111.86885808
_cell_angle_beta   107.41929944
_cell_angle_gamma   90.01684292
_symmetry_Int_Tables_number   1
_chemical_formula_structural   Cu3H44C40(NO8)2
_chemical_formula_sum   'Cu6 H88 C80 N4 O32'
_cell_volume   2498.38914226
_cell_formula_units_Z   2
loop_
 _symmetry_equiv_pos_site_id
 _symmetry_equiv_pos_as_xyz
  1  'x, y, z'
loop_
 _atom_site_type_symbol
 _atom_site_label
 _atom_site_symmetry_multiplicity
 _atom_site_fract_x
 _atom_site_fract_y
 _atom_site_fract_z
 _atom_site_occupancy
 _atom_site_pbe_bader_charge
 _atom_site_pbe_bader_spin_density
 _atom_site_pbe_cm5_charge
 _atom_site_pbe_ddec_charge
 _atom_site_pbe_ddec_spin_density
 _atom_site_pbe_ddec_sum_bond_order
 _atom_site_pbe_magmom
Cu  Cu0  1  0.49840910  0.50008936  0.50050347  1  1.130622  -0.579461  0.688209  0.916407  -0.73685  2.069027  -0.579
Cu  Cu1  1  0.99842245  0.99985934  0.49959394  1  1.128843  -0.580067  0.68834  0.917092  -0.737545  2.068665  -0.58
Cu  Cu2  1  0.65003061  0.62830706  0.45124871  1  1.07222  0.554502  0.715198  0.796072  0.731873  2.240429  0.554
Cu  Cu3  1  0.19853875  0.87185340  0.54872964  1  1.069062  0.555574  0.715628  0.795532  0.734378  2.242377  0.555
Cu  Cu4  1  0.35009405  0.37167291  0.54861053  1  1.06963  -0.575223  0.712752  0.790178  -0.741571  2.240039  -0.574
Cu  Cu5  1  0.80173529  0.12824652  0.45136603  1  1.06739  -0.575343  0.71411  0.791973  -0.74256  2.240233  -0.574
H  H6  1  0.19346681  0.37605865  0.23388204  1  0.05794  -0.000296  0.103104  0.102081  -0.000218  1.039178  0.0
H  H7  1  0.95917541  0.12349853  0.76570875  1  0.070661  -0.000302  0.102905  0.101375  -0.000222  1.04081  0.0
H  H8  1  0.80489335  0.62432114  0.76611332  1  0.064285  -0.000216  0.102895  0.101419  -0.000135  1.040608  0.0
H  H9  1  0.03955687  0.87656217  0.23444753  1  0.072664  -0.000212  0.103084  0.101573  -0.000133  1.041496  0.0
H  H10  1  0.04690665  0.31255597  0.07372679  1  0.094935  0.000175  0.109159  0.125323  9.3e-05  0.994116  0.0
H  H11  1  0.97294482  0.18717340  0.92587056  1  0.097833  0.00017  0.109789  0.126771  9e-05  0.993297  0.0
H  H12  1  0.95227158  0.68767098  0.92608388  1  0.093684  -0.000208  0.109724  0.126274  -0.000105  0.99455  0.0
H  H13  1  0.02741452  0.81303056  0.07464442  1  0.097291  -0.000203  0.109913  0.126566  -0.000103  0.993706  0.0
H  H14  1  0.28947408  0.48736338  0.01948037  1  0.070062  -0.000178  0.105853  0.123351  -9.5e-05  1.006631  0.0
H  H15  1  0.27057707  0.01300055  0.98070679  1  0.080707  -0.000178  0.105795  0.122936  -9.5e-05  1.006478  0.0
H  H16  1  0.71128001  0.51236323  0.98068277  1  0.066563  -0.00019  0.105802  0.123149  -9.3e-05  1.007115  0.0
H  H17  1  0.72981187  0.98694576  0.01888420  1  0.072887  -0.000186  0.105916  0.122917  -9.1e-05  1.005961  0.0
H  H18  1  0.43483774  0.55100906  0.18080282  1  0.112298  0.000262  0.106409  0.112861  0.000229  0.998767  0.0
H  H19  1  0.25420339  0.94908998  0.81933912  1  0.094548  0.000265  0.106474  0.112587  0.000229  0.99978  0.0
H  H20  1  0.56533532  0.44873460  0.81949302  1  0.109789  -0.000304  0.106546  0.113019  -0.000213  0.998654  0.0
H  H21  1  0.74494098  0.05086044  0.17999906  1  0.092897  -0.000296  0.106285  0.112821  -0.000207  0.999148  0.0
H  H22  1  0.95750725  0.47154641  0.88146452  1  0.072714  -0.000109  0.100369  0.114932  -4.3e-05  1.047523  0.0
H  H23  1  0.07555024  0.02871344  0.11869704  1  0.089124  -0.000106  0.100706  0.115882  -4.3e-05  1.046969  0.0
H  H24  1  0.04291077  0.52848694  0.11855237  1  0.070944  0.00012  0.100429  0.115108  5.8e-05  1.047487  0.0
H  H25  1  0.92471922  0.97125886  0.88140440  1  0.067414  0.000117  0.100787  0.116064  5.7e-05  1.0474  0.0
H  H26  1  0.01787553  0.50400411  0.76219482  1  0.084829  -3.7e-05  0.104265  0.105704  7e-06  1.011684  0.0
H  H27  1  0.25536643  0.99644631  0.23808520  1  0.090804  -3.4e-05  0.104198  0.105712  9e-06  1.012287  0.0
H  H28  1  0.98255769  0.49605813  0.23783565  1  0.084159  3.8e-05  0.104321  0.106404  6e-06  1.01196  0.0
H  H29  1  0.74465777  0.00359862  0.76212616  1  0.093264  3.4e-05  0.104191  0.106187  5e-06  1.012465  0.0
H  H30  1  0.31285194  0.31712173  0.75356671  1  0.092871  -9.4e-05  0.109061  0.111681  -5.7e-05  0.987978  0.0
H  H31  1  0.55919376  0.18322296  0.24652838  1  0.081982  -9.9e-05  0.109198  0.111521  -5.9e-05  0.988932  0.0
H  H32  1  0.68760763  0.68294217  0.24652069  1  0.082768  8.2e-05  0.108978  0.111579  6.1e-05  0.987803  0.0
H  H33  1  0.44109892  0.81662146  0.75342950  1  0.081715  8.5e-05  0.109317  0.111744  6.3e-05  0.989488  0.0
H  H34  1  0.25893472  0.28835439  0.87684659  1  0.088291  -2.9e-05  0.112661  0.130507  -2e-06  0.978562  0.0
H  H35  1  0.38179193  0.21170056  0.12302507  1  0.079546  -2.7e-05  0.112158  0.129507  -1e-06  0.978482  0.0
H  H36  1  0.74152718  0.71174626  0.12325349  1  0.089221  2.2e-05  0.112574  0.13053  2e-06  0.978285  0.0
H  H37  1  0.61848005  0.78792811  0.87676419  1  0.084796  2.2e-05  0.112238  0.129311  2e-06  0.978855  0.0
H  H38  1  0.53852388  0.68104000  0.65342202  1  0.05197  0.002713  0.099198  0.07888  0.001708  0.979044  0.002
H  H39  1  0.88492887  0.81920672  0.34634070  1  0.067571  0.002733  0.099416  0.08018  0.001722  0.979621  0.002
H  H40  1  0.46146871  0.31959014  0.34645420  1  0.062239  -0.007887  0.098696  0.078086  -0.004053  0.978381  -0.006
H  H41  1  0.11541393  0.18061538  0.65371315  1  0.06612  -0.007883  0.098927  0.079195  -0.004039  0.97881  -0.006
H  H42  1  0.54977764  0.75348709  0.59972859  1  0.049961  -0.008764  0.092017  0.061879  -0.004516  1.038994  -0.006
H  H43  1  0.94916506  0.74642404  0.39971504  1  0.057443  -0.008767  0.092261  0.062492  -0.00453  1.039612  -0.006
H  H44  1  0.45048404  0.24644318  0.39948672  1  0.051985  -0.009615  0.091913  0.061933  -0.004856  1.039578  -0.007
H  H45  1  0.05095931  0.25344063  0.60034866  1  0.058471  -0.009628  0.092315  0.062696  -0.004875  1.039174  -0.007
H  H46  1  0.78642944  0.76249902  0.70034993  1  0.052401  0.002819  0.100759  0.085776  0.001456  1.002612  0.002
H  H47  1  0.08594829  0.73774096  0.29974799  1  0.049674  0.002811  0.100826  0.085713  0.001448  1.002018  0.002
H  H48  1  0.21386961  0.23814363  0.29952733  1  0.051435  -0.002445  0.100838  0.086023  -0.001244  1.001934  -0.001
H  H49  1  0.91482982  0.26173706  0.70044744  1  0.03935  -0.002482  0.10076  0.085595  -0.001252  1.000872  -0.001
H  H50  1  0.76707673  0.64627157  0.66563500  1  0.058466  3.2e-05  0.104073  0.085063  -9.7e-05  1.063915  0.0
H  H51  1  0.10123467  0.85389096  0.33434854  1  0.051231  3.2e-05  0.104009  0.084833  -9.8e-05  1.064115  0.0
H  H52  1  0.23357928  0.35445573  0.33480374  1  0.055441  -0.000796  0.104236  0.085426  -0.000349  1.065366  0.0
H  H53  1  0.89895558  0.14539239  0.66506871  1  0.057083  -0.000806  0.104229  0.08478  -0.000354  1.066128  0.0
H  H54  1  0.94600013  0.80685639  0.64505436  1  0.049278  0.007214  0.104636  0.093793  0.003755  0.968789  0.004
H  H55  1  0.29983908  0.69323784  0.35481517  1  0.076552  0.007176  0.104979  0.094636  0.003767  0.968483  0.004
H  H56  1  0.05451025  0.19316831  0.35461162  1  0.048433  -0.007243  0.104451  0.093809  -0.003668  0.968773  -0.004
H  H57  1  0.70033362  0.30666513  0.64530069  1  0.075453  -0.007189  0.104756  0.094603  -0.003672  0.969045  -0.004
H  H58  1  0.92430427  0.75711613  0.52924544  1  0.085178  0.000368  0.110847  0.103098  -6.9e-05  1.019038  0.0
H  H59  1  0.39476885  0.74278251  0.47058120  1  0.092769  0.000359  0.111374  0.10432  -7.1e-05  1.017717  0.0
H  H60  1  0.07578579  0.24277278  0.47039102  1  0.077652  -0.000744  0.111401  0.103958  -0.0003  1.018909  -0.001
H  H61  1  0.60550689  0.25716970  0.52955408  1  0.094953  -0.000732  0.111528  0.104726  -0.000299  1.017393  0.0
H  H62  1  0.71055431  0.85569089  0.61223439  1  0.038993  -0.000187  0.097836  0.065245  -0.000143  1.011064  0.0
H  H63  1  0.09756109  0.64451423  0.38782150  1  0.049249  -0.000184  0.098259  0.065203  -0.000144  1.013009  0.0
H  H64  1  0.29004768  0.14457647  0.38771524  1  0.034923  -0.000145  0.098062  0.065846  -9.9e-05  1.011231  0.0
H  H65  1  0.90264455  0.35553027  0.61231216  1  0.047778  -0.000144  0.097865  0.064535  -9.9e-05  1.013211  0.0
H  H66  1  0.81730919  0.89089294  0.56158263  1  0.087737  2.7e-05  0.10203  0.07631  0.000138  1.020409  0.0
H  H67  1  0.25508552  0.60916064  0.43823726  1  0.094255  3.4e-05  0.10226  0.076853  0.000137  1.018689  0.0
H  H68  1  0.18296566  0.10907356  0.43799294  1  0.085209  -0.000194  0.102264  0.077555  -0.000128  1.018302  0.0
H  H69  1  0.74507588  0.39083326  0.56186827  1  0.093101  -0.000201  0.102311  0.077229  -0.000131  1.01777  0.0
H  H70  1  0.95214116  0.49661324  0.55567915  1  0.055492  -0.000127  0.097568  0.072003  -8.9e-05  1.007381  0.0
H  H71  1  0.39705959  0.00346693  0.44456903  1  0.060565  -0.00013  0.097693  0.072493  -9.2e-05  1.006939  0.0
H  H72  1  0.04710465  0.50335607  0.44482888  1  0.068669  0.000167  0.09797  0.072706  9.2e-05  1.006771  0.0
H  H73  1  0.60234303  0.99663179  0.55514092  1  0.062735  0.000168  0.097796  0.072658  9.2e-05  1.006603  0.0
H  H74  1  0.82208139  0.53153241  0.60607506  1  0.057354  -4.7e-05  0.096707  0.06151  -2.7e-05  1.026568  0.0
H  H75  1  0.21647582  0.96855951  0.39407275  1  0.020912  -4.6e-05  0.097087  0.062507  -2.7e-05  1.02722  0.0
H  H76  1  0.17645521  0.46878402  0.39372299  1  0.067939  6.6e-05  0.096808  0.061611  4.1e-05  1.028122  0.0
H  H77  1  0.78290824  0.03121902  0.60627809  1  0.027011  6.8e-05  0.097588  0.06301  4e-05  1.027105  0.0
H  H78  1  0.99746245  0.65477778  0.64234127  1  0.035604  0.006914  0.107054  0.099689  0.003593  0.947867  0.004
H  H79  1  0.35535936  0.84517010  0.35800144  1  0.032698  0.006942  0.107329  0.100371  0.003608  0.946058  0.004
H  H80  1  0.00238564  0.34508215  0.35759743  1  0.033953  -0.007019  0.106845  0.099464  -0.003562  0.947606  -0.004
H  H81  1  0.64488716  0.15491378  0.64214971  1  0.031794  -0.007041  0.107187  0.100145  -0.003574  0.946629  -0.004
H  H82  1  0.96915198  0.63061893  0.52746889  1  0.105443  0.000816  0.109255  0.101249  0.000338  1.015911  0.0
H  H83  1  0.44181164  0.86937042  0.47291401  1  0.073937  0.000833  0.109149  0.101176  0.000344  1.014784  0.0
H  H84  1  0.03073754  0.36909278  0.47242591  1  0.091707  -0.000841  0.109029  0.100988  -0.000333  1.015786  0.0
H  H85  1  0.55836769  0.13072596  0.52724901  1  0.073748  -0.00085  0.109131  0.10092  -0.000335  1.014727  0.0
H  H86  1  0.69101329  0.77857226  0.42848581  1  0.609193  0.0  0.323736  0.364176  3e-06  0.891892  0.0
H  H87  1  0.26256895  0.72199151  0.57155274  1  0.610434  -5e-06  0.322495  0.362515  -1e-06  0.893203  0.0
H  H88  1  0.30885746  0.22142322  0.57134906  1  0.609959  3e-05  0.323684  0.364547  2.5e-05  0.891741  0.0
H  H89  1  0.73750885  0.27832377  0.42865096  1  0.603955  3e-05  0.322991  0.363245  2.6e-05  0.892047  0.0
H  H90  1  0.78314546  0.49285116  0.41947102  1  0.640848  8e-06  0.283272  0.336036  -7.2e-05  1.007833  0.0
H  H91  1  0.36432098  0.00700971  0.58071148  1  0.634464  1e-05  0.28288  0.335584  -7.2e-05  1.009575  0.0
H  H92  1  0.21730237  0.50705553  0.58049379  1  0.641206  4.8e-05  0.283391  0.336686  6.7e-05  1.007145  0.0
H  H93  1  0.63671951  0.99294637  0.41949665  1  0.64074  4.7e-05  0.283368  0.336738  6.9e-05  1.009082  0.0
C  C94  1  0.41391779  0.50764487  0.31508326  1  1.544456  -0.000459  0.217208  0.58576  -0.000493  4.163525  -0.001
C  C95  1  0.09937844  0.99246898  0.68494690  1  1.545313  -0.000499  0.217128  0.585618  -0.000527  4.164139  -0.001
C  C96  1  0.58465055  0.49258657  0.68527342  1  1.542293  -0.000646  0.216848  0.583864  -0.002672  4.165241  0.001
C  C97  1  0.89965063  0.00755098  0.31474297  1  1.551525  -0.000651  0.216638  0.585129  -0.002673  4.164898  0.001
C  C98  1  0.32413375  0.46830518  0.21858497  1  0.05321  0.000412  -0.031582  -0.070323  0.000349  3.990877  0.0
C  C99  1  0.10566498  0.03162153  0.78132499  1  0.000664  0.000346  -0.03147  -0.069728  0.000285  3.990978  0.0
C  C100  1  0.67511423  0.53175837  0.78159269  1  0.039602  -0.014104  -0.031481  -0.068639  -0.009894  3.991437  -0.011
C  C101  1  0.89352781  0.96844005  0.21842006  1  -0.007488  -0.014153  -0.031307  -0.069471  -0.009905  3.992468  -0.011
C  C102  1  0.21460073  0.40072989  0.18724052  1  -0.092049  0.001172  -0.083845  -0.069992  0.000733  3.993142  0.001
C  C103  1  0.02716983  0.09898989  0.81245835  1  -0.050208  0.00114  -0.082442  -0.067106  0.000733  3.99251  0.001
C  C104  1  0.78435219  0.59947151  0.81279145  1  -0.031318  -0.000678  -0.083227  -0.069082  -0.000419  3.99282  0.0
C  C105  1  0.97206081  0.90102524  0.18750772  1  -0.043094  -0.000645  -0.083119  -0.067911  -0.000426  3.994464  0.0
C  C106  1  0.13212892  0.36476239  0.09762544  1  0.028115  0.000458  -0.101231  -0.201646  0.000344  3.992528  0.0
C  C107  1  0.03421873  0.13497588  0.90202768  1  0.02496  0.000459  -0.102661  -0.205931  0.000346  3.993814  0.0
C  C108  1  0.86727788  0.63537436  0.90230965  1  -0.042995  -0.000716  -0.101981  -0.203324  -0.000431  3.992908  -0.001
C  C109  1  0.96558110  0.86500480  0.09806936  1  0.024311  -0.000706  -0.102219  -0.204679  -0.000434  3.994889  -0.001
C  C110  1  0.15907701  0.39611376  0.03712015  1  0.398964  0.000258  0.088708  0.265136  0.000154  4.057143  0.0
C  C111  1  0.12184469  0.10379324  0.96267249  1  0.389123  0.000235  0.089082  0.267517  0.00014  4.054745  0.0
C  C112  1  0.84094114  0.60386827  0.96286642  1  0.400146  0.00059  0.089103  0.266195  0.000427  4.056388  0.0
C  C113  1  0.87816923  0.89607781  0.03725918  1  0.389592  0.00061  0.089306  0.267199  0.000439  4.054989  0.0
C  C114  1  0.26877887  0.46302261  0.06662400  1  -0.031996  -0.000628  -0.11059  -0.229027  -0.000444  4.016842  -0.001
C  C115  1  0.20237587  0.03707756  0.93341224  1  -0.043362  -0.00064  -0.110027  -0.227852  -0.000451  4.014835  -0.001
C  C116  1  0.73153630  0.53680182  0.93349195  1  -0.03458  -0.000712  -0.110681  -0.228533  -0.000416  4.01716  -0.001
C  C117  1  0.79754208  0.96280908  0.06628709  1  -0.037322  -0.000716  -0.11069  -0.227746  -0.000417  4.01379  -0.001
C  C118  1  0.34976254  0.49864410  0.15688260  1  -0.064005  -0.000633  -0.080175  -0.058796  -0.000363  3.984118  -0.001
C  C119  1  0.19305125  0.00140526  0.84317852  1  -0.030891  -0.000646  -0.080906  -0.060051  -0.000375  3.985387  -0.001
C  C120  1  0.65018028  0.50119392  0.84332784  1  -0.037019  -0.000891  -0.080197  -0.059747  -0.000644  3.984429  -0.001
C  C121  1  0.80639080  0.99860449  0.15643305  1  -0.03421  -0.000871  -0.079752  -0.059922  -0.000621  3.984523  -0.001
C  C122  1  0.10586691  0.37886353  0.88512446  1  0.332955  -0.002011  0.079682  0.249748  -0.001316  4.054042  -0.001
C  C123  1  0.22044341  0.12115604  0.11476841  1  0.326935  -0.002044  0.080256  0.25029  -0.00134  4.053231  -0.001
C  C124  1  0.89438019  0.62110061  0.11481955  1  0.331816  0.001781  0.080213  0.250518  0.001202  4.05228  0.001
C  C125  1  0.77992759  0.87861522  0.88521423  1  0.32777  0.00176  0.080376  0.250609  0.001187  4.051341  0.001
C  C126  1  0.03617296  0.43893519  0.85361089  1  0.034824  -0.000731  -0.100025  -0.195949  -0.000528  3.984781  0.0
C  C127  1  0.18219691  0.06125286  0.14646800  1  -4e-06  -0.000732  -0.099494  -0.196241  -0.000528  3.985377  0.0
C  C128  1  0.96419477  0.56108095  0.14637652  1  0.03509  0.000775  -0.100282  -0.196342  0.000579  3.985245  0.0
C  C129  1  0.81812181  0.93863368  0.85363319  1  0.019207  0.000785  -0.099844  -0.196549  0.000583  3.984327  0.0
C  C130  1  0.06950012  0.45633470  0.78695199  1  -0.018586  -0.002801  -0.081518  -0.076869  -0.001776  3.984308  -0.002
C  C131  1  0.28230918  0.04395534  0.21318385  1  -0.054488  -0.002868  -0.081563  -0.077056  -0.0018  3.98467  -0.002
C  C132  1  0.93090826  0.54369656  0.21304375  1  -0.016109  0.002536  -0.081717  -0.078414  0.001659  3.984607  0.002
C  C133  1  0.71795004  0.95596884  0.78697245  1  -0.053445  0.002581  -0.081839  -0.078492  0.00167  3.98446  0.002
C  C134  1  0.16838122  0.41206179  0.75031198  1  -0.040004  -0.006102  -0.021072  -0.050343  -0.004256  3.981671  -0.005
C  C135  1  0.41796370  0.08821269  0.24979162  1  0.04412  -0.006069  -0.020743  -0.04951  -0.004268  3.978943  -0.005
C  C136  1  0.83192794  0.58790641  0.24965311  1  -0.034811  0.005806  -0.020436  -0.04858  0.004131  3.979136  0.005
C  C137  1  0.58229618  0.91170016  0.75033141  1  0.040816  0.005828  -0.020122  -0.048284  0.004163  3.979252  0.005
C  C138  1  0.23665134  0.35155041  0.78288443  1  -0.022264  -0.001588  -0.079097  -0.072503  -0.00109  3.988958  -0.001
C  C139  1  0.45367888  0.14863999  0.21715758  1  -0.059957  -0.001565  -0.079808  -0.072925  -0.001069  3.989154  -0.001
C  C140  1  0.76369699  0.64844100  0.21712899  1  -0.016475  0.001382  -0.079267  -0.073109  0.000939  3.987525  0.001
C  C141  1  0.54662630  0.85114761  0.78282170  1  -0.057031  0.001364  -0.079759  -0.073522  0.000926  3.989488  0.001
C  C142  1  0.20682516  0.33518779  0.85091906  1  -0.024821  0.000248  -0.09563  -0.198284  0.000178  3.997595  0.0
C  C143  1  0.35572106  0.16487322  0.14899979  1  0.007074  0.000244  -0.095663  -0.197307  0.000174  3.996373  0.0
C  C144  1  0.79354036  0.66483380  0.14910300  1  -0.024078  -0.000202  -0.095865  -0.19818  -0.000128  3.995332  0.0
C  C145  1  0.64465077  0.83484126  0.85090290  1  -0.003121  -0.000198  -0.096072  -0.197293  -0.000125  3.995308  0.0
C  C146  1  0.19794239  0.42660122  0.67462047  1  1.570083  -0.001131  0.208073  0.57361  -0.001894  4.20137  0.0
C  C147  1  0.52330804  0.07360811  0.32545874  1  1.565244  -0.00112  0.206873  0.571495  -0.001893  4.204128  0.0
C  C148  1  0.80243206  0.57328832  0.32532584  1  1.566201  0.000924  0.20766  0.573651  0.001779  4.202939  0.0
C  C149  1  0.47711467  0.92645708  0.67473353  1  1.569234  0.000924  0.207207  0.572625  0.001788  4.202646  0.0
C  C150  1  0.58345818  0.69239332  0.60624388  1  0.439  0.000684  -0.099241  0.043504  0.000453  3.971845  0.0
C  C151  1  0.97679073  0.80764623  0.39354627  1  0.427519  0.000598  -0.099917  0.040226  0.000414  3.9758  0.0
C  C152  1  0.41692361  0.30778159  0.39358174  1  0.462663  -0.006636  -0.09878  0.044908  -0.006511  3.970279  -0.002
C  C153  1  0.02356063  0.19215650  0.60644372  1  0.426218  -0.006725  -0.099607  0.041209  -0.006546  3.974653  -0.002
C  C154  1  0.74198236  0.69970696  0.64294372  1  0.250674  0.001068  -0.08556  -0.124875  0.001638  3.871428  -0.001
C  C155  1  0.09875781  0.80051126  0.35710329  1  0.235188  0.001135  -0.085773  -0.122818  0.001652  3.871139  -0.001
C  C156  1  0.25841164  0.30078122  0.35715147  1  0.219971  -0.001501  -0.086051  -0.126144  -0.001633  3.872275  0.0
C  C157  1  0.90152405  0.19910693  0.64279472  1  0.242119  -0.001491  -0.085589  -0.122125  -0.001606  3.871276  0.0
C  C158  1  0.86798314  0.77237946  0.57798259  1  0.264191  -0.00033  -0.080292  -0.127585  0.000574  3.907821  -0.002
C  C159  1  0.28945678  0.72770879  0.42201770  1  0.2324  -0.000241  -0.081132  -0.130606  0.000593  3.910399  -0.002
C  C160  1  0.13234001  0.22766084  0.42177987  1  0.273386  0.000166  -0.080711  -0.128349  -0.000704  3.910953  0.002
C  C161  1  0.71079838  0.27227231  0.57813268  1  0.229928  6.8e-05  -0.081154  -0.130469  -0.000722  3.910315  0.002
C  C162  1  0.76140316  0.83334104  0.56039369  1  0.411542  0.001115  -0.080534  0.056987  0.00065  3.900032  0.001
C  C163  1  0.20043348  0.66675744  0.43961860  1  0.394119  0.001126  -0.080482  0.058271  0.000655  3.900431  0.001
C  C164  1  0.23893263  0.16673359  0.43941564  1  0.416691  -0.001401  -0.08127  0.055119  -0.000885  3.902268  -0.001
C  C165  1  0.79975072  0.33325314  0.56053824  1  0.397811  -0.001412  -0.080257  0.058592  -0.00089  3.900476  -0.001
C  C166  1  0.86281100  0.53452580  0.55390187  1  0.440068  0.000972  -0.085997  0.055231  0.000538  3.950011  0.001
C  C167  1  0.30938813  0.96555290  0.44629654  1  0.470397  0.000959  -0.086963  0.052735  0.000529  3.9492  0.001
C  C168  1  0.13646530  0.46548733  0.44605670  1  0.414079  -0.000954  -0.086187  0.055377  -0.000499  3.946081  -0.001
C  C169  1  0.69050632  0.03448208  0.55389840  1  0.460564  -0.000946  -0.086917  0.053497  -0.000495  3.947112  -0.001
C  C170  1  0.91734253  0.62864279  0.57512262  1  0.225751  -0.000834  -0.079924  -0.130047  0.000321  3.896432  -0.002
C  C171  1  0.34237073  0.87140956  0.42515029  1  0.260193  -0.000832  -0.079818  -0.129623  0.000321  3.892915  -0.002
C  C172  1  0.08248755  0.37127470  0.42480779  1  0.24148  0.0008  -0.079729  -0.12883  -0.000287  3.894766  0.002
C  C173  1  0.65779118  0.12864148  0.57498449  1  0.259565  0.0008  -0.079867  -0.129221  -0.000285  3.893348  0.002
N  N174  1  0.80727760  0.68800285  0.57200864  1  -0.987706  0.107024  -0.352939  -0.086207  0.071776  3.499716  0.091
N  N175  1  0.23505159  0.81218293  0.42815990  1  -0.97757  0.107009  -0.353376  -0.088722  0.071814  3.501421  0.091
N  N176  1  0.19292827  0.31215775  0.42794620  1  -0.987881  -0.107306  -0.353966  -0.087655  -0.070326  3.501949  -0.092
N  N177  1  0.76519447  0.18776901  0.57193281  1  -0.977738  -0.107418  -0.354163  -0.0901  -0.070426  3.503258  -0.092
O  O178  1  0.49916850  0.57489130  0.33681907  1  -1.128852  0.074359  -0.324147  -0.525452  0.049686  2.395437  0.068
O  O179  1  0.16275159  0.92521247  0.66328039  1  -1.131158  0.074516  -0.324499  -0.526067  0.049785  2.396826  0.068
O  O180  1  0.50081675  0.42468780  0.66333556  1  -1.130722  -0.075904  -0.323261  -0.5234  -0.049103  2.395371  -0.069
O  O181  1  0.83733390  0.07520047  0.33661848  1  -1.130791  -0.075896  -0.323834  -0.52498  -0.049093  2.397488  -0.069
O  O182  1  0.39915411  0.47144154  0.36715507  1  -1.145071  -0.074217  -0.31289  -0.550577  -0.048408  2.386105  -0.067
O  O183  1  0.03307129  0.02889797  0.63294695  1  -1.146958  -0.07478  -0.312595  -0.550071  -0.048887  2.386735  -0.068
O  O184  1  0.59736956  0.52977683  0.63353937  1  -1.136358  -0.07611  -0.312266  -0.5486  -0.049263  2.387932  -0.069
O  O185  1  0.96475021  0.97058450  0.36656659  1  -1.144812  -0.075995  -0.312241  -0.549579  -0.049173  2.385458  -0.069
O  O186  1  0.06978315  0.35983787  0.95015727  1  -1.098191  -0.000148  -0.158539  -0.225313  -4.4e-05  2.54864  0.0
O  O187  1  0.11930113  0.14001533  0.04955134  1  -1.09254  -0.000165  -0.158543  -0.226341  -5.4e-05  2.548389  0.0
O  O188  1  0.93042168  0.64014189  0.04977273  1  -1.098989  0.000426  -0.158525  -0.225897  0.000221  2.548071  0.0
O  O189  1  0.88103432  0.85977577  0.95046457  1  -1.09262  0.000439  -0.158479  -0.22607  0.00023  2.548298  0.0
O  O190  1  0.23708251  0.35969354  0.62129386  1  -1.141237  -0.077146  -0.336816  -0.572161  -0.050074  2.413963  -0.069
O  O191  1  0.61608599  0.14044862  0.37874391  1  -1.146878  -0.077302  -0.3367  -0.571466  -0.050274  2.417586  -0.069
O  O192  1  0.76300225  0.64011637  0.37859225  1  -1.140924  0.075194  -0.337208  -0.573661  0.049904  2.414945  0.068
O  O193  1  0.38406697  0.85974591  0.62141171  1  -1.146009  0.075703  -0.337206  -0.572826  0.050353  2.417114  0.068
O  O194  1  0.18066139  0.49885381  0.66665557  1  -1.174311  -0.002409  -0.318916  -0.537922  -0.001262  2.145526  -0.002
O  O195  1  0.51382066  0.00135329  0.33340951  1  -1.171451  -0.002381  -0.318511  -0.537549  -0.001245  2.146598  -0.002
O  O196  1  0.82002057  0.50108571  0.33331662  1  -1.17112  0.002064  -0.318032  -0.537298  0.001096  2.148032  0.002
O  O197  1  0.48711645  0.99870328  0.66685572  1  -1.170842  0.002088  -0.31811  -0.537159  0.001109  2.146158  0.002
O  O198  1  0.53014574  0.62306000  0.52019724  1  -1.027627  0.009877  -0.410421  -0.557466  0.007577  2.5159  0.009
O  O199  1  0.00933220  0.87677065  0.47975965  1  -1.026605  0.010016  -0.409886  -0.557364  0.007687  2.512687  0.009
O  O200  1  0.47144036  0.37646919  0.48009652  1  -1.028673  -0.205887  -0.408527  -0.556259  -0.132698  2.504195  -0.184
O  O201  1  0.99152994  0.12335558  0.52001059  1  -1.025725  -0.205855  -0.409026  -0.556062  -0.132707  2.506453  -0.184
O  O202  1  0.65050025  0.79239703  0.47676699  1  -1.114984  -0.002136  -0.402055  -0.48298  -0.001399  2.27816  -0.001
O  O203  1  0.17352629  0.70761415  0.52327359  1  -1.117765  -0.002103  -0.401739  -0.48186  -0.001378  2.27791  -0.001
O  O204  1  0.34957721  0.20757745  0.52316109  1  -1.115058  0.000513  -0.401855  -0.482451  0.000328  2.277829  0.0
O  O205  1  0.82657676  0.29240993  0.47684380  1  -1.109771  0.000497  -0.401905  -0.482125  0.00032  2.276837  0.0
O  O206  1  0.75144850  0.49508186  0.47118788  1  -1.172707  -0.000915  -0.420453  -0.550674  -0.00054  2.39077  0.0
O  O207  1  0.28092139  0.00500584  0.52900043  1  -1.165587  -0.000946  -0.419929  -0.549505  -0.000562  2.38935  0.0
O  O208  1  0.24841473  0.50489409  0.52855707  1  -1.172343  0.003144  -0.420113  -0.552143  0.002285  2.395557  0.001
O  O209  1  0.71979183  0.99499410  0.47143535  1  -1.169823  0.003105  -0.420228  -0.551657  0.002258  2.394786  0.001
