# generated using pymatgen
data_CoH22C30(N3O2)2
_symmetry_space_group_name_H-M   'P 1'
_cell_length_a   11.86549634
_cell_length_b   12.55847580
_cell_length_c   13.23698992
_cell_angle_alpha   118.87959775
_cell_angle_beta   107.95291870
_cell_angle_gamma   87.70774035
_symmetry_Int_Tables_number   1
_chemical_formula_structural   CoH22C30(N3O2)2
_chemical_formula_sum   'Co2 H44 C60 N12 O8'
_cell_volume   1628.98365661
_cell_formula_units_Z   2
loop_
 _symmetry_equiv_pos_site_id
 _symmetry_equiv_pos_as_xyz
  1  'x, y, z'
loop_
 _atom_site_type_symbol
 _atom_site_label
 _atom_site_symmetry_multiplicity
 _atom_site_fract_x
 _atom_site_fract_y
 _atom_site_fract_z
 _atom_site_occupancy
 _atom_site_pbe_bader_charge
 _atom_site_pbe_bader_spin_density
 _atom_site_pbe_cm5_charge
 _atom_site_pbe_ddec_charge
 _atom_site_pbe_ddec_spin_density
 _atom_site_pbe_ddec_sum_bond_order
 _atom_site_pbe_magmom
Co  Co0  1  0.99999945  0.00000019  0.49999867  1  1.094182  0.973299  0.699576  0.518981  1.040569  3.060087  0.961
Co  Co1  1  0.49999964  0.49999927  0.50000028  1  1.272593  2.600339  0.688687  0.738613  2.827626  2.626578  2.583
H  H2  1  0.80956956  0.03770626  0.61694952  1  0.57153  6.2e-05  0.304522  0.265103  -0.000118  1.043083  0.0
H  H3  1  0.69914148  0.42486878  0.38359386  1  0.570387  0.000237  0.309174  0.268716  -8.8e-05  1.032188  0.0
H  H4  1  0.19043012  0.96228604  0.38304662  1  0.571431  6.2e-05  0.304543  0.265153  -0.000118  1.043125  0.0
H  H5  1  0.30085441  0.57513221  0.61641004  1  0.570381  0.000237  0.309177  0.268759  -8.8e-05  1.032152  0.0
H  H6  1  0.46139903  0.13683308  0.48964022  1  0.097153  3e-06  0.106017  0.111524  -2.8e-05  1.001524  0.0
H  H7  1  0.04306651  0.64109775  0.50748141  1  0.081456  -2.1e-05  0.105718  0.111122  -3.4e-05  1.003749  0.0
H  H8  1  0.53859652  0.86315690  0.51035998  1  0.097112  4e-06  0.106013  0.111499  -2.8e-05  1.001566  0.0
H  H9  1  0.95693607  0.35890079  0.49253300  1  0.081541  -2.1e-05  0.105735  0.111149  -3.4e-05  1.003774  0.0
H  H10  1  0.33586088  0.17905536  0.62046541  1  0.051481  -2.8e-05  0.099693  0.100411  -7e-05  1.021953  0.0
H  H11  1  0.16658790  0.55083396  0.37232607  1  0.087597  -2.6e-05  0.10005  0.101878  -0.000141  1.020365  0.0
H  H12  1  0.66413625  0.82093552  0.37953480  1  0.051475  -2.8e-05  0.099725  0.100434  -7e-05  1.021938  0.0
H  H13  1  0.83341560  0.44916736  0.62768654  1  0.087708  -2.6e-05  0.100045  0.101808  -0.000141  1.020368  0.0
H  H14  1  0.42983770  0.25565098  0.84313332  1  0.062906  -3.1e-05  0.094395  0.090926  -4.5e-05  1.024517  0.0
H  H15  1  0.07059823  0.40705302  0.15031873  1  0.055807  -1e-06  0.093152  0.089292  -3.1e-05  1.029273  0.0
H  H16  1  0.57016652  0.74434981  0.15686772  1  0.062881  -3e-05  0.094425  0.091003  -4.5e-05  1.024476  0.0
H  H17  1  0.92941101  0.59295712  0.84969085  1  0.056078  -1e-06  0.093166  0.089343  -3.1e-05  1.029196  0.0
H  H18  1  0.65186946  0.28819495  0.93513497  1  0.043189  1e-05  0.096703  0.092051  6e-06  1.018509  0.0
H  H19  1  0.84911093  0.35209431  0.06306896  1  0.049936  1.4e-05  0.09561  0.090302  4e-06  1.02141  0.0
H  H20  1  0.34813866  0.71181393  0.06486688  1  0.042812  1e-05  0.096724  0.092085  6e-06  1.018464  0.0
H  H21  1  0.15089833  0.64791431  0.93693909  1  0.049855  1.4e-05  0.095625  0.090322  4e-06  1.021357  0.0
H  H22  1  0.77833161  0.24487254  0.80381700  1  0.032701  9e-06  0.101317  0.100397  -6e-06  1.000159  0.0
H  H23  1  0.72486686  0.44270897  0.19842575  1  0.062034  2.1e-05  0.101556  0.101869  -9e-06  0.999045  0.0
H  H24  1  0.22166907  0.75512283  0.19617303  1  0.032804  8e-06  0.101306  0.100375  -6e-06  1.00017  0.0
H  H25  1  0.27513989  0.55729521  0.80158333  1  0.061885  2.1e-05  0.101623  0.101936  -9e-06  0.998989  0.0
H  H26  1  0.85074444  0.15294815  0.38432896  1  0.127871  -0.000138  0.124448  0.111679  -0.000287  1.026034  0.0
H  H27  1  0.66070088  0.77135377  0.63055231  1  0.114815  0.00016  0.121507  0.10644  -0.000166  1.018382  0.0
H  H28  1  0.14925645  0.84704978  0.61567009  1  0.127753  -0.000139  0.124423  0.111652  -0.000287  1.026078  0.0
H  H29  1  0.33929442  0.22865014  0.36944624  1  0.114818  0.00016  0.121519  0.106449  -0.000166  1.018396  0.0
H  H30  1  0.10381009  0.25632936  0.66600122  1  0.177679  -1.6e-05  0.119895  0.09882  -0.000214  1.06307  0.0
H  H31  1  0.38843627  0.58147921  0.31071104  1  0.178568  0.001379  0.114674  0.088811  0.000404  1.051613  0.001
H  H32  1  0.89618631  0.74366899  0.33399268  1  0.177693  -1.6e-05  0.119948  0.098844  -0.000214  1.062978  0.0
H  H33  1  0.61156212  0.41852016  0.68928022  1  0.178859  0.001379  0.114652  0.088787  0.000404  1.051581  0.001
H  H34  1  0.22404748  0.38172731  0.88556906  1  0.109267  -3.2e-05  0.105744  0.108955  1.1e-05  1.026293  0.0
H  H35  1  0.26083583  0.48748870  0.09256971  1  0.071699  0.000948  0.105233  0.10812  0.000418  1.022036  0.0
H  H36  1  0.77594439  0.61828161  0.11442528  1  0.109435  -3.2e-05  0.105735  0.108949  1.1e-05  1.026242  0.0
H  H37  1  0.73916218  0.51250904  0.90742268  1  0.07177  0.000948  0.105261  0.108174  0.000418  1.022029  0.0
H  H38  1  0.15388149  0.07209017  0.92742173  1  0.094684  0.000117  0.11477  0.121886  0.000111  0.98796  0.0
H  H39  1  0.33617587  0.13341827  0.05843885  1  0.040992  0.001039  0.11301  0.119588  0.000477  0.991513  0.0
H  H40  1  0.84612498  0.92790918  0.07257052  1  0.094513  0.000117  0.11479  0.121863  0.000111  0.988094  0.0
H  H41  1  0.66382744  0.86658410  0.94155365  1  0.040941  0.00104  0.113023  0.119613  0.000477  0.991563  0.0
H  H42  1  0.03793063  0.96150441  0.70691068  1  0.131321  2.1e-05  0.125296  0.100173  -0.00016  1.037124  0.0
H  H43  1  0.46010203  0.24358406  0.27691101  1  0.110161  0.001566  0.120833  0.092512  0.000354  1.018817  0.001
H  H44  1  0.96206949  0.03849767  0.29308332  1  0.131134  2.1e-05  0.125338  0.100185  -0.00016  1.037065  0.0
H  H45  1  0.53989668  0.75641513  0.72308192  1  0.110071  0.001566  0.120835  0.092514  0.000354  1.018868  0.001
C  C46  1  0.50340776  0.17128134  0.58728116  1  -0.041832  -0.000413  -0.081416  -0.106049  -0.000487  3.936857  0.0
C  C47  1  0.00047648  0.57862102  0.41013512  1  -0.058718  0.00115  -0.080607  -0.104883  0.000572  3.943672  0.001
C  C48  1  0.49658941  0.82871998  0.41272032  1  -0.04153  -0.000414  -0.081395  -0.105967  -0.000488  3.936812  0.0
C  C49  1  0.99952738  0.42138344  0.58987789  1  -0.059049  0.00115  -0.080572  -0.104763  0.000572  3.94355  0.001
C  C50  1  0.43286923  0.19470412  0.66101199  1  0.017609  0.000217  -0.090275  -0.071868  7.6e-05  3.990581  0.0
C  C51  1  0.06973677  0.52763188  0.33405351  1  -0.045817  -0.000272  -0.090825  -0.073374  -0.000337  3.99123  0.0
C  C52  1  0.56712673  0.80528522  0.33898481  1  0.017522  0.000217  -0.090328  -0.071876  7.7e-05  3.990711  0.0
C  C53  1  0.93026916  0.47237359  0.66596238  1  -0.045883  -0.000272  -0.090761  -0.073221  -0.000337  3.991159  0.0
C  C54  1  0.48568861  0.23714005  0.78609965  1  -0.128023  -0.000591  -0.097787  -0.09056  -0.000633  4.02418  0.0
C  C55  1  0.01574657  0.44654695  0.20916226  1  -0.004884  0.001146  -0.096521  -0.087148  0.000578  4.021876  0.001
C  C56  1  0.51431142  0.76286250  0.21389943  1  -0.128103  -0.000591  -0.097843  -0.090755  -0.000634  4.024468  0.0
C  C57  1  0.98426433  0.55345774  0.79085107  1  -0.004408  0.001145  -0.096646  -0.087435  0.000578  4.021894  0.001
C  C58  1  0.61010014  0.25528767  0.83755532  1  -0.025764  0.000304  -0.101057  -0.098547  0.000143  4.059298  0.0
C  C59  1  0.89165686  0.41563929  0.16049240  1  -0.0839  -0.000194  -0.09974  -0.096738  -0.000228  4.060486  0.0
C  C60  1  0.38990236  0.74470965  0.16244221  1  -0.025426  0.000304  -0.101147  -0.098591  0.000144  4.059315  0.0
C  C61  1  0.10835355  0.58435970  0.83951703  1  -0.084502  -0.000193  -0.099742  -0.096645  -0.000227  4.060407  0.0
C  C62  1  0.68107634  0.23090112  0.76413122  1  0.064039  -0.000538  -0.089872  -0.125352  -0.000575  3.976887  0.0
C  C63  1  0.82193242  0.46588490  0.23626684  1  -0.079273  0.000934  -0.091896  -0.129891  0.000464  3.978831  0.001
C  C64  1  0.31892359  0.76910370  0.23586461  1  0.063845  -0.000539  -0.089763  -0.125211  -0.000576  3.976867  0.0
C  C65  1  0.17807472  0.53412014  0.76374036  1  -0.079122  0.000933  -0.091903  -0.1299  0.000464  3.978961  0.001
C  C66  1  0.62853201  0.18928435  0.63828511  1  -0.058477  0.00033  -0.003939  0.049676  9.7e-05  4.013947  0.0
C  C67  1  0.87561857  0.54852032  0.36194873  1  0.026355  0.000234  -0.003838  0.048587  3.1e-05  4.013853  0.0
C  C68  1  0.37146523  0.81071015  0.36170952  1  -0.058545  0.00033  -0.003946  0.049609  9.7e-05  4.014019  0.0
C  C69  1  0.12438448  0.45147862  0.63805872  1  0.026459  0.000234  -0.003839  0.048466  3.1e-05  4.01399  0.0
C  C70  1  0.70629162  0.16298929  0.56388421  1  0.414031  -0.003369  0.113121  0.1391  -0.003672  3.954719  -0.002
C  C71  1  0.80016285  0.59853312  0.43976703  1  0.440819  0.006074  0.113788  0.140583  0.00337  3.947192  0.004
C  C72  1  0.29370350  0.83700239  0.43611033  1  0.41411  -0.00337  0.113099  0.139027  -0.003673  3.954779  -0.002
C  C73  1  0.19984143  0.40146994  0.56024181  1  0.440503  0.006073  0.113709  0.140592  0.003369  3.947266  0.004
C  C74  1  0.81256768  0.14359885  0.44430568  1  0.455894  -0.004811  0.028242  -0.005772  -0.005367  3.96916  -0.003
C  C75  1  0.69733485  0.70110419  0.56588328  1  0.44825  0.003062  0.027444  0.006257  0.00171  3.982573  0.003
C  C76  1  0.18742428  0.85638875  0.55568656  1  0.456021  -0.00481  0.028317  -0.005643  -0.005366  3.969126  -0.003
C  C77  1  0.30266300  0.29889373  0.43411848  1  0.448055  0.003062  0.027423  0.006334  0.00171  3.982573  0.003
C  C78  1  0.71387436  0.19580391  0.47795477  1  -0.021055  0.005379  -0.042002  -0.20757  0.002606  4.022988  0.004
C  C79  1  0.79158160  0.71753617  0.52923931  1  0.017308  0.008546  -0.04245  -0.20712  0.004685  4.014995  0.006
C  C80  1  0.28612076  0.80418777  0.52203977  1  -0.021327  0.005379  -0.042018  -0.207662  0.002606  4.022905  0.004
C  C81  1  0.20841884  0.28246619  0.47076695  1  0.017468  0.008546  -0.042402  -0.207245  0.004686  4.014966  0.006
C  C82  1  0.65373668  0.28067080  0.43742863  1  1.577596  -0.000881  0.203704  0.59217  -0.001501  4.24236  0.0
C  C83  1  0.84792909  0.84003840  0.56761976  1  1.555768  0.001896  0.198049  0.57977  0.00112  4.254292  0.002
C  C84  1  0.34625667  0.71932953  0.56258010  1  1.577878  -0.000881  0.203741  0.592449  -0.001502  4.242325  0.0
C  C85  1  0.15206784  0.15996310  0.43238559  1  1.555522  0.001896  0.198027  0.579752  0.001119  4.254234  0.002
C  C86  1  0.11827438  0.22004689  0.72817200  1  0.429601  -0.005709  0.047776  0.091172  -0.00605  3.882147  -0.003
C  C87  1  0.37401285  0.48242141  0.25080770  1  0.472616  -0.005225  0.047241  0.101707  -0.005983  3.916808  -0.003
C  C88  1  0.88172537  0.77995205  0.27182161  1  0.428925  -0.005709  0.047662  0.091069  -0.00605  3.881908  -0.003
C  C89  1  0.62598687  0.51758056  0.74918896  1  0.472224  -0.00523  0.047223  0.101674  -0.005988  3.916529  -0.003
C  C90  1  0.18522867  0.28864539  0.85121127  1  -0.043548  -0.001202  -0.083744  -0.175658  -0.001473  3.955175  0.0
C  C91  1  0.30282343  0.42854834  0.12856016  1  -0.109622  0.003079  -0.085243  -0.178128  0.001178  3.950184  0.003
C  C92  1  0.81476967  0.71135777  0.14878380  1  -0.043198  -0.001203  -0.083746  -0.175649  -0.001474  3.955093  0.0
C  C93  1  0.69718108  0.57145558  0.87143575  1  -0.109534  0.003081  -0.085264  -0.178207  0.001178  3.950168  0.003
C  C94  1  0.20534405  0.23636489  0.92698632  1  -0.027605  -0.008142  0.006633  0.093161  -0.008636  4.01262  -0.005
C  C95  1  0.28335462  0.30025527  0.05544540  1  0.013226  -0.009945  0.005409  0.092969  -0.010653  4.010577  -0.006
C  C96  1  0.79466170  0.76363529  0.07300768  1  -0.027766  -0.008144  0.006598  0.093083  -0.008637  4.012792  -0.005
C  C97  1  0.71664741  0.69974829  0.94455104  1  0.013369  -0.009951  0.005455  0.093117  -0.01066  4.010518  -0.006
C  C98  1  0.14834247  0.11694804  0.87360612  1  -0.029201  -0.001165  -0.081079  -0.16876  -0.001496  3.952725  0.0
C  C99  1  0.34274403  0.23299887  0.11057028  1  0.023183  0.002459  -0.083353  -0.174844  0.000916  3.947112  0.002
C  C100  1  0.85166343  0.88305242  0.12638909  1  -0.029016  -0.001167  -0.081068  -0.168704  -0.001497  3.953036  0.0
C  C101  1  0.65725432  0.76700353  0.88942403  1  0.023244  0.00246  -0.083335  -0.174923  0.000916  3.947131  0.002
C  C102  1  0.08291221  0.05376723  0.75034490  1  0.467806  -0.006274  0.047442  0.083981  -0.006623  3.934079  -0.004
C  C103  1  0.41255978  0.29381395  0.23288523  1  0.504421  -0.005755  0.048659  0.099906  -0.006604  3.960324  -0.003
C  C104  1  0.91709017  0.94623312  0.24965016  1  0.467799  -0.006274  0.047386  0.083953  -0.006624  3.934075  -0.004
C  C105  1  0.58743732  0.70618660  0.76710998  1  0.504378  -0.005758  0.048689  0.099945  -0.006607  3.960338  -0.003
N  N106  1  0.86136717  0.08318129  0.50336519  1  -0.721309  -0.00561  -0.265343  -0.112354  -0.005925  3.626129  -0.004
N  N107  1  0.65138978  0.58312751  0.50551609  1  -0.73047  0.055384  -0.25298  -0.176994  0.030504  3.52938  0.047
N  N108  1  0.13862969  0.91681234  0.49663133  1  -0.720752  -0.005611  -0.265436  -0.112602  -0.005925  3.626321  -0.004
N  N109  1  0.34860849  0.41686901  0.49448151  1  -0.730399  0.055386  -0.252929  -0.176977  0.030505  3.529432  0.047
N  N110  1  0.79703856  0.09626054  0.57651841  1  -0.821109  -0.002917  -0.262989  -0.136718  -0.003031  3.588908  -0.002
N  N111  1  0.71361556  0.52252925  0.42850617  1  -0.845489  0.000722  -0.26811  -0.132387  -0.001206  3.637129  -0.001
N  N112  1  0.20295656  0.90373114  0.42347613  1  -0.82134  -0.002917  -0.262878  -0.136492  -0.00303  3.588884  -0.002
N  N113  1  0.28638201  0.47747217  0.57149267  1  -0.845249  0.000721  -0.268127  -0.132466  -0.001207  3.637248  -0.001
N  N114  1  0.07071922  0.10204110  0.67637591  1  -1.200533  -0.010475  -0.329493  -0.168084  -0.01027  3.623878  -0.007
N  N115  1  0.42660429  0.41660660  0.30402495  1  -1.237968  0.058252  -0.3179  -0.232549  0.031129  3.534616  0.051
N  N116  1  0.92927858  0.89796091  0.32361983  1  -1.200179  -0.010477  -0.329433  -0.168011  -0.010272  3.623564  -0.007
N  N117  1  0.57339339  0.58339208  0.69596654  1  -1.237968  0.058256  -0.317956  -0.232531  0.031131  3.534433  0.051
O  O118  1  0.57915807  0.34277798  0.48808283  1  -1.178718  0.07488  -0.317836  -0.568516  0.039144  2.382675  0.065
O  O119  1  0.92360152  0.84624871  0.51917698  1  -1.172718  0.056369  -0.310218  -0.56442  0.028846  2.323145  0.049
O  O120  1  0.42083261  0.65721686  0.51192496  1  -1.178588  0.074885  -0.317812  -0.568679  0.039148  2.38279  0.065
O  O121  1  0.07639212  0.15375325  0.48082511  1  -1.17253  0.056373  -0.31028  -0.564459  0.028849  2.323206  0.049
O  O122  1  0.68356228  0.28819872  0.35639087  1  -1.173527  0.000402  -0.340054  -0.567758  -0.000713  2.14953  0.0
O  O123  1  0.81377930  0.93238063  0.64535341  1  -1.195534  0.000559  -0.344421  -0.566344  -0.000184  2.148891  0.0
O  O124  1  0.31642194  0.71180823  0.64361797  1  -1.17391  0.000403  -0.340095  -0.567869  -0.000713  2.149567  0.0
O  O125  1  0.18622296  0.06761734  0.35465857  1  -1.195391  0.000559  -0.3444  -0.566308  -0.000184  2.148907  0.0
