# generated using pymatgen
data_CdH8(C2N)8
_symmetry_space_group_name_H-M   'P 1'
_cell_length_a   9.84093140
_cell_length_b   10.94142600
_cell_length_c   14.77231671
_cell_angle_alpha   89.99984110
_cell_angle_beta   96.84875054
_cell_angle_gamma   89.99968600
_symmetry_Int_Tables_number   1
_chemical_formula_structural   CdH8(C2N)8
_chemical_formula_sum   'Cd4 H32 C64 N32'
_cell_volume   1579.24198815
_cell_formula_units_Z   4
loop_
 _symmetry_equiv_pos_site_id
 _symmetry_equiv_pos_as_xyz
  1  'x, y, z'
loop_
 _atom_site_type_symbol
 _atom_site_label
 _atom_site_symmetry_multiplicity
 _atom_site_fract_x
 _atom_site_fract_y
 _atom_site_fract_z
 _atom_site_occupancy
 _atom_site_hle17_bader_spin_density
 _atom_site_hle17_ddec_charge
 _atom_site_hle17_ddec_spin_density
 _atom_site_hle17_ddec_sum_bond_order
 _atom_site_hle17_magmom
 _atom_site_hse06_10hf_bader_spin_density
 _atom_site_hse06_10hf_ddec_charge
 _atom_site_hse06_10hf_ddec_spin_density
 _atom_site_hse06_10hf_ddec_sum_bond_order
 _atom_site_hse06_10hf_magmom
 _atom_site_hse06_bader_spin_density
 _atom_site_hse06_ddec_charge
 _atom_site_hse06_ddec_spin_density
 _atom_site_hse06_ddec_sum_bond_order
 _atom_site_hse06_magmom
 _atom_site_pbe_bader_spin_density
 _atom_site_pbe_cm5_charge
 _atom_site_pbe_ddec_charge
 _atom_site_pbe_ddec_spin_density
 _atom_site_pbe_ddec_sum_bond_order
 _atom_site_pbe_magmom
Cd  Cd0  1  0.35271608  0.07365997  0.76327209  1  0  1.148028  0  1.884424  0  0  0.956404  0  2.376325  0  0  1.004046  0  2.328973  0  0  0.83972  0.92343  0  2.407967  0
Cd  Cd1  1  0.64728422  0.57365811  0.73672694  1  0  1.148015  0  1.884354  0  0  0.956378  0  2.376261  0  0  1.004021  0  2.328912  0  0  0.839711  0.923407  0  2.407902  0
Cd  Cd2  1  0.64728450  0.92634066  0.23672663  1  0  1.147967  0  1.88439  0  0  0.956327  0  2.376296  0  0  1.003972  0  2.328947  0  0  0.839687  0.923355  0  2.407934  0
Cd  Cd3  1  0.35271326  0.42634070  0.26327216  1  0  1.147985  0  1.884405  0  0  0.956347  0  2.376308  0  0  1.003986  0  2.328959  0  0  0.839704  0.923374  0  2.407948  0
H  H4  1  0.36892877  0.77195653  0.73940824  1  0  0.085755  0  0.952768  0  0  0.092018  0  1.020782  0  0  0.093944  0  1.019294  0  0  0.115737  0.0906  0  1.021998  0
H  H5  1  0.63107342  0.27195612  0.76058787  1  0  0.085736  0  0.952762  0  0  0.092017  0  1.020763  0  0  0.093916  0  1.019303  0  0  0.11573  0.090599  0  1.021981  0
H  H6  1  0.63107491  0.22804320  0.26059010  1  0  0.085721  0  0.952828  0  0  0.091983  0  1.020847  0  0  0.093897  0  1.019371  0  0  0.115703  0.090566  0  1.022062  0
H  H7  1  0.36892412  0.72804452  0.23940988  1  0  0.085724  0  0.952834  0  0  0.092004  0  1.020842  0  0  0.093902  0  1.019382  0  0  0.11572  0.090583  0  1.022063  0
H  H8  1  0.22323198  0.59852714  0.67337147  1  0  0.104544  0  0.955852  0  0  0.116254  0  1.011786  0  0  0.118629  0  1.012199  0  0  0.107141  0.114199  0  1.012321  0
H  H9  1  0.77677442  0.09852486  0.82662540  1  0  0.104567  0  0.95582  0  0  0.116254  0  1.011775  0  0  0.118628  0  1.01219  0  0  0.107122  0.114199  0  1.012309  0
H  H10  1  0.77677278  0.40147532  0.32662563  1  0  0.104576  0  0.955815  0  0  0.116261  0  1.011775  0  0  0.118636  0  1.012188  0  0  0.107124  0.114206  0  1.012311  0
H  H11  1  0.22322108  0.90147395  0.17337216  1  0  0.104556  0  0.95589  0  0  0.116255  0  1.011824  0  0  0.118629  0  1.01224  0  0  0.107133  0.1142  0  1.012358  0
H  H12  1  0.98895445  0.64454957  0.59257383  1  0  0.104163  0  0.94945  0  0  0.117427  0  1.005889  0  0  0.11988  0  1.004451  0  0  0.108459  0.115649  0  1.007054  0
H  H13  1  0.01104639  0.14454619  0.90742579  1  0  0.104178  0  0.949423  0  0  0.117443  0  1.005856  0  0  0.119895  0  1.004418  0  0  0.108457  0.115664  0  1.007021  0
H  H14  1  0.01104713  0.35545198  0.40742567  1  0  0.104132  0  0.94943  0  0  0.117395  0  1.005877  0  0  0.119846  0  1.004439  0  0  0.108451  0.115617  0  1.007041  0
H  H15  1  0.98895005  0.85545170  0.09257388  1  0  0.10415  0  0.949412  0  0  0.117408  0  1.00586  0  0  0.119861  0  1.004422  0  0  0.108446  0.11563  0  1.007024  0
H  H16  1  0.81205683  0.80141814  0.53840108  1  0  0.101196  0  0.962463  0  0  0.110372  0  1.027041  0  0  0.112449  0  1.027392  0  0  0.103545  0.108954  0  1.026855  0
H  H17  1  0.18794704  0.30141735  0.96159920  1  0  0.101192  0  0.962421  0  0  0.110373  0  1.026995  0  0  0.11245  0  1.027345  0  0  0.103527  0.108954  0  1.02681  0
H  H18  1  0.18794682  0.19858249  0.46159794  1  0  0.1012  0  0.962424  0  0  0.110373  0  1.027018  0  0  0.112449  0  1.027369  0  0  0.103544  0.108955  0  1.026833  0
H  H19  1  0.81204838  0.69858054  0.03840037  1  0  0.101237  0  0.962355  0  0  0.11038  0  1.026984  0  0  0.112457  0  1.027335  0  0  0.103557  0.108963  0  1.026797  0
H  H20  1  0.73652265  0.01808078  0.53144064  1  0  0.105679  0  0.958452  0  0  0.113637  0  1.023467  0  0  0.116166  0  1.023211  0  0  0.104141  0.111786  0  1.0236  0
H  H21  1  0.26347799  0.51807812  0.96855922  1  0  0.105698  0  0.958441  0  0  0.113657  0  1.023451  0  0  0.116186  0  1.023196  0  0  0.10415  0.111805  0  1.023584  0
H  H22  1  0.26348308  0.98191986  0.46855791  1  0  0.105762  0  0.958419  0  0  0.113714  0  1.023427  0  0  0.116241  0  1.023167  0  0  0.104176  0.111863  0  1.02356  0
H  H23  1  0.73651523  0.48191886  0.03144353  1  0  0.105764  0  0.958429  0  0  0.113718  0  1.023436  0  0  0.116248  0  1.023167  0  0  0.104169  0.111867  0  1.02357  0
H  H24  1  0.78497417  0.23834621  0.56968390  1  0  0.10442  0  0.938829  0  0  0.112866  0  1.002245  0  0  0.115433  0  1.001214  0  0  0.109167  0.111321  0  1.002402  0
H  H25  1  0.21502716  0.73834211  0.93031355  1  0  0.104372  0  0.938857  0  0  0.11283  0  1.002267  0  0  0.115397  0  1.001236  0  0  0.109179  0.111286  0  1.002423  0
H  H26  1  0.21503056  0.76165443  0.43031387  1  0  0.104368  0  0.938928  0  0  0.1129  0  1.002247  0  0  0.115467  0  1.001219  0  0  0.109197  0.111357  0  1.002402  0
H  H27  1  0.78497215  0.26165305  0.06969114  1  0  0.104399  0  0.938867  0  0  0.112909  0  1.002212  0  0  0.115476  0  1.001183  0  0  0.109209  0.111365  0  1.002369  0
H  H28  1  0.94718694  0.39536909  0.63960401  1  0  0.116629  0  0.976473  0  0  0.125185  0  1.037015  0  0  0.128476  0  1.035946  0  0  0.104408  0.122856  0  1.037928  0
H  H29  1  0.05281239  0.89536604  0.86039158  1  0  0.116569  0  0.976431  0  0  0.125144  0  1.036973  0  0  0.128436  0  1.035902  0  0  0.104402  0.122815  0  1.037886  0
H  H30  1  0.05281566  0.60463155  0.36039559  1  0  0.116625  0  0.976441  0  0  0.125184  0  1.036992  0  0  0.128474  0  1.035923  0  0  0.104404  0.122854  0  1.037906  0
H  H31  1  0.94719002  0.10463094  0.13961274  1  0  0.11663  0  0.976264  0  0  0.125172  0  1.036854  0  0  0.128462  0  1.035785  0  0  0.104409  0.122843  0  1.037767  0
H  H32  1  0.17803002  0.32701960  0.71768911  1  0  0.079945  0  0.925271  0  0  0.090684  0  0.986219  0  0  0.092722  0  0.984361  0  0  0.117271  0.088986  0  0.988018  0
H  H33  1  0.82196544  0.82701488  0.78231166  1  0  0.07997  0  0.925229  0  0  0.090703  0  0.986171  0  0  0.092745  0  0.984313  0  0  0.117284  0.089005  0  0.98797  0
H  H34  1  0.82197040  0.67298195  0.28231366  1  0  0.079968  0  0.92522  0  0  0.0907  0  0.98618  0  0  0.092742  0  0.984322  0  0  0.117285  0.089002  0  0.98798  0
H  H35  1  0.17803699  0.17298393  0.21769199  1  0  0.079939  0  0.92529  0  0  0.090677  0  0.986237  0  0  0.09272  0  0.98438  0  0  0.117277  0.088979  0  0.988036  0
C  C36  1  0.46499347  0.21142848  0.41587225  1  0  0.518292  0  3.991214  0  0  0.477061  0  4.275902  0  0  0.503527  0  4.28787  0  0  0.308131  0.458565  0  4.268907  0
C  C37  1  0.53500170  0.71142956  0.08412468  1  0  0.518287  0  3.991219  0  0  0.477047  0  4.27591  0  0  0.503518  0  4.287879  0  0  0.308148  0.458552  0  4.268914  0
C  C38  1  0.53500296  0.78857124  0.58412742  1  0  0.518208  0  3.991286  0  0  0.476977  0  4.275971  0  0  0.50345  0  4.28794  0  0  0.308124  0.458483  0  4.268974  0
C  C39  1  0.46500187  0.28857016  0.91587637  1  0  0.518221  0  3.991248  0  0  0.476966  0  4.275942  0  0  0.503439  0  4.287908  0  0  0.308116  0.458473  0  4.268945  0
C  C40  1  0.49113117  0.14567346  0.56597526  1  0  0.512611  0  3.998188  0  0  0.469668  0  4.290368  0  0  0.496063  0  4.301265  0  0  0.304576  0.451836  0  4.282207  0
C  C41  1  0.50886358  0.64567247  0.93402241  1  0  0.512524  0  3.998169  0  0  0.469578  0  4.290342  0  0  0.495976  0  4.301235  0  0  0.304573  0.451747  0  4.282183  0
C  C42  1  0.50886731  0.85432900  0.43402461  1  0  0.512539  0  3.998332  0  0  0.469597  0  4.290511  0  0  0.495996  0  4.301407  0  0  0.304567  0.451765  0  4.282352  0
C  C43  1  0.49113084  0.35433091  0.06597639  1  0  0.512548  0  3.998195  0  0  0.469577  0  4.290382  0  0  0.495977  0  4.301274  0  0  0.304554  0.451748  0  4.282221  0
C  C44  1  0.61184509  0.93221904  0.88882758  1  0  0.51027  0  3.99979  0  0  0.471057  0  4.282327  0  0  0.496759  0  4.294329  0  0  0.308429  0.453326  0  4.274509  0
C  C45  1  0.38816097  0.43221855  0.61117334  1  0  0.51026  0  3.999691  0  0  0.471029  0  4.282222  0  0  0.496726  0  4.294225  0  0  0.308462  0.453299  0  4.274404  0
C  C46  1  0.38815240  0.06777794  0.11117152  1  0  0.510254  0  3.999714  0  0  0.471055  0  4.282246  0  0  0.496755  0  4.294247  0  0  0.308411  0.453323  0  4.274429  0
C  C47  1  0.61184476  0.56777843  0.38882521  1  0  0.510193  0  3.999661  0  0  0.47097  0  4.28219  0  0  0.496665  0  4.294189  0  0  0.308412  0.453241  0  4.274372  0
C  C48  1  0.73800733  0.94395735  0.02983194  1  0  0.483889  0  4.003201  0  0  0.449141  0  4.285193  0  0  0.473703  0  4.296941  0  0  0.295731  0.432346  0  4.277306  0
C  C49  1  0.26199831  0.44395525  0.47017232  1  0  0.483923  0  4.003255  0  0  0.449149  0  4.285256  0  0  0.473707  0  4.297008  0  0  0.295692  0.432352  0  4.27737  0
C  C50  1  0.26198811  0.05603872  0.97016696  1  0  0.483872  0  4.0035  0  0  0.449125  0  4.285509  0  0  0.473681  0  4.297255  0  0  0.295688  0.432329  0  4.277622  0
C  C51  1  0.73800944  0.55605087  0.52982710  1  0  0.483821  0  4.003265  0  0  0.449055  0  4.28528  0  0  0.47361  0  4.297031  0  0  0.295627  0.432259  0  4.277393  0
C  C52  1  0.26726048  0.78856528  0.70333813  1  0  0.152648  0  3.690093  0  0  0.121877  0  3.942996  0  0  0.129936  0  3.960542  0  0  0.060416  0.116566  0  3.930859  0
C  C53  1  0.73274157  0.28856332  0.79665862  1  0  0.152595  0  3.690127  0  0  0.121793  0  3.943046  0  0  0.129876  0  3.960599  0  0  0.060392  0.116482  0  3.930909  0
C  C54  1  0.73274223  0.21143444  0.29665877  1  0  0.152548  0  3.69026  0  0  0.121778  0  3.943136  0  0  0.129846  0  3.960686  0  0  0.060414  0.116468  0  3.931  0
C  C55  1  0.26725492  0.71143640  0.20333970  1  0  0.152684  0  3.690221  0  0  0.121854  0  3.943154  0  0  0.129934  0  3.960709  0  0  0.060408  0.116542  0  3.931017  0
C  C56  1  0.18470946  0.69170706  0.66599772  1  0  -0.114811  0  3.725429  0  0  -0.12727  0  3.976485  0  0  -0.1345  0  3.998461  0  0  -0.08319  -0.122579  0  3.962182  0
C  C57  1  0.81529110  0.19170639  0.83400110  1  0  -0.114783  0  3.725332  0  0  -0.127225  0  3.976389  0  0  -0.134452  0  3.998353  0  0  -0.083157  -0.122534  0  3.962085  0
C  C58  1  0.81529422  0.30829266  0.33400063  1  0  -0.114754  0  3.725314  0  0  -0.127191  0  3.97636  0  0  -0.134419  0  3.99833  0  0  -0.083113  -0.122501  0  3.962059  0
C  C59  1  0.18470434  0.80829333  0.16599780  1  0  -0.11479  0  3.725337  0  0  -0.127229  0  3.976402  0  0  -0.134456  0  3.998368  0  0  -0.08314  -0.122538  0  3.962099  0
C  C60  1  0.05647231  0.71734672  0.62132511  1  0  -0.041235  0  3.677181  0  0  -0.066447  0  3.92503  0  0  -0.063898  0  3.943357  0  0  -0.063204  -0.067997  0  3.91272  0
C  C61  1  0.94352902  0.21734433  0.87867577  1  0  -0.04126  0  3.677019  0  0  -0.06646  0  3.924824  0  0  -0.063915  0  3.943157  0  0  -0.063191  -0.068011  0  3.912515  0
C  C62  1  0.94353132  0.28265209  0.37867458  1  0  -0.0412  0  3.677184  0  0  -0.066423  0  3.925031  0  0  -0.063874  0  3.943361  0  0  -0.063234  -0.067972  0  3.91272  0
C  C63  1  0.05646637  0.78265265  0.12132448  1  0  -0.041244  0  3.676967  0  0  -0.066449  0  3.924822  0  0  -0.063901  0  3.943148  0  0  -0.063224  -0.067999  0  3.912512  0
C  C64  1  0.00992234  0.83972943  0.61490820  1  0  0.020904  0  3.795276  0  0  0.037627  0  4.027452  0  0  0.034841  0  4.052144  0  0  -0.001568  0.038737  0  4.01138  0
C  C65  1  0.99007920  0.33972679  0.88509246  1  0  0.020864  0  3.795271  0  0  0.037627  0  4.027412  0  0  0.034843  0  4.052104  0  0  -0.001541  0.038738  0  4.01134  0
C  C66  1  0.99008128  0.16027395  0.38509150  1  0  0.020817  0  3.795375  0  0  0.03758  0  4.027527  0  0  0.03479  0  4.052218  0  0  -0.001547  0.038689  0  4.011457  0
C  C67  1  0.00991615  0.66027110  0.11490847  1  0  0.020957  0  3.795316  0  0  0.037681  0  4.027488  0  0  0.034896  0  4.052181  0  0  -0.001537  0.038791  0  4.011417  0
C  C68  1  0.87813373  0.87322940  0.57015845  1  0  -0.091928  0  3.731556  0  0  -0.115917  0  3.988357  0  0  -0.11924  0  4.012278  0  0  -0.083623  -0.113745  0  3.972255  0
C  C69  1  0.12186654  0.37322631  0.92984270  1  0  -0.091989  0  3.73147  0  0  -0.115992  0  3.988277  0  0  -0.119317  0  4.012199  0  0  -0.083647  -0.113819  0  3.972175  0
C  C70  1  0.12186887  0.12677032  0.42984115  1  0  -0.091941  0  3.731674  0  0  -0.115945  0  3.988478  0  0  -0.119268  0  4.012396  0  0  -0.08366  -0.113772  0  3.972375  0
C  C71  1  0.87812984  0.62676884  0.07015832  1  0  -0.091987  0  3.731654  0  0  -0.115958  0  3.988473  0  0  -0.119283  0  4.012392  0  0  -0.08366  -0.113785  0  3.972372  0
C  C72  1  0.83646389  0.99244249  0.56634791  1  0  -0.095941  0  3.721995  0  0  -0.117976  0  3.974495  0  0  -0.121074  0  3.997349  0  0  -0.08381  -0.11478  0  3.958289  0
C  C73  1  0.16353566  0.49244192  0.93365158  1  0  -0.09596  0  3.721977  0  0  -0.117975  0  3.974485  0  0  -0.121078  0  3.997346  0  0  -0.083805  -0.114779  0  3.958281  0
C  C74  1  0.16353879  0.00756271  0.43364967  1  0  -0.095989  0  3.722039  0  0  -0.117994  0  3.974519  0  0  -0.121091  0  3.997379  0  0  -0.083821  -0.114803  0  3.958309  0
C  C75  1  0.83645962  0.50756146  0.06635137  1  0  -0.096018  0  3.722265  0  0  -0.118054  0  3.974731  0  0  -0.12115  0  3.997597  0  0  -0.083875  -0.114874  0  3.958515  0
C  C76  1  0.92373703  0.08742580  0.60669267  1  0  0.021981  0  3.794102  0  0  0.039478  0  4.023736  0  0  0.036957  0  4.048309  0  0  -0.001796  0.040971  0  4.006784  0
C  C77  1  0.07626308  0.58742252  0.89330902  1  0  0.02207  0  3.794011  0  0  0.039508  0  4.023705  0  0  0.036992  0  4.048267  0  0  -0.001765  0.040997  0  4.006759  0
C  C78  1  0.07626660  0.91257301  0.39330703  1  0  0.021982  0  3.794199  0  0  0.039422  0  4.023883  0  0  0.036899  0  4.048451  0  0  -0.001797  0.040929  0  4.006913  0
C  C79  1  0.92373422  0.41257538  0.10669480  1  0  0.021907  0  3.794213  0  0  0.039416  0  4.023807  0  0  0.036893  0  4.048376  0  0  -0.001723  0.040953  0  4.006797  0
C  C80  1  0.88565156  0.21208607  0.60316938  1  0  -0.039406  0  3.674199  0  0  -0.062916  0  3.922801  0  0  -0.060868  0  3.941518  0  0  -0.060609  -0.063799  0  3.909092  0
C  C81  1  0.11434573  0.71208350  0.89683044  1  0  -0.039236  0  3.674162  0  0  -0.062737  0  3.922775  0  0  -0.06069  0  3.941489  0  0  -0.060574  -0.06362  0  3.909066  0
C  C82  1  0.11435508  0.78791822  0.39683197  1  0  -0.039327  0  3.674133  0  0  -0.062912  0  3.922788  0  0  -0.060862  0  3.941498  0  0  -0.060613  -0.0638  0  3.909074  0
C  C83  1  0.88565252  0.28791348  0.10317483  1  0  -0.039334  0  3.67436  0  0  -0.062909  0  3.922959  0  0  -0.060861  0  3.941678  0  0  -0.060642  -0.063804  0  3.909239  0
C  C84  1  0.97636317  0.29930658  0.64161713  1  0  -0.121725  0  3.729327  0  0  -0.137743  0  3.989323  0  0  -0.144897  0  4.010471  0  0  -0.087445  -0.132756  0  3.974576  0
C  C85  1  0.02363656  0.79930186  0.85838411  1  0  -0.121796  0  3.729313  0  0  -0.137834  0  3.989321  0  0  -0.14499  0  4.010472  0  0  -0.087484  -0.132846  0  3.974573  0
C  C86  1  0.02363534  0.70069406  0.35838207  1  0  -0.121761  0  3.729109  0  0  -0.137795  0  3.989155  0  0  -0.144949  0  4.010304  0  0  -0.087469  -0.132808  0  3.974411  0
C  C87  1  0.97636278  0.20069695  0.14161991  1  0  -0.121795  0  3.729177  0  0  -0.137805  0  3.989209  0  0  -0.14496  0  4.01036  0  0  -0.087496  -0.13282  0  3.974464  0
C  C88  1  0.10426510  0.26151559  0.68484814  1  0  0.152491  0  3.714581  0  0  0.115006  0  3.980858  0  0  0.124105  0  3.99731  0  0  0.056858  0.109381  0  3.969135  0
C  C89  1  0.89573178  0.76151404  0.81515357  1  0  0.152565  0  3.714252  0  0  0.115088  0  3.98052  0  0  0.12418  0  3.996975  0  0  0.056882  0.10946  0  3.968801  0
C  C90  1  0.89573636  0.73848779  0.31515406  1  0  0.152512  0  3.714644  0  0  0.115052  0  3.980916  0  0  0.124142  0  3.997378  0  0  0.056859  0.109423  0  3.969195  0
C  C91  1  0.10426858  0.23848569  0.18485055  1  0  0.152588  0  3.714449  0  0  0.1151  0  3.980721  0  0  0.124193  0  3.99718  0  0  0.056898  0.109472  0  3.969001  0
C  C92  1  0.05596920  0.05788966  0.65100081  1  0  0.134615  0  3.748665  0  0  0.12684  0  3.98452  0  0  0.131058  0  4.006935  0  0  0.118329  0.124346  0  3.969297  0
C  C93  1  0.94402905  0.55788775  0.84900076  1  0  0.134576  0  3.74884  0  0  0.126861  0  3.984652  0  0  0.131077  0  4.007065  0  0  0.11839  0.124369  0  3.96943  0
C  C94  1  0.94403544  0.94211006  0.34899899  1  0  0.134551  0  3.74885  0  0  0.126875  0  3.984619  0  0  0.131095  0  4.007033  0  0  0.118379  0.124375  0  3.969394  0
C  C95  1  0.05596725  0.44211106  0.15100229  1  0  0.134713  0  3.749038  0  0  0.126985  0  3.984798  0  0  0.131205  0  4.007212  0  0  0.118412  0.124478  0  3.969567  0
C  C96  1  0.10007652  0.93161021  0.65490789  1  0  0.127989  0  3.753863  0  0  0.123182  0  3.989191  0  0  0.127571  0  4.011051  0  0  0.117613  0.11996  0  3.974728  0
C  C97  1  0.89992439  0.43160633  0.84509320  1  0  0.128094  0  3.75376  0  0  0.123203  0  3.989147  0  0  0.127593  0  4.011007  0  0  0.117525  0.119979  0  3.974686  0
C  C98  1  0.89992509  0.06839317  0.34509093  1  0  0.12802  0  3.753778  0  0  0.123147  0  3.989134  0  0  0.127538  0  4.010991  0  0  0.11757  0.119924  0  3.974673  0
C  C99  1  0.10007196  0.56839156  0.15490850  1  0  0.127876  0  3.75403  0  0  0.12304  0  3.989339  0  0  0.127429  0  4.011198  0  0  0.117556  0.119816  0  3.97488  0
N  N100  1  0.41333607  0.25225249  0.34611976  1  0  -0.620154  0  2.811812  0  0  -0.567399  0  3.093056  0  0  -0.591039  0  3.097927  0  0  -0.391082  -0.55144  0  3.09062  0
N  N101  1  0.58665772  0.75225579  0.15387899  1  0  -0.620183  0  2.811799  0  0  -0.567429  0  3.093058  0  0  -0.591071  0  3.097925  0  0  -0.391091  -0.551467  0  3.090621  0
N  N102  1  0.58665926  0.74774724  0.65388184  1  0  -0.6202  0  2.811906  0  0  -0.567448  0  3.093153  0  0  -0.59109  0  3.098025  0  0  -0.39111  -0.551487  0  3.090714  0
N  N103  1  0.41334173  0.24774119  0.84612233  1  0  -0.620106  0  2.811796  0  0  -0.567358  0  3.093062  0  0  -0.590997  0  3.097926  0  0  -0.391045  -0.551395  0  3.090622  0
N  N104  1  0.53269832  0.16262193  0.48705766  1  0  -0.470997  0  3.30264  0  0  -0.414973  0  3.565794  0  0  -0.439533  0  3.570403  0  0  -0.307905  -0.398098  0  3.56244  0
N  N105  1  0.46729913  0.66261995  0.01294162  1  0  -0.47097  0  3.3026  0  0  -0.414927  0  3.565744  0  0  -0.439495  0  3.570353  0  0  -0.307918  -0.398056  0  3.562391  0
N  N106  1  0.46730221  0.83737779  0.51294241  1  0  -0.470844  0  3.302689  0  0  -0.414828  0  3.565851  0  0  -0.439401  0  3.570456  0  0  -0.307868  -0.397958  0  3.562499  0
N  N107  1  0.53270342  0.33737977  0.98705933  1  0  -0.470947  0  3.302651  0  0  -0.414869  0  3.565773  0  0  -0.439451  0  3.570394  0  0  -0.307879  -0.398002  0  3.56242  0
N  N108  1  0.46790889  0.12564674  0.64098599  1  0  -0.603739  0  2.787689  0  0  -0.553199  0  3.071416  0  0  -0.575337  0  3.073953  0  0  -0.387717  -0.538262  0  3.068999  0
N  N109  1  0.53208491  0.62564682  0.85901298  1  0  -0.603649  0  2.787706  0  0  -0.553114  0  3.071437  0  0  -0.575251  0  3.073972  0  0  -0.387705  -0.538179  0  3.069021  0
N  N110  1  0.53209463  0.87435481  0.35901640  1  0  -0.603692  0  2.787743  0  0  -0.553152  0  3.07148  0  0  -0.575283  0  3.074005  0  0  -0.3877  -0.538216  0  3.069063  0
N  N111  1  0.46790646  0.37435747  0.14098485  1  0  -0.6037  0  2.78776  0  0  -0.553163  0  3.071519  0  0  -0.575288  0  3.074037  0  0  -0.387723  -0.538228  0  3.069102  0
N  N112  1  0.52643468  0.95437552  0.82823099  1  0  -0.603008  0  2.831645  0  0  -0.549696  0  3.11256  0  0  -0.572838  0  3.116977  0  0  -0.389132  -0.534005  0  3.109823  0
N  N113  1  0.47356821  0.45437165  0.67176822  1  0  -0.602877  0  2.831729  0  0  -0.549572  0  3.112668  0  0  -0.57271  0  3.117084  0  0  -0.389086  -0.533884  0  3.109932  0
N  N114  1  0.47356482  0.04562328  0.17176899  1  0  -0.603043  0  2.831588  0  0  -0.549731  0  3.112514  0  0  -0.572876  0  3.116928  0  0  -0.38915  -0.534041  0  3.109779  0
N  N115  1  0.52643439  0.54562076  0.32823137  1  0  -0.602942  0  2.831642  0  0  -0.549635  0  3.112577  0  0  -0.572773  0  3.116989  0  0  -0.38912  -0.533946  0  3.109842  0
N  N116  1  0.71106840  0.89846166  0.94890827  1  0  -0.468149  0  3.312891  0  0  -0.41367  0  3.57588  0  0  -0.438028  0  3.582068  0  0  -0.310398  -0.396928  0  3.571449  0
N  N117  1  0.28893602  0.39846371  0.55108782  1  0  -0.468187  0  3.313172  0  0  -0.413672  0  3.576142  0  0  -0.438017  0  3.582321  0  0  -0.310405  -0.396928  0  3.571713  0
N  N118  1  0.28893011  0.10153623  0.05109093  1  0  -0.468127  0  3.312922  0  0  -0.413669  0  3.575931  0  0  -0.438018  0  3.58212  0  0  -0.310389  -0.396922  0  3.571499  0
N  N119  1  0.71106987  0.60153967  0.44890668  1  0  -0.468069  0  3.312909  0  0  -0.413559  0  3.57587  0  0  -0.437906  0  3.582062  0  0  -0.310347  -0.396814  0  3.571437  0
N  N120  1  0.77357411  0.97610376  0.10540541  1  0  -0.60565  0  2.762986  0  0  -0.566676  0  3.029698  0  0  -0.585831  0  3.034923  0  0  -0.383168  -0.553805  0  3.02639  0
N  N121  1  0.22642450  0.47610576  0.39458997  1  0  -0.60575  0  2.762614  0  0  -0.566766  0  3.029318  0  0  -0.585929  0  3.034551  0  0  -0.383166  -0.553891  0  3.026008  0
N  N122  1  0.22642131  0.02389231  0.89459416  1  0  -0.605605  0  2.763241  0  0  -0.566636  0  3.029949  0  0  -0.585793  0  3.035176  0  0  -0.383106  -0.553766  0  3.026642  0
N  N123  1  0.77358032  0.52390584  0.60540578  1  0  -0.605667  0  2.762891  0  0  -0.566688  0  3.029583  0  0  -0.585848  0  3.034815  0  0  -0.383115  -0.553814  0  3.026273  0
N  N124  1  0.22642849  0.90430716  0.69696012  1  0  -0.350725  0  3.251326  0  0  -0.283663  0  3.515203  0  0  -0.301989  0  3.533011  0  0  -0.320264  -0.270372  0  3.502404  0
N  N125  1  0.77357376  0.40430498  0.80303778  1  0  -0.350671  0  3.251274  0  0  -0.283568  0  3.515142  0  0  -0.301893  0  3.53294  0  0  -0.320206  -0.270276  0  3.502339  0
N  N126  1  0.77357621  0.09569439  0.30303833  1  0  -0.350607  0  3.251351  0  0  -0.283516  0  3.515196  0  0  -0.301841  0  3.533001  0  0  -0.320247  -0.270225  0  3.502392  0
N  N127  1  0.22642267  0.59569474  0.19696190  1  0  -0.350684  0  3.251321  0  0  -0.28356  0  3.515144  0  0  -0.301885  0  3.532943  0  0  -0.320229  -0.270267  0  3.502334  0
N  N128  1  0.14241856  0.14495024  0.68940671  1  0  -0.358572  0  3.265654  0  0  -0.288228  0  3.533573  0  0  -0.307174  0  3.551654  0  0  -0.324772  -0.275239  0  3.520362  0
N  N129  1  0.85758109  0.64494524  0.81059685  1  0  -0.358717  0  3.265797  0  0  -0.288368  0  3.533691  0  0  -0.307312  0  3.551773  0  0  -0.324853  -0.275379  0  3.52048  0
N  N130  1  0.85758601  0.85505131  0.31059511  1  0  -0.35855  0  3.265836  0  0  -0.288236  0  3.533707  0  0  -0.307186  0  3.551796  0  0  -0.324785  -0.275245  0  3.520496  0
N  N131  1  0.14241626  0.35505448  0.18940562  1  0  -0.358627  0  3.265874  0  0  -0.2883  0  3.533776  0  0  -0.307248  0  3.551863  0  0  -0.324849  -0.27531  0  3.520566  0
