# generated using pymatgen
data_TbH18C28S3N3O8
_symmetry_space_group_name_H-M   'P 1'
_cell_length_a   8.48789778
_cell_length_b   15.07038321
_cell_length_c   28.88371875
_cell_angle_alpha   89.99976214
_cell_angle_beta   91.90144980
_cell_angle_gamma   90.00474973
_symmetry_Int_Tables_number   1
_chemical_formula_structural   TbH18C28S3N3O8
_chemical_formula_sum   'Tb4 H72 C112 S12 N12 O32'
_cell_volume   3692.65168171
_cell_formula_units_Z   4
loop_
 _symmetry_equiv_pos_site_id
 _symmetry_equiv_pos_as_xyz
  1  'x, y, z'
loop_
 _atom_site_type_symbol
 _atom_site_label
 _atom_site_symmetry_multiplicity
 _atom_site_fract_x
 _atom_site_fract_y
 _atom_site_fract_z
 _atom_site_occupancy
 _atom_site_pbe_bader_charge
 _atom_site_pbe_bader_spin_density
 _atom_site_pbe_cm5_charge
 _atom_site_pbe_ddec_charge
 _atom_site_pbe_ddec_spin_density
 _atom_site_pbe_ddec_sum_bond_order
 _atom_site_pbe_magmom
Tb  Tb0  1  0.77592985  0.99833798  0.71617386  1  2.124428  0  1.423567  1.922754  0  2.252407  0
Tb  Tb1  1  0.27584660  0.50164372  0.21613058  1  2.12423  0  1.423462  1.922406  0  2.253141  0
Tb  Tb2  1  0.72414861  0.49835909  0.78386847  1  2.124167  0  1.4235  1.922586  0  2.252909  0
Tb  Tb3  1  0.22408182  0.00166151  0.28382610  1  2.1244  0  1.423506  1.922649  0  2.252507  0
H  H4  1  0.56695533  0.84521062  0.58034163  1  0.094991  0  0.110579  0.121341  0  0.981637  0
H  H5  1  0.44240171  0.71390752  0.53953315  1  0.107117  0  0.10662  0.108691  0  1.009686  0
H  H6  1  0.28766424  0.61493368  0.66978917  1  0.10116  0  0.104566  0.108498  0  1.026635  0
H  H7  1  0.40612706  0.74753191  0.71036965  1  0.108422  0  0.102125  0.107726  0  1.024438  0
H  H8  1  0.43808175  0.59744505  0.45756446  1  0.087784  0  0.104481  0.107496  0  1.007533  0
H  H9  1  0.45977466  0.58709462  0.37107260  1  0.093031  0  0.101421  0.104099  0  1.012339  0
H  H10  1  0.08310015  0.39660869  0.36585620  1  0.074643  0  0.097507  0.096818  0  1.030204  0
H  H11  1  0.07760180  0.39717472  0.45259382  1  0.071697  0  0.104884  0.109089  0  1.004079  0
H  H12  1  0.07787963  0.28711593  0.54436666  1  0.11307  0  0.105504  0.107645  0  1.009789  0
H  H13  1  0.96369789  0.15905969  0.58801919  1  0.11106  0  0.109731  0.120295  0  0.988069  0
H  H14  1  0.00280955  0.31006289  0.71441673  1  0.136835  0  0.103533  0.117156  0  1.019069  0
H  H15  1  0.11122972  0.43776106  0.67059190  1  0.119112  0  0.104848  0.106962  0  1.032098  0
H  H16  1  0.18570649  0.08452977  0.73531463  1  0.090453  0  0.10894  0.175815  0  0.98821  0
H  H17  1  0.37106399  0.02818223  0.74973126  1  0.108053  0  0.113664  0.188184  0  1.001182  0
H  H18  1  0.19152848  0.99891980  0.77841693  1  0.124784  0  0.11332  0.18118  0  0.990396  0
H  H19  1  0.23615984  0.94746848  0.62351625  1  0.097614  0  0.11164  0.173645  0  0.966011  0
H  H20  1  0.36939953  0.01980539  0.65585143  1  0.127757  0  0.111042  0.180545  0  1.01148  0
H  H21  1  0.16380968  0.04960834  0.64695865  1  0.11534  0  0.110908  0.174543  0  0.998233  0
H  H22  1  0.06680204  0.65478131  0.08033453  1  0.095663  0  0.110544  0.121334  0  0.981354  0
H  H23  1  0.94225319  0.78608968  0.03953833  1  0.107152  0  0.106646  0.108544  0  1.009793  0
H  H24  1  0.78777308  0.88507564  0.16981327  1  0.101068  0  0.104463  0.108191  0  1.02715  0
H  H25  1  0.90626067  0.75248553  0.21038531  1  0.107333  0  0.102117  0.107918  0  1.024333  0
H  H26  1  0.93812219  0.90259275  0.95760247  1  0.086458  0  0.104692  0.107649  0  1.007607  0
H  H27  1  0.95984858  0.91296309  0.87110967  1  0.093734  0  0.101469  0.104099  0  1.012581  0
H  H28  1  0.58308233  0.10335753  0.86587626  1  0.074744  0  0.097551  0.097043  0  1.029552  0
H  H29  1  0.57756956  0.10278358  0.95261783  1  0.07146  0  0.104976  0.109266  0  1.004269  0
H  H30  1  0.57782885  0.21284860  0.04436049  1  0.112839  0  0.105594  0.107643  0  1.009942  0
H  H31  1  0.46360461  0.34089562  0.08799702  1  0.112292  0  0.109746  0.120455  0  0.987941  0
H  H32  1  0.50283874  0.18996859  0.21441584  1  0.06975  0  0.103577  0.117239  0  1.019075  0
H  H33  1  0.61128692  0.06226649  0.17060615  1  0.119212  0  0.104774  0.1068  0  1.032554  0
H  H34  1  0.68559756  0.41543462  0.23524950  1  0.089405  0  0.109004  0.17603  0  0.988733  0
H  H35  1  0.87095531  0.47178030  0.24966985  1  0.109174  0  0.11354  0.188134  0  1.001169  0
H  H36  1  0.69143108  0.50102953  0.27835472  1  0.125877  0  0.11328  0.181217  0  0.990525  0
H  H37  1  0.73605846  0.55249663  0.12345633  1  0.097454  0  0.111645  0.173539  0  0.965743  0
H  H38  1  0.86936864  0.48021392  0.15579383  1  0.127641  0  0.111171  0.180296  0  1.011739  0
H  H39  1  0.66380672  0.45033225  0.14691221  1  0.114929  0  0.110891  0.174503  0  0.99856  0
H  H40  1  0.93315553  0.34520956  0.91966193  1  0.095187  0  0.110514  0.121231  0  0.981363  0
H  H41  1  0.05772078  0.21390583  0.96046077  1  0.107154  0  0.106591  0.108456  0  1.009771  0
H  H42  1  0.21227385  0.11493778  0.83018960  1  0.100822  0  0.104476  0.108321  0  1.026907  0
H  H43  1  0.09378165  0.24752524  0.78961507  1  0.107826  0  0.10212  0.107904  0  1.02441  0
H  H44  1  0.06188828  0.09740873  0.04239817  1  0.086546  0  0.104671  0.107584  0  1.007695  0
H  H45  1  0.04014303  0.08703971  0.12889072  1  0.093643  0  0.10145  0.10403  0  1.012526  0
H  H46  1  0.41687042  0.89662072  0.13412256  1  0.074911  0  0.097539  0.096923  0  1.029811  0
H  H47  1  0.42241140  0.89719932  0.04738310  1  0.071543  0  0.10495  0.10913  0  1.004272  0
H  H48  1  0.42215124  0.78715952  0.95563351  1  0.113012  0  0.105581  0.107602  0  1.009954  0
H  H49  1  0.53637300  0.65910851  0.91199971  1  0.110832  0  0.109746  0.120451  0  0.987888  0
H  H50  1  0.49718477  0.81004284  0.78558325  1  0.136819  0  0.103562  0.117227  0  1.019261  0
H  H51  1  0.38872733  0.93774959  0.82938901  1  0.118925  0  0.104719  0.106804  0  1.032467  0
H  H52  1  0.31440469  0.58457151  0.76475034  1  0.089481  0  0.108976  0.175905  0  0.98871  0
H  H53  1  0.12904944  0.52822384  0.75032656  1  0.10924  0  0.113587  0.188136  0  1.001132  0
H  H54  1  0.30857729  0.49898390  0.72164000  1  0.125691  0  0.113319  0.181165  0  0.990505  0
H  H55  1  0.26393609  0.44746504  0.87653094  1  0.097464  0  0.111681  0.173698  0  0.966  0
H  H56  1  0.13064307  0.51976633  0.84420544  1  0.127728  0  0.111147  0.180359  0  1.011752  0
H  H57  1  0.33620360  0.54963274  0.85309154  1  0.115555  0  0.110833  0.174464  0  0.998683  0
H  H58  1  0.43306223  0.15478555  0.41965876  1  0.094817  0  0.110586  0.121373  0  0.981647  0
H  H59  1  0.55759931  0.28609197  0.46046771  1  0.107023  0  0.106689  0.108807  0  1.009752  0
H  H60  1  0.71232253  0.38507775  0.33021392  1  0.10125  0  0.104611  0.108451  0  1.026682  0
H  H61  1  0.59387390  0.25247886  0.28963259  1  0.108438  0  0.102049  0.107609  0  1.024611  0
H  H62  1  0.56191340  0.40256307  0.54243562  1  0.087866  0  0.104493  0.107564  0  1.007559  0
H  H63  1  0.54021342  0.41290885  0.62892739  1  0.092877  0  0.101408  0.104094  0  1.012519  0
H  H64  1  0.91689005  0.60339080  0.63414936  1  0.074189  0  0.097504  0.096866  0  1.030171  0
H  H65  1  0.92240141  0.60282809  0.54741088  1  0.071769  0  0.104901  0.109096  0  1.004069  0
H  H66  1  0.92217426  0.71288091  0.45563872  1  0.112947  0  0.105542  0.107721  0  1.009561  0
H  H67  1  0.03636082  0.84093184  0.41198384  1  0.110637  0  0.109732  0.120312  0  0.98785  0
H  H68  1  0.99719724  0.68993063  0.28558698  1  0.136952  0  0.103577  0.117162  0  1.019004  0
H  H69  1  0.88875933  0.56223976  0.32941295  1  0.119224  0  0.104821  0.106931  0  1.032162  0
H  H70  1  0.81431579  0.91547569  0.26468549  1  0.090628  0  0.108951  0.175809  0  0.988294  0
H  H71  1  0.62895260  0.97181195  0.25026427  1  0.108231  0  0.113704  0.188158  0  1.001197  0
H  H72  1  0.80849155  0.00107837  0.22158073  1  0.124749  0  0.113254  0.181084  0  0.990424  0
H  H73  1  0.76382493  0.05254295  0.37647885  1  0.097377  0  0.111612  0.173563  0  0.966035  0
H  H74  1  0.63060537  0.98019542  0.34414187  1  0.127853  0  0.111051  0.180573  0  1.011456  0
H  H75  1  0.83620328  0.95040575  0.35303891  1  0.115455  0  0.110852  0.174452  0  0.998121  0
C  C76  1  0.57187605  0.88128625  0.67063850  1  1.514614  0  0.173656  0.529066  0  4.296678  0
C  C77  1  0.49128632  0.80456724  0.64740214  1  -0.021893  0  -0.019411  -0.034922  0  4.000534  0
C  C78  1  0.50280557  0.79507300  0.59929335  1  -0.102066  0  -0.082677  -0.093846  0  3.966406  0
C  C79  1  0.43526087  0.72242583  0.57683774  1  -0.01215  0  -0.079844  -0.096256  0  3.958049  0
C  C80  1  0.35779442  0.65711374  0.60236933  1  0.014476  0  -0.002967  0.012463  0  3.958488  0
C  C81  1  0.34636757  0.66659935  0.65049531  1  -0.04971  0  -0.080187  -0.093291  0  3.940326  0
C  C82  1  0.41161970  0.74033867  0.67292178  1  -0.050763  0  -0.085846  -0.109576  0  3.996456  0
C  C83  1  0.29286198  0.57829095  0.57814258  1  1.090331  0  0.258588  0.377584  0  4.031754  0
C  C84  1  0.24633368  0.50289077  0.51084272  1  1.091407  0  0.258435  0.380504  0  4.034944  0
C  C85  1  0.17302002  0.44343105  0.57926489  1  1.061554  0  0.257439  0.376196  0  4.027635  0
C  C86  1  0.25704819  0.49760810  0.46001186  1  -0.003684  0  -0.002624  0.012518  0  3.957429  0
C  C87  1  0.36373858  0.55222502  0.43711141  1  -0.049898  0  -0.081168  -0.097619  0  3.9536  0
C  C88  1  0.37448335  0.54727544  0.38931754  1  -0.041705  0  -0.081585  -0.088125  0  3.961494  0
C  C89  1  0.27332057  0.49101333  0.36357473  1  -0.02328  0  -0.010687  -0.011917  0  3.950778  0
C  C90  1  0.16470400  0.43781106  0.38629765  1  -0.015116  0  -0.084028  -0.093777  0  3.976743  0
C  C91  1  0.15950567  0.43920876  0.43433011  1  0.014261  0  -0.082473  -0.099346  0  3.95593  0
C  C92  1  0.28032912  0.48980679  0.31212454  1  1.494315  0  0.18707  0.564981  0  4.231317  0
C  C93  1  0.10415841  0.36923682  0.60512692  1  -0.069384  0  -0.003677  0.009007  0  3.963938  0
C  C94  1  0.06126092  0.29090290  0.58153392  1  -0.034554  0  -0.082072  -0.098535  0  3.967635  0
C  C95  1  0.99900715  0.22019286  0.60563069  1  -0.08743  0  -0.084008  -0.096083  0  3.974158  0
C  C96  1  0.97985743  0.22615284  0.65364703  1  -0.002982  0  -0.019564  -0.031366  0  3.993961  0
C  C97  1  0.02081547  0.30455801  0.67729433  1  -0.06794  0  -0.084715  -0.097941  0  3.951292  0
C  C98  1  0.08188708  0.37582181  0.65300589  1  -0.020224  0  -0.079446  -0.096458  0  3.947327  0
C  C99  1  0.91363065  0.14769469  0.67779015  1  1.479328  0  0.171161  0.527513  0  4.297133  0
C  C100  1  0.24249613  0.02218418  0.74619194  1  -0.223285  0  -0.224836  -0.509319  0  3.752781  0
C  C101  1  0.24823279  0.99516080  0.65204432  1  -0.258285  0  -0.22239  -0.492919  0  3.755769  0
C  C102  1  0.66727681  0.33126065  0.76521701  1  -0.022514  0  -0.055147  -0.20617  0  3.055981  0
C  C103  1  0.61128142  0.25571336  0.74090279  1  -0.540026  0  0.003352  -0.074975  0  4.054778  0
C  C104  1  0.07180834  0.61869420  0.17062432  1  1.513708  0  0.173542  0.528597  0  4.297065  0
C  C105  1  0.99125744  0.69543550  0.14740010  1  -0.02166  0  -0.019412  -0.034399  0  3.999609  0
C  C106  1  0.00270815  0.70492381  0.09929109  1  -0.155851  0  -0.082774  -0.094204  0  3.966286  0
C  C107  1  0.93516053  0.77756861  0.07684394  1  0.041693  0  -0.079797  -0.095943  0  3.958187  0
C  C108  1  0.85775895  0.84288226  0.10238946  1  0.015965  0  -0.003316  0.012268  0  3.958842  0
C  C109  1  0.84642511  0.83340817  0.15051291  1  -0.050379  0  -0.079947  -0.092818  0  3.941009  0
C  C110  1  0.91166018  0.75967281  0.17293478  1  -0.050105  0  -0.085746  -0.109976  0  3.996088  0
C  C111  1  0.79281968  0.92170178  0.07816491  1  1.09058  0  0.258567  0.377099  0  4.032321  0
C  C112  1  0.74628652  0.99708742  0.01086416  1  1.09091  0  0.258443  0.380315  0  4.03576  0
C  C113  1  0.67300443  0.05655787  0.07927850  1  1.062001  0  0.257368  0.375992  0  4.027592  0
C  C114  1  0.75703111  0.00238199  0.96003694  1  -0.00452  0  -0.0022  0.013396  0  3.956264  0
C  C115  1  0.86378041  0.94779444  0.93714210  1  -0.04799  0  -0.081453  -0.098178  0  3.953299  0
C  C116  1  0.87452944  0.95274839  0.88934897  1  -0.040445  0  -0.081708  -0.088042  0  3.961886  0
C  C117  1  0.77335022  0.00897799  0.86360598  1  -0.027054  0  -0.010495  -0.011491  0  3.950998  0
C  C118  1  0.66471611  0.06216851  0.88632407  1  -0.012834  0  -0.084086  -0.094239  0  3.975529  0
C  C119  1  0.65948103  0.06076469  0.93435603  1  0.014462  0  -0.082778  -0.09985  0  3.955256  0
C  C120  1  0.78035633  0.01017882  0.81216164  1  1.493817  0  0.186768  0.564382  0  4.23024  0
C  C121  1  0.60413811  0.13076464  0.10513238  1  -0.067961  0  -0.003725  0.009192  0  3.963409  0
C  C122  1  0.56121086  0.20907239  0.08152499  1  -0.036627  0  -0.0819  -0.098328  0  3.967289  0
C  C123  1  0.49895012  0.27977974  0.10561604  1  -0.088228  0  -0.084303  -0.096548  0  3.973692  0
C  C124  1  0.47980889  0.27383160  0.15363285  1  -0.002092  0  -0.01963  -0.031452  0  3.994081  0
C  C125  1  0.52081246  0.19545613  0.17729403  1  -0.002074  0  -0.084626  -0.097673  0  3.951226  0
C  C126  1  0.58190098  0.12419402  0.15301494  1  -0.019563  0  -0.079473  -0.096692  0  3.947276  0
C  C127  1  0.41352188  0.35228784  0.17775806  1  1.476893  0  0.171545  0.527794  0  4.296829  0
C  C128  1  0.74240012  0.47777332  0.24613173  1  -0.224113  0  -0.224633  -0.509619  0  3.753459  0
C  C129  1  0.74818058  0.50481314  0.15198654  1  -0.257944  0  -0.222389  -0.492411  0  3.755936  0
C  C130  1  0.16728380  0.16876892  0.26515529  1  -0.023814  0  -0.055015  -0.206033  0  3.05608  0
C  C131  1  0.11128808  0.24431997  0.24084509  1  -0.538015  0  0.003253  -0.075431  0  4.05472  0
C  C132  1  0.92819281  0.38130197  0.82937343  1  1.513898  0  0.173585  0.528859  0  4.296866  0
C  C133  1  0.00873901  0.30456665  0.85259758  1  -0.021831  0  -0.019504  -0.034693  0  4.000166  0
C  C134  1  0.99726823  0.29507236  0.90070701  1  -0.155468  0  -0.082613  -0.093896  0  3.966007  0
C  C135  1  0.06482882  0.22242889  0.92315399  1  0.041646  0  -0.07982  -0.095907  0  3.958105  0
C  C136  1  0.14224789  0.15711988  0.89761321  1  0.015898  0  -0.003356  0.012138  0  3.958956  0
C  C137  1  0.15360533  0.16659994  0.84948939  1  -0.049304  0  -0.079895  -0.092833  0  3.940767  0
C  C138  1  0.08835847  0.24033597  0.82706736  1  -0.051123  0  -0.085721  -0.109923  0  3.99643  0
C  C139  1  0.20718368  0.07830301  0.92183633  1  1.090745  0  0.258589  0.377123  0  4.032213  0
C  C140  1  0.25370045  0.00291008  0.98913443  1  1.090817  0  0.258422  0.380232  0  4.035792  0
C  C141  1  0.32698849  0.94344627  0.92071878  1  1.061414  0  0.257283  0.375845  0  4.027343  0
C  C142  1  0.24295702  0.99761219  0.03996201  1  -0.004465  0  -0.002326  0.013158  0  3.956408  0
C  C143  1  0.13622311  0.05220040  0.06285568  1  -0.048159  0  -0.081471  -0.098156  0  3.953642  0
C  C144  1  0.12545758  0.04724181  0.11064824  1  -0.042862  0  -0.081582  -0.08786  0  3.961734  0
C  C145  1  0.22662608  0.99100359  0.13639385  1  -0.023847  0  -0.010649  -0.011767  0  3.951029  0
C  C146  1  0.33525545  0.93781108  0.11367604  1  -0.013344  0  -0.084117  -0.093982  0  3.975673  0
C  C147  1  0.34048933  0.93921821  0.06564475  1  0.014046  0  -0.082659  -0.0996  0  3.955108  0
C  C148  1  0.21961634  0.98980541  0.18784022  1  1.493918  0  0.187021  0.564772  0  4.229784  0
C  C149  1  0.39585716  0.86923883  0.89486529  1  -0.06811  0  -0.003828  0.009049  0  3.963402  0
C  C150  1  0.43877026  0.79093307  0.91847248  1  -0.036596  0  -0.081881  -0.098129  0  3.967196  0
C  C151  1  0.50104033  0.72022837  0.89438364  1  -0.086646  0  -0.08432  -0.096699  0  3.973538  0
C  C152  1  0.52018400  0.72617452  0.84636513  1  -0.002351  0  -0.019581  -0.031145  0  3.993627  0
C  C153  1  0.47920176  0.80455132  0.82270182  1  -0.068895  0  -0.084598  -0.09783  0  3.951228  0
C  C154  1  0.41810962  0.87581277  0.84698258  1  -0.019438  0  -0.079437  -0.096678  0  3.947121  0
C  C155  1  0.58644872  0.64771430  0.82223719  1  1.479924  0  0.171303  0.52738  0  4.29704  0
C  C156  1  0.25760699  0.52223281  0.75386471  1  -0.224236  0  -0.224686  -0.509399  0  3.753375  0
C  C157  1  0.25181930  0.49516512  0.84801326  1  -0.258914  0  -0.222324  -0.492536  0  3.756196  0
C  C158  1  0.83271453  0.83123323  0.73485280  1  -0.023771  0  -0.054902  -0.205846  0  3.055777  0
C  C159  1  0.88870326  0.75567487  0.75916117  1  -0.537509  0  0.00314  -0.075539  0  4.054494  0
C  C160  1  0.42812971  0.11871390  0.32936173  1  1.514675  0  0.173613  0.528982  0  4.296578  0
C  C161  1  0.50873010  0.19543889  0.35259719  1  -0.02188  0  -0.019386  -0.034609  0  3.999964  0
C  C162  1  0.49720246  0.20492848  0.40070899  1  -0.101686  0  -0.082659  -0.094009  0  3.966294  0
C  C163  1  0.56474711  0.27757698  0.42316564  1  -0.01231  0  -0.079953  -0.09637  0  3.958223  0
C  C164  1  0.64219587  0.34289173  0.39763415  1  0.014353  0  -0.003061  0.012376  0  3.958552  0
C  C165  1  0.65362515  0.33340810  0.34950648  1  -0.04875  0  -0.080241  -0.093239  0  3.940367  0
C  C166  1  0.58838717  0.25967011  0.32708020  1  -0.051701  0  -0.085721  -0.109491  0  3.996715  0
C  C167  1  0.70712480  0.42171650  0.42186017  1  1.09023  0  0.25863  0.377592  0  4.031706  0
C  C168  1  0.75366374  0.49711336  0.48915948  1  1.091427  0  0.258325  0.380449  0  4.035217  0
C  C169  1  0.82697732  0.55657441  0.42073903  1  1.062045  0  0.257365  0.376179  0  4.027522  0
C  C170  1  0.74294088  0.50239404  0.53999230  1  -0.004033  0  -0.002493  0.012669  0  3.95759  0
C  C171  1  0.63625178  0.44777845  0.56289034  1  -0.049626  0  -0.081313  -0.097999  0  3.954043  0
C  C172  1  0.62550235  0.45272869  0.61068311  1  -0.041841  0  -0.081466  -0.087921  0  3.961547  0
C  C173  1  0.72666986  0.50898815  0.63642563  1  -0.023128  0  -0.010822  -0.011832  0  3.950744  0
C  C174  1  0.83528391  0.56218843  0.61370615  1  -0.014769  0  -0.084072  -0.093977  0  3.976804  0
C  C175  1  0.84048579  0.56079404  0.56567339  1  0.014251  0  -0.082448  -0.099234  0  3.955794  0
C  C176  1  0.71965655  0.51019138  0.68787680  1  1.493583  0  0.186995  0.564462  0  4.231857  0
C  C177  1  0.89585901  0.63076598  0.39487624  1  -0.069545  0  -0.0039  0.008785  0  3.963953  0
C  C178  1  0.93878239  0.70909460  0.41847063  1  -0.034824  0  -0.081906  -0.098429  0  3.966888  0
C  C179  1  0.00103973  0.77980133  0.39437322  1  -0.086535  0  -0.084036  -0.096051  0  3.97363  0
C  C180  1  0.02017064  0.77383869  0.34635558  1  -0.003258  0  -0.019623  -0.031536  0  3.994032  0
C  C181  1  0.97919961  0.69543551  0.32270845  1  -0.068037  0  -0.084719  -0.097836  0  3.951041  0
C  C182  1  0.91812203  0.62417768  0.34699854  1  -0.020204  0  -0.079381  -0.096408  0  3.947493  0
C  C183  1  0.08637392  0.85230215  0.32221041  1  1.479745  0  0.17123  0.527608  0  4.297076  0
C  C184  1  0.75752037  0.97781730  0.25380567  1  -0.2236  0  -0.224782  -0.509179  0  3.752852  0
C  C185  1  0.75176729  0.00484732  0.34795133  1  -0.258615  0  -0.222373  -0.492789  0  3.75554  0
C  C186  1  0.33274420  0.66874945  0.23478516  1  -0.023466  0  -0.055165  -0.20629  0  3.055786  0
C  C187  1  0.38875040  0.74430404  0.25909503  1  -0.538907  0  0.003532  -0.074689  0  4.05421  0
S  S188  1  0.19773094  0.93722520  0.70415726  1  1.15381  0  0.324403  0.741287  0  3.929867  0
S  S189  1  0.55162494  0.21115009  0.69153283  1  1.358061  0  0.309803  0.479613  0  3.531705  0
S  S190  1  0.67922372  0.23053403  0.79580297  1  0.376776  0  0.220879  0.348186  0  2.552735  0
S  S191  1  0.69767826  0.56274719  0.20409868  1  1.153316  0  0.324172  0.741323  0  3.928842  0
S  S192  1  0.05154556  0.28887919  0.19149536  1  1.356709  0  0.309887  0.479876  0  3.531871  0
S  S193  1  0.17933168  0.26947779  0.29572929  1  0.378412  0  0.221086  0.348653  0  2.554067  0
S  S194  1  0.30232335  0.43724567  0.79588903  1  1.153784  0  0.324152  0.74112  0  3.928803  0
S  S195  1  0.94845981  0.71110969  0.80851352  1  1.356461  0  0.309788  0.4797  0  3.531429  0
S  S196  1  0.82063357  0.73051772  0.70428008  1  0.378545  0  0.221186  0.348715  0  2.5539  0
S  S197  1  0.80227388  0.06278026  0.29583777  1  1.153957  0  0.324345  0.741254  0  3.929762  0
S  S198  1  0.44840336  0.78887129  0.30846459  1  1.358493  0  0.309685  0.479575  0  3.531161  0
S  S199  1  0.32078323  0.76947076  0.20419728  1  0.376888  0  0.220896  0.348212  0  2.553028  0
N  N200  1  0.30511586  0.57576336  0.53186538  1  -1.197979  0  -0.30844  -0.415311  0  3.236398  0
N  N201  1  0.17910599  0.43492869  0.53294147  1  -1.177698  0  -0.310184  -0.417031  0  3.220097  0
N  N202  1  0.22750773  0.51398905  0.60344745  1  -1.205916  0  -0.305687  -0.410325  0  3.230464  0
N  N203  1  0.80505504  0.92422981  0.03188849  1  -1.197877  0  -0.308618  -0.415112  0  3.237208  0
N  N204  1  0.67905635  0.06505242  0.03295460  1  -1.177573  0  -0.310018  -0.41701  0  3.220285  0
N  N205  1  0.72750131  0.98601241  0.10346912  1  -1.209145  0  -0.305555  -0.409926  0  3.230193  0
N  N206  1  0.19496012  0.07577366  0.96811256  1  -1.197867  0  -0.308629  -0.415085  0  3.237089  0
N  N207  1  0.32093068  0.93494707  0.96704260  1  -1.177363  0  -0.309961  -0.416892  0  3.220112  0
N  N208  1  0.27249506  0.01399438  0.89653029  1  -1.208735  0  -0.30543  -0.409679  0  3.230024  0
N  N209  1  0.69487329  0.42424542  0.46813705  1  -1.197594  0  -0.308415  -0.415252  0  3.236518  0
N  N210  1  0.82089960  0.56507345  0.46706256  1  -1.177934  0  -0.310103  -0.417097  0  3.220383  0
N  N211  1  0.77247316  0.48602039  0.39655521  1  -1.206282  0  -0.30564  -0.410276  0  3.230355  0
O  O212  1  0.68207237  0.92014518  0.64951148  1  -1.156507  0  -0.386706  -0.597486  0  2.186685  0
O  O213  1  0.53528557  0.90547502  0.71156935  1  -1.175027  0  -0.372101  -0.645888  0  2.276602  0
O  O214  1  0.40256754  0.51899269  0.29263301  1  -1.167388  0  -0.376918  -0.618417  0  2.218887  0
O  O215  1  0.16142023  0.46020119  0.28794233  1  -1.188534  0  -0.395408  -0.652267  0  2.246279  0
O  O216  1  0.85994312  0.08374902  0.65286990  1  -1.167  0  -0.392578  -0.610033  0  2.228256  0
O  O217  1  0.91094409  0.14405809  0.72221604  1  -1.152966  0  -0.382596  -0.646823  0  2.214129  0
O  O218  1  0.01700263  0.93282051  0.70006088  1  -1.184959  0  -0.415046  -0.635338  0  2.333976  0
O  O219  1  0.55380307  0.11096090  0.69468294  1  -1.185015  0  -0.318625  -0.500154  0  2.270955  0
O  O220  1  0.18193123  0.57981721  0.14947594  1  -1.15599  0  -0.386675  -0.597328  0  2.186768  0
O  O221  1  0.03525885  0.59450132  0.21155750  1  -1.174778  0  -0.37196  -0.645444  0  2.276756  0
O  O222  1  0.90257524  0.98097184  0.79267080  1  -1.166694  0  -0.376984  -0.618089  0  2.218594  0
O  O223  1  0.66146663  0.03978538  0.78796891  1  -1.187982  0  -0.395299  -0.652166  0  2.24521  0
O  O224  1  0.35984567  0.41622744  0.15283127  1  -1.164117  0  -0.392841  -0.61029  0  2.22858  0
O  O225  1  0.41079806  0.35593639  0.22218585  1  -1.153238  0  -0.382664  -0.646793  0  2.214073  0
O  O226  1  0.51695427  0.56714719  0.19999992  1  -1.184379  0  -0.414924  -0.635304  0  2.333224  0
O  O227  1  0.05375015  0.38906711  0.19463630  1  -1.186204  0  -0.318936  -0.500344  0  2.270888  0
O  O228  1  0.81807001  0.42017962  0.85052008  1  -1.155922  0  -0.386694  -0.597472  0  2.186587  0
O  O229  1  0.96474230  0.40549418  0.78844060  1  -1.174909  0  -0.371977  -0.645576  0  2.276705  0
O  O230  1  0.09741275  0.01902102  0.20733127  1  -1.166965  0  -0.377006  -0.618105  0  2.218507  0
O  O231  1  0.33850736  0.96018823  0.21202985  1  -1.18781  0  -0.395335  -0.652299  0  2.244896  0
O  O232  1  0.64010491  0.58377072  0.84716336  1  -1.16714  0  -0.392736  -0.61022  0  2.228645  0
O  O233  1  0.58918323  0.64406973  0.77780781  1  -1.153323  0  -0.382488  -0.646562  0  2.213794  0
O  O234  1  0.48304827  0.43284367  0.79999334  1  -1.184435  0  -0.414905  -0.635201  0  2.333218  0
O  O235  1  0.94622827  0.61092043  0.80536875  1  -1.186657  0  -0.318955  -0.500319  0  2.270785  0
O  O236  1  0.31793328  0.07985763  0.35049117  1  -1.156406  0  -0.386633  -0.597458  0  2.186666  0
O  O237  1  0.46472251  0.09452580  0.28843195  1  -1.175061  0  -0.372096  -0.645905  0  2.276771  0
O  O238  1  0.59743474  0.48099087  0.70736613  1  -1.167032  0  -0.376827  -0.618097  0  2.219188  0
O  O239  1  0.83855369  0.53980759  0.71205781  1  -1.188189  0  -0.395355  -0.652148  0  2.246592  0
O  O240  1  0.14002384  0.91625976  0.34712772  1  -1.167376  0  -0.392687  -0.610177  0  2.228386  0
O  O241  1  0.08908528  0.85592945  0.27778382  1  -1.152936  0  -0.382552  -0.64679  0  2.214092  0
O  O242  1  0.98299973  0.06718827  0.29993654  1  -1.184668  0  -0.414946  -0.635262  0  2.333937  0
O  O243  1  0.44619919  0.88906049  0.30531655  1  -1.185819  0  -0.318652  -0.500256  0  2.270694  0
