# generated using pymatgen
data_CdH10C12(N3O)4
_symmetry_space_group_name_H-M   'P 1'
_cell_length_a   10.03326473
_cell_length_b   12.53062996
_cell_length_c   15.34884172
_cell_angle_alpha   90.00002950
_cell_angle_beta   89.99995415
_cell_angle_gamma   89.99989125
_symmetry_Int_Tables_number   1
_chemical_formula_structural   CdH10C12(N3O)4
_chemical_formula_sum   'Cd4 H40 C48 N48 O16'
_cell_volume   1929.70438499
_cell_formula_units_Z   4
loop_
 _symmetry_equiv_pos_site_id
 _symmetry_equiv_pos_as_xyz
  1  'x, y, z'
loop_
 _atom_site_type_symbol
 _atom_site_label
 _atom_site_symmetry_multiplicity
 _atom_site_fract_x
 _atom_site_fract_y
 _atom_site_fract_z
 _atom_site_occupancy
 _atom_site_pbe_bader_charge
 _atom_site_pbe_bader_spin_density
 _atom_site_pbe_cm5_charge
 _atom_site_pbe_ddec_charge
 _atom_site_pbe_ddec_spin_density
 _atom_site_pbe_ddec_sum_bond_order
 _atom_site_pbe_magmom
Cd  Cd0  1  0.99999933  0.49999996  0.99999973  1  1.276782  0  0.779569  0.839477  0  2.228189  0
Cd  Cd1  1  0.49999987  0.50000018  0.49999992  1  1.276796  0  0.779576  0.839498  0  2.228158  0
Cd  Cd2  1  0.00000069  0.00000016  0.49999929  1  1.276783  0  0.779556  0.839465  0  2.228154  0
Cd  Cd3  1  0.50000115  0.00000073  0.99999976  1  1.276782  0  0.779575  0.839476  0  2.228137  0
H  H4  1  0.62991874  0.24026148  0.93223114  1  0.164224  0  0.13388  0.105019  0  1.001726  0
H  H5  1  0.87008153  0.75973861  0.43223124  1  0.164228  0  0.13389  0.105036  0  1.001727  0
H  H6  1  0.37008071  0.74026196  0.56776798  1  0.164229  0  0.133894  0.105018  0  1.001754  0
H  H7  1  0.12991748  0.25973866  0.06776865  1  0.164235  0  0.133896  0.105032  0  1.001742  0
H  H8  1  0.37007999  0.75973968  0.06776934  1  0.164184  0  0.133889  0.105035  0  1.001742  0
H  H9  1  0.12991720  0.24026095  0.56776859  1  0.164234  0  0.133899  0.105031  0  1.001754  0
H  H10  1  0.62991902  0.25973839  0.43223185  1  0.164219  0  0.133894  0.105014  0  1.001776  0
H  H11  1  0.87008125  0.74026170  0.93223118  1  0.16422  0  0.133887  0.105015  0  1.001738  0
H  H12  1  0.35072099  0.21816838  0.13531440  1  0.237732  0  0.139892  0.125128  0  1.044218  0
H  H13  1  0.14928011  0.78183229  0.63531386  1  0.237729  0  0.139902  0.125154  0  1.044207  0
H  H14  1  0.64927912  0.71816782  0.36468548  1  0.237728  0  0.139905  0.125207  0  1.043956  0
H  H15  1  0.85072024  0.28183143  0.86468528  1  0.237729  0  0.139917  0.125196  0  1.044018  0
H  H16  1  0.64927874  0.78183278  0.86468674  1  0.237736  0  0.139893  0.125111  0  1.044211  0
H  H17  1  0.85071962  0.21816807  0.36468532  1  0.237714  0  0.139917  0.125234  0  1.043954  0
H  H18  1  0.35072062  0.28183173  0.63531436  1  0.237732  0  0.139892  0.125199  0  1.043978  0
H  H19  1  0.14927849  0.71816813  0.13531390  1  0.23774  0  0.139895  0.125216  0  1.043978  0
H  H20  1  0.48911430  0.50777860  0.11064937  1  0.167448  0  0.150048  0.111349  0  0.967022  0
H  H21  1  0.01088583  0.49222125  0.61064944  1  0.167448  0  0.150046  0.111343  0  0.967055  0
H  H22  1  0.51088630  0.00777907  0.38935042  1  0.167448  0  0.150051  0.111493  0  0.966596  0
H  H23  1  0.98911402  0.99222099  0.88935044  1  0.167446  0  0.150048  0.111491  0  0.966584  0
H  H24  1  0.51088543  0.49222175  0.88935046  1  0.167447  0  0.15006  0.111345  0  0.967029  0
H  H25  1  0.98911390  0.50777831  0.38935040  1  0.167453  0  0.150041  0.111498  0  0.966572  0
H  H26  1  0.48911442  0.99222128  0.61064941  1  0.167447  0  0.150052  0.111496  0  0.966585  0
H  H27  1  0.01088671  0.00777857  0.11064939  1  0.167461  0  0.150063  0.111509  0  0.966592  0
H  H28  1  0.56960344  0.52805610  0.27011155  1  0.219524  0  0.146662  0.131403  0  0.996526  0
H  H29  1  0.93039703  0.47194309  0.77011204  1  0.219524  0  0.146662  0.131399  0  0.996533  0
H  H30  1  0.43039613  0.02805659  0.22988825  1  0.219522  0  0.146673  0.13141  0  0.99651  0
H  H31  1  0.06960387  0.97194333  0.72988783  1  0.219518  0  0.146674  0.131406  0  0.996512  0
H  H32  1  0.43039629  0.47194345  0.72988829  1  0.219529  0  0.146668  0.13141  0  0.996475  0
H  H33  1  0.06960270  0.52805647  0.22988780  1  0.219535  0  0.146661  0.131398  0  0.996543  0
H  H34  1  0.56960361  0.97194376  0.77011158  1  0.219525  0  0.146665  0.131401  0  0.996541  0
H  H35  1  0.93039985  0.02805703  0.27011070  1  0.219542  0  0.14667  0.131396  0  0.996548  0
H  H36  1  0.26926366  0.34492831  0.38842149  1  0.155905  0  0.135025  0.103872  0  0.993946  0
H  H37  1  0.23073614  0.65507172  0.88842151  1  0.155905  0  0.135024  0.103872  0  0.993934  0
H  H38  1  0.73073615  0.84492827  0.11157844  1  0.155905  0  0.135024  0.103874  0  0.99394  0
H  H39  1  0.76926351  0.15507162  0.61157823  1  0.155905  0  0.135022  0.103865  0  0.993958  0
H  H40  1  0.73073608  0.65507205  0.61157834  1  0.155904  0  0.135007  0.103867  0  0.993963  0
H  H41  1  0.76926359  0.34492784  0.11157832  1  0.155904  0  0.135002  0.10384  0  0.993973  0
H  H42  1  0.26926358  0.15507129  0.88842205  1  0.155899  0  0.135014  0.103866  0  0.993962  0
H  H43  1  0.23073722  0.84492794  0.38842096  1  0.15591  0  0.135003  0.103842  0  0.993973  0
C  C44  1  0.56320162  0.26157093  0.98494980  1  0.96504  0  0.142191  0.140388  0  3.984014  0
C  C45  1  0.93679859  0.73842920  0.48494920  1  0.96503  0  0.142168  0.140323  0  3.984012  0
C  C46  1  0.43679779  0.76157128  0.51505064  1  0.965017  0  0.14218  0.140903  0  3.982522  0
C  C47  1  0.06320147  0.23842851  0.01505068  1  0.96503  0  0.142165  0.14086  0  3.982526  0
C  C48  1  0.43679712  0.73842943  0.01505134  1  0.965026  0  0.14215  0.140346  0  3.984052  0
C  C49  1  0.06320114  0.26157036  0.51505063  1  0.965021  0  0.142164  0.140873  0  3.982546  0
C  C50  1  0.56320195  0.23842828  0.48494920  1  0.965036  0  0.142195  0.140921  0  3.982446  0
C  C51  1  0.93679826  0.76157105  0.98494915  1  0.965029  0  0.142178  0.140921  0  3.982501  0
C  C52  1  0.42198792  0.24809737  0.08818901  1  0.953686  0  0.16065  0.096989  0  3.87902  0
C  C53  1  0.07801224  0.75190247  0.58818915  1  0.953685  0  0.160608  0.09689  0  3.879082  0
C  C54  1  0.57801212  0.74809775  0.41181153  1  0.953709  0  0.160628  0.100802  0  3.881541  0
C  C55  1  0.92198718  0.25190233  0.91181128  1  0.95369  0  0.160626  0.100811  0  3.881618  0
C  C56  1  0.57801081  0.75190299  0.91181213  1  0.953722  0  0.160651  0.097009  0  3.879068  0
C  C57  1  0.92198749  0.24809709  0.41181134  1  0.953702  0  0.160636  0.100798  0  3.881469  0
C  C58  1  0.42198761  0.25190181  0.58818895  1  0.953694  0  0.160654  0.100843  0  3.881506  0
C  C59  1  0.07801255  0.74809723  0.08818855  1  0.953681  0  0.160643  0.100823  0  3.88152  0
C  C60  1  0.41537267  0.44575066  0.12519705  1  0.673751  0  0.135408  -0.006156  0  3.844366  0
C  C61  1  0.08462645  0.55425000  0.62519711  1  0.673751  0  0.135379  -0.006175  0  3.844475  0
C  C62  1  0.58462690  0.94575021  0.37480357  1  0.67373  0  0.135372  -0.00257  0  3.846064  0
C  C63  1  0.91537344  0.05424985  0.87480324  1  0.673728  0  0.13538  -0.002547  0  3.846091  0
C  C64  1  0.58462607  0.55424970  0.87480343  1  0.673741  0  0.135366  -0.006211  0  3.84449  0
C  C65  1  0.91537328  0.44575036  0.37480338  1  0.673736  0  0.135372  -0.002566  0  3.846099  0
C  C66  1  0.41537283  0.05424935  0.62519691  1  0.673721  0  0.135393  -0.002546  0  3.846035  0
C  C67  1  0.08462829  0.94574971  0.12519594  1  0.67376  0  0.135343  -0.002567  0  3.846024  0
C  C68  1  0.27642185  0.49125924  0.09609067  1  1.682971  0  0.199681  0.545093  0  4.294123  0
C  C69  1  0.22357831  0.50874140  0.59609128  1  1.68302  0  0.199674  0.545077  0  4.294185  0
C  C70  1  0.72357662  0.99125700  0.40390867  1  1.682982  0  0.199688  0.545293  0  4.293503  0
C  C71  1  0.77642369  0.00874307  0.90390905  1  1.683004  0  0.199666  0.545263  0  4.29355  0
C  C72  1  0.72357589  0.50874351  0.90390917  1  1.683017  0  0.199691  0.545144  0  4.293998  0
C  C73  1  0.77642342  0.49125656  0.40390920  1  1.682985  0  0.199682  0.545262  0  4.293494  0
C  C74  1  0.27642411  0.00874256  0.59609181  1  1.682972  0  0.199675  0.545259  0  4.293584  0
C  C75  1  0.22357903  0.99125888  0.09609014  1  1.682945  0  0.199684  0.545272  0  4.293628  0
C  C76  1  0.48385274  0.47683050  0.28094169  1  0.972883  0  0.171578  0.117155  0  3.880578  0
C  C77  1  0.01614719  0.52316946  0.78094177  1  0.972921  0  0.17156  0.117174  0  3.880602  0
C  C78  1  0.51614775  0.97683005  0.21905829  1  0.97293  0  0.171596  0.117198  0  3.880664  0
C  C79  1  0.98385278  0.02316910  0.71905791  1  0.972923  0  0.17159  0.117222  0  3.88066  0
C  C80  1  0.51614799  0.52317066  0.71905879  1  0.972901  0  0.171647  0.11725  0  3.880653  0
C  C81  1  0.98385154  0.47683010  0.21905872  1  0.972931  0  0.171649  0.117284  0  3.880742  0
C  C82  1  0.48385198  0.02316950  0.78094154  1  0.972927  0  0.171611  0.11721  0  3.880705  0
C  C83  1  0.01614995  0.97683045  0.28093997  1  0.972939  0  0.171647  0.117286  0  3.880694  0
C  C84  1  0.33133716  0.38200459  0.33905294  1  0.964869  0  0.147337  0.151715  0  3.976481  0
C  C85  1  0.16866270  0.61799540  0.83905298  1  0.964869  0  0.147336  0.151711  0  3.976455  0
C  C86  1  0.66866257  0.88200468  0.16094701  1  0.964871  0  0.147328  0.151691  0  3.97655  0
C  C87  1  0.83133704  0.11799524  0.66094740  1  0.964882  0  0.147352  0.151735  0  3.976561  0
C  C88  1  0.66866357  0.61799576  0.66094755  1  0.964883  0  0.147351  0.15165  0  3.976549  0
C  C89  1  0.83133703  0.38200416  0.16094751  1  0.96454  0  0.147373  0.151721  0  3.976616  0
C  C90  1  0.33133717  0.11799568  0.83905283  1  0.964876  0  0.147399  0.151729  0  3.976543  0
C  C91  1  0.16866469  0.88200432  0.33905243  1  0.964524  0  0.147372  0.151753  0  3.976538  0
N  N92  1  0.45983690  0.35073224  0.07943917  1  -0.837899  0  -0.129674  0.118798  0  3.756727  0
N  N93  1  0.04016327  0.64926759  0.57943929  1  -0.837919  0  -0.129654  0.118864  0  3.756742  0
N  N94  1  0.54016290  0.85073269  0.42056076  1  -0.83792  0  -0.129646  0.105807  0  3.774854  0
N  N95  1  0.95983639  0.14926740  0.92056110  1  -0.837919  0  -0.129659  0.105793  0  3.774854  0
N  N96  1  0.54016183  0.64926812  0.92056131  1  -0.837872  0  -0.129638  0.118878  0  3.756641  0
N  N97  1  0.95983646  0.35073197  0.42056055  1  -0.83791  0  -0.129669  0.105776  0  3.7747  0
N  N98  1  0.45983684  0.14926687  0.57943907  1  -0.837914  0  -0.129668  0.105751  0  3.774873  0
N  N99  1  0.04016433  0.85073216  0.07943874  1  -0.837913  0  -0.129651  0.105779  0  3.774774  0
N  N100  1  0.54992724  0.36100139  0.01338531  1  -0.689547  0  -0.218209  -0.253639  0  3.137694  0
N  N101  1  0.95007353  0.63899844  0.51338520  1  -0.689535  0  -0.218196  -0.253602  0  3.137658  0
N  N102  1  0.45007253  0.86100122  0.48661463  1  -0.68955  0  -0.218211  -0.249836  0  3.140857  0
N  N103  1  0.04992616  0.13899807  0.98661518  1  -0.689559  0  -0.21821  -0.249817  0  3.140834  0
N  N104  1  0.45007149  0.63899897  0.98661583  1  -0.689558  0  -0.21822  -0.253654  0  3.137655  0
N  N105  1  0.04992620  0.36100112  0.48661528  1  -0.689517  0  -0.218192  -0.249802  0  3.14082  0
N  N106  1  0.54992720  0.13899834  0.51338520  1  -0.689566  0  -0.218204  -0.249806  0  3.140819  0
N  N107  1  0.95007357  0.86100149  0.01338465  1  -0.689539  0  -0.218215  -0.249852  0  3.140866  0
N  N108  1  0.48692003  0.18933010  0.02929984  1  -1.203036  0  -0.339541  -0.313455  0  3.425415  0
N  N109  1  0.01308120  0.81066970  0.52929939  1  -1.20304  0  -0.339527  -0.313416  0  3.425408  0
N  N110  1  0.51307915  0.68933062  0.47070002  1  -1.203018  0  -0.339543  -0.31305  0  3.42391  0
N  N111  1  0.98691908  0.31066949  0.97070041  1  -1.203001  0  -0.339545  -0.313033  0  3.423885  0
N  N112  1  0.51307970  0.81067025  0.97070129  1  -1.203058  0  -0.339549  -0.313504  0  3.425541  0
N  N113  1  0.98691953  0.18932986  0.47070044  1  -1.203035  0  -0.339558  -0.31306  0  3.423944  0
N  N114  1  0.48692058  0.31066973  0.52929981  1  -1.203012  0  -0.339572  -0.313095  0  3.423811  0
N  N115  1  0.01307965  0.68933007  0.02929942  1  -1.203046  0  -0.339537  -0.313067  0  3.423919  0
N  N116  1  0.41199288  0.42826873  0.21835001  1  -0.822497  0  -0.130589  0.09659  0  3.80283  0
N  N117  1  0.08800613  0.57173199  0.71835007  1  -0.822542  0  -0.130563  0.096536  0  3.802898  0
N  N118  1  0.58800674  0.92826822  0.28164996  1  -0.822538  0  -0.130588  0.096832  0  3.801844  0
N  N119  1  0.91199372  0.07173178  0.78165029  1  -0.822507  0  -0.130565  0.096802  0  3.801799  0
N  N120  1  0.58800686  0.57173243  0.78165048  1  -0.822508  0  -0.130599  0.096534  0  3.802888  0
N  N121  1  0.91199360  0.42826837  0.28165042  1  -0.822545  0  -0.130579  0.096765  0  3.801826  0
N  N122  1  0.41199299  0.07173134  0.71834988  1  -0.822547  0  -0.130589  0.096853  0  3.801775  0
N  N123  1  0.08800801  0.92826778  0.21834955  1  -0.822548  0  -0.130593  0.096795  0  3.801883  0
N  N124  1  0.31287065  0.36769085  0.25437098  1  -0.702713  0  -0.226936  -0.261828  0  3.102924  0
N  N125  1  0.18712931  0.63230909  0.75437101  1  -0.702709  0  -0.226935  -0.261797  0  3.102934  0
N  N126  1  0.68712910  0.86769097  0.24562896  1  -0.702708  0  -0.226916  -0.261766  0  3.102902  0
N  N127  1  0.81287040  0.13230901  0.74562937  1  -0.702743  0  -0.22692  -0.261763  0  3.102796  0
N  N128  1  0.68712908  0.63230950  0.74562950  1  -0.702757  0  -0.226891  -0.261711  0  3.102998  0
N  N129  1  0.81287042  0.36769047  0.24562947  1  -0.702407  0  -0.226907  -0.261697  0  3.102833  0
N  N130  1  0.31287063  0.13230939  0.75437087  1  -0.70272  0  -0.22695  -0.261792  0  3.102837  0
N  N131  1  0.18713033  0.86768975  0.25436982  1  -0.702447  0  -0.226913  -0.261754  0  3.102935  0
N  N132  1  0.43501219  0.44891416  0.35836057  1  -1.175377  0  -0.339897  -0.307889  0  3.444064  0
N  N133  1  0.06498764  0.55108584  0.85836063  1  -1.175382  0  -0.3399  -0.307891  0  3.444046  0
N  N134  1  0.56498737  0.94891440  0.14164005  1  -1.175383  0  -0.339925  -0.307895  0  3.444224  0
N  N135  1  0.93501226  0.05108551  0.64163971  1  -1.175375  0  -0.339933  -0.307921  0  3.444272  0
N  N136  1  0.56498654  0.55108539  0.64163991  1  -1.175357  0  -0.339971  -0.307963  0  3.444222  0
N  N137  1  0.93501209  0.44891451  0.14163985  1  -1.175368  0  -0.339981  -0.307976  0  3.444297  0
N  N138  1  0.43501236  0.05108596  0.85835978  1  -1.175368  0  -0.339956  -0.307922  0  3.444235  0
N  N139  1  0.06498847  0.94891485  0.35836012  1  -1.175327  0  -0.339954  -0.307956  0  3.444209  0
O  O140  1  0.22178270  0.44731494  0.03102844  1  -1.172816  0  -0.33396  -0.555747  0  2.274398  0
O  O141  1  0.27821654  0.55268486  0.53102839  1  -1.172858  0  -0.333951  -0.555733  0  2.274425  0
O  O142  1  0.77821687  0.94731506  0.46897089  1  -1.172854  0  -0.333947  -0.555605  0  2.274049  0
O  O143  1  0.72178336  0.05268506  0.96897066  1  -1.172885  0  -0.333949  -0.555594  0  2.274054  0
O  O144  1  0.77821604  0.55268462  0.96897140  1  -1.172901  0  -0.333955  -0.555747  0  2.274406  0
O  O145  1  0.72178319  0.44731550  0.46897080  1  -1.172861  0  -0.333939  -0.55558  0  2.274034  0
O  O146  1  0.22178286  0.05268450  0.53102895  1  -1.172841  0  -0.333948  -0.55559  0  2.274044  0
O  O147  1  0.27821737  0.94731530  0.03102787  1  -1.172822  0  -0.333974  -0.555623  0  2.274037  0
O  O148  1  0.23710651  0.56710623  0.14233718  1  -1.192537  0  -0.333328  -0.564519  0  2.187463  0
O  O149  1  0.26289259  0.43289364  0.64233709  1  -1.192529  0  -0.333324  -0.564508  0  2.187481  0
O  O150  1  0.76289296  0.06710550  0.35766328  1  -1.19249  0  -0.333348  -0.564549  0  2.18739  0
O  O151  1  0.73710740  0.93289455  0.85766342  1  -1.192483  0  -0.333333  -0.564527  0  2.187389  0
O  O152  1  0.76289123  0.43289493  0.85766265  1  -1.192469  0  -0.333345  -0.564549  0  2.187312  0
O  O153  1  0.73710714  0.56710592  0.35766274  1  -1.192488  0  -0.33335  -0.564533  0  2.187342  0
O  O154  1  0.23710777  0.93289486  0.64233655  1  -1.192497  0  -0.333341  -0.56454  0  2.187434  0
O  O155  1  0.26289333  0.06710581  0.14233642  1  -1.192515  0  -0.333318  -0.564513  0  2.187505  0
