# generated using pymatgen
data_GdH26C35N7Cl3
_symmetry_space_group_name_H-M   'P 1'
_cell_length_a   11.75732792
_cell_length_b   13.05881327
_cell_length_c   16.87230000
_cell_angle_alpha   82.11707852
_cell_angle_beta   72.26203188
_cell_angle_gamma   63.24561403
_symmetry_Int_Tables_number   1
_chemical_formula_structural   GdH26C35N7Cl3
_chemical_formula_sum   'Gd2 H52 C70 N14 Cl6'
_cell_volume   2203.21939451
_cell_formula_units_Z   2
loop_
 _symmetry_equiv_pos_site_id
 _symmetry_equiv_pos_as_xyz
  1  'x, y, z'
loop_
 _atom_site_type_symbol
 _atom_site_label
 _atom_site_symmetry_multiplicity
 _atom_site_fract_x
 _atom_site_fract_y
 _atom_site_fract_z
 _atom_site_occupancy
 _atom_site_hle17_bader_spin_density
 _atom_site_hle17_ddec_charge
 _atom_site_hle17_ddec_spin_density
 _atom_site_hle17_ddec_sum_bond_order
 _atom_site_hle17_magmom
 _atom_site_hse06_10hf_bader_spin_density
 _atom_site_hse06_10hf_ddec_charge
 _atom_site_hse06_10hf_ddec_spin_density
 _atom_site_hse06_10hf_ddec_sum_bond_order
 _atom_site_hse06_10hf_magmom
 _atom_site_hse06_bader_spin_density
 _atom_site_hse06_ddec_charge
 _atom_site_hse06_ddec_spin_density
 _atom_site_hse06_ddec_sum_bond_order
 _atom_site_hse06_magmom
 _atom_site_pbe_bader_charge
 _atom_site_pbe_bader_spin_density
 _atom_site_pbe_cm5_charge
 _atom_site_pbe_ddec_charge
 _atom_site_pbe_ddec_spin_density
 _atom_site_pbe_ddec_sum_bond_order
 _atom_site_pbe_magmom
Gd  Gd0  1  0.93588312  0.99999268  0.13855652  1  0  1.814918  0  2.047517  0  0  1.63334  0  2.560589  0  0  1.69413  0  2.498557  0  2.017489  0  1.086398  1.591325  0  2.60189  0
Gd  Gd1  1  0.06411655  0.00000686  0.86144271  1  0  1.814939  0  2.047437  0  0  1.633345  0  2.560536  0  0  1.694137  0  2.498499  0  2.017493  0  1.086396  1.591356  0  2.60179  0
H  H2  1  0.40291042  0.91366067  0.21277105  1  0  0.108443  0  1.011238  0  0  0.110751  0  1.086111  0  0  0.115474  0  1.082995  0  0.130019  0  0.103585  0.107285  0  1.088465  0
H  H3  1  0.68310180  0.91396425  0.78725408  1  0  0.109529  0  1.012162  0  0  0.111424  0  1.08744  0  0  0.116214  0  1.084219  0  0.137285  0  0.103629  0.107962  0  1.089783  0
H  H4  1  0.59708746  0.08633888  0.78722975  1  0  0.108454  0  1.011286  0  0  0.110777  0  1.08614  0  0  0.115487  0  1.083037  0  0.129979  0  0.103581  0.107308  0  1.0885  0
H  H5  1  0.31689918  0.08603444  0.21274377  1  0  0.109545  0  1.012151  0  0  0.111445  0  1.087426  0  0  0.116236  0  1.084207  0  0.137304  0  0.103645  0.107984  0  1.089766  0
H  H6  1  0.82751409  0.82281438  0.08000076  1  0  0.085704  0  0.946006  0  0  0.092443  0  1.009551  0  0  0.095234  0  1.007036  0  0.127585  0  0.111927  0.090233  0  1.011647  0
H  H7  1  0.34921945  0.82309051  0.92017874  1  0  0.08502  0  0.946558  0  0  0.091947  0  1.010172  0  0  0.094714  0  1.00769  0  0.12556  0  0.111139  0.089789  0  1.012224  0
H  H8  1  0.17248643  0.17718346  0.91999847  1  0  0.085709  0  0.946051  0  0  0.092446  0  1.009596  0  0  0.095238  0  1.007081  0  0.127565  0  0.111931  0.090236  0  1.011691  0
H  H9  1  0.65078107  0.17690732  0.07982108  1  0  0.085012  0  0.946519  0  0  0.091935  0  1.010144  0  0  0.094702  0  1.007661  0  0.125584  0  0.111146  0.089784  0  1.012189  0
H  H10  1  0.38168398  0.60920716  0.15843004  1  0  0.112699  0  0.975589  0  0  0.118618  0  1.040068  0  0  0.122534  0  1.038035  0  0.112316  0  0.108056  0.115615  0  1.042101  0
H  H11  1  0.00852363  0.60930578  0.84172917  1  0  0.112528  0  0.976077  0  0  0.118469  0  1.040494  0  0  0.122405  0  1.038457  0  0.092043  0  0.10777  0.115449  0  1.042534  0
H  H12  1  0.61831747  0.39079238  0.84156703  1  0  0.112718  0  0.975576  0  0  0.118636  0  1.040059  0  0  0.122552  0  1.038028  0  0.112329  0  0.108039  0.115632  0  1.042095  0
H  H13  1  0.99147471  0.39069462  0.15827203  1  0  0.11252  0  0.976059  0  0  0.118465  0  1.040473  0  0  0.1224  0  1.038438  0  0.092053  0  0.107767  0.115446  0  1.042513  0
H  H14  1  0.66171076  0.81408255  0.02347038  1  0  0.102128  0  0.952302  0  0  0.115529  0  1.006693  0  0  0.118718  0  1.006034  0  0.069541  0  0.107688  0.113278  0  1.007292  0
H  H15  1  0.52389015  0.81422148  0.97661784  1  0  0.101941  0  0.952505  0  0  0.115252  0  1.007006  0  0  0.118435  0  1.00637  0  0.08021  0  0.107257  0.113002  0  1.007602  0
H  H16  1  0.33828801  0.18591699  0.97652963  1  0  0.102129  0  0.952275  0  0  0.11553  0  1.006662  0  0  0.118718  0  1.006002  0  0.069555  0  0.107686  0.113279  0  1.007261  0
H  H17  1  0.47610994  0.18577721  0.02338258  1  0  0.101957  0  0.952505  0  0  0.115258  0  1.007017  0  0  0.118442  0  1.006381  0  0.080243  0  0.107263  0.113007  0  1.007613  0
H  H18  1  0.07982589  0.81410742  0.44401585  1  0  0.107353  0  0.946477  0  0  0.121517  0  0.997103  0  0  0.124783  0  0.996105  0  0.071282  0  0.112231  0.119157  0  0.997986  0
H  H19  1  0.10624535  0.81408684  0.55588271  1  0  0.107562  0  0.947435  0  0  0.122142  0  0.99744  0  0  0.125341  0  0.996543  0  0.07156  0  0.112738  0.1198  0  0.998312  0
H  H20  1  0.92016938  0.18589555  0.55598632  1  0  0.107291  0  0.946514  0  0  0.121511  0  0.997081  0  0  0.124778  0  0.996083  0  0.071229  0  0.112228  0.11915  0  0.997966  0
H  H21  1  0.89375796  0.18591614  0.44411597  1  0  0.107495  0  0.947494  0  0  0.122079  0  0.997498  0  0  0.125277  0  0.996602  0  0.071512  0  0.112732  0.119741  0  0.998363  0
H  H22  1  0.04200590  0.82304849  0.30688452  1  0  0.082313  0  0.958126  0  0  0.089884  0  1.02173  0  0  0.092462  0  1.019418  0  0.117442  0  0.11045  0.087971  0  1.023453  0
H  H23  1  0.13515641  0.82298332  0.69302500  1  0  0.081777  0  0.958283  0  0  0.089566  0  1.021772  0  0  0.092148  0  1.019446  0  0.130773  0  0.110033  0.087649  0  1.02352  0
H  H24  1  0.95799290  0.17695277  0.69311708  1  0  0.082298  0  0.958023  0  0  0.089857  0  1.021655  0  0  0.092436  0  1.019342  0  0.117396  0  0.110454  0.087946  0  1.023376  0
H  H25  1  0.86484776  0.17701794  0.30697428  1  0  0.081765  0  0.958258  0  0  0.089535  0  1.021765  0  0  0.092116  0  1.019441  0  0.130622  0  0.11004  0.08762  0  1.023511  0
H  H26  1  0.51434023  0.51793380  0.21943426  1  0  0.110255  0  0.976933  0  0  0.115654  0  1.045445  0  0  0.119549  0  1.043011  0  0.110741  0  0.105341  0.11262  0  1.047664  0
H  H27  1  0.96743308  0.51830942  0.78032054  1  0  0.108271  0  0.978471  0  0  0.113809  0  1.046851  0  0  0.117754  0  1.044358  0  0.09173  0  0.104639  0.110795  0  1.049057  0
H  H28  1  0.48566168  0.48206660  0.78056499  1  0  0.110218  0  0.976956  0  0  0.115611  0  1.045477  0  0  0.119518  0  1.043031  0  0.110725  0  0.105328  0.112576  0  1.047698  0
H  H29  1  0.03256748  0.48169013  0.21968088  1  0  0.108295  0  0.97854  0  0  0.113841  0  1.046897  0  0  0.117785  0  1.044405  0  0.091742  0  0.104653  0.110826  0  1.049104  0
H  H30  1  0.73231742  0.39673881  0.24411783  1  0  0.071121  0  0.949662  0  0  0.077049  0  1.016922  0  0  0.079638  0  1.014898  0  0.051628  0  0.101832  0.075145  0  1.018542  0
H  H31  1  0.87088660  0.39704410  0.75542293  1  0  0.070755  0  0.950336  0  0  0.076973  0  1.017188  0  0  0.079645  0  1.015102  0  0.116406  0  0.102499  0.074993  0  1.018857  0
H  H32  1  0.26768407  0.60326245  0.75588084  1  0  0.071143  0  0.949638  0  0  0.077093  0  1.016885  0  0  0.079683  0  1.014858  0  0.051607  0  0.101848  0.075187  0  1.018506  0
H  H33  1  0.12911575  0.60295544  0.24457514  1  0  0.070722  0  0.95039  0  0  0.076941  0  1.017237  0  0  0.079614  0  1.015149  0  0.116344  0  0.102503  0.074963  0  1.018908  0
H  H34  1  0.80791097  0.67865440  0.24307103  1  0  0.08075  0  0.974776  0  0  0.088597  0  1.039239  0  0  0.091568  0  1.036411  0  0.105313  0  0.095095  0.086564  0  1.041143  0
H  H35  1  0.51305401  0.67871528  0.75684745  1  0  0.081756  0  0.974628  0  0  0.089799  0  1.038821  0  0  0.092912  0  1.03584  0  0.118374  0  0.095441  0.087699  0  1.040781  0
H  H36  1  0.19208697  0.32134858  0.75692997  1  0  0.080698  0  0.974832  0  0  0.08856  0  1.039274  0  0  0.091529  0  1.036448  0  0.105381  0  0.095085  0.086528  0  1.041177  0
H  H37  1  0.48694472  0.32128255  0.24315453  1  0  0.08178  0  0.97461  0  0  0.089837  0  1.038789  0  0  0.092951  0  1.035806  0  0.118365  0  0.095478  0.087736  0  1.040751  0
H  H38  1  0.59741867  0.81097985  0.21318214  1  0  0.10338  0  0.978961  0  0  0.110612  0  1.046626  0  0  0.113396  0  1.046443  0  0.074941  0  0.102007  0.108554  0  1.046987  0
H  H39  1  0.59091885  0.81112049  0.78701207  1  0  0.103048  0  0.97748  0  0  0.110556  0  1.044843  0  0  0.113339  0  1.044657  0  0.090463  0  0.101808  0.108497  0  1.045195  0
H  H40  1  0.40257970  0.18902227  0.78681828  1  0  0.103392  0  0.978943  0  0  0.110624  0  1.046609  0  0  0.113408  0  1.046425  0  0.074978  0  0.102008  0.108565  0  1.04697  0
H  H41  1  0.40907942  0.18887648  0.21299129  1  0  0.103077  0  0.977413  0  0  0.110603  0  1.044765  0  0  0.113387  0  1.044577  0  0.09043  0  0.101826  0.108528  0  1.045118  0
H  H42  1  0.17275945  0.73624138  0.12298120  1  0  0.085828  0  0.953894  0  0  0.09281  0  1.016969  0  0  0.095599  0  1.014307  0  0.132454  0  0.111281  0.090653  0  1.019111  0
H  H43  1  0.09081637  0.73619850  0.87690805  1  0  0.085742  0  0.954806  0  0  0.092753  0  1.018068  0  0  0.095525  0  1.015404  0  0.144928  0  0.111673  0.090663  0  1.020133  0
H  H44  1  0.82724064  0.26375731  0.87701922  1  0  0.085838  0  0.95393  0  0  0.092822  0  1.01701  0  0  0.095611  0  1.014347  0  0.132425  0  0.111295  0.090666  0  1.019151  0
H  H45  1  0.90918154  0.26380276  0.12309256  1  0  0.085684  0  0.954801  0  0  0.092699  0  1.018056  0  0  0.095471  0  1.015389  0  0.144894  0  0.111665  0.090609  0  1.02012  0
H  H46  1  0.62410368  0.99984004  0.25013936  1  0  0.069718  0  0.971332  0  0  0.071633  0  1.047565  0  0  0.073857  0  1.046016  0  0.098176  0  0.10498  0.070033  0  1.048743  0
H  H47  1  0.37589691  0.00016122  0.74985889  1  0  0.069651  0  0.971469  0  0  0.071579  0  1.047676  0  0  0.073803  0  1.046127  0  0.098213  0  0.104983  0.069983  0  1.048859  0
H  H48  1  0.67359239  0.00006518  0.38002227  1  0  0.107712  0  0.957799  0  0  0.116574  0  1.020247  0  0  0.119822  0  1.019169  0  0.09342  0  0.106498  0.114188  0  1.021297  0
H  H49  1  0.32641123  0.99993180  0.61997580  1  0  0.107693  0  0.957778  0  0  0.116563  0  1.020236  0  0  0.119808  0  1.019157  0  0.093409  0  0.106479  0.114177  0  1.021286  0
H  H50  1  0.29299362  0.99996095  0.51037728  1  0  0.098192  0  0.9721  0  0  0.107864  0  1.034041  0  0  0.110696  0  1.033983  0  0.084351  0  0.101856  0.105882  0  1.034143  0
H  H51  1  0.70700926  0.00004288  0.48962081  1  0  0.098209  0  0.972015  0  0  0.107872  0  1.033975  0  0  0.110702  0  1.03392  0  0.084265  0  0.101856  0.105889  0  1.034077  0
H  H52  1  0.26028332  0.99973455  0.37287232  1  0  0.061466  0  0.946222  0  0  0.06902  0  1.011953  0  0  0.070921  0  1.011617  0  0.069949  0  0.103156  0.067631  0  1.01225  0
H  H53  1  0.73971727  0.00026671  0.62712772  1  0  0.061438  0  0.946251  0  0  0.069009  0  1.011964  0  0  0.070907  0  1.011634  0  0.069911  0  0.103149  0.067619  0  1.012262  0
C  C54  1  0.35622472  0.87084798  0.19163924  1  0  -0.181955  0  3.63316  0  0  -0.208798  0  3.882282  0  0  -0.216235  0  3.900906  0  -0.068203  0  -0.08183  -0.203245  0  3.869586  0
C  C55  1  0.77260911  0.87107095  0.80839427  1  0  -0.182903  0  3.637768  0  0  -0.209113  0  3.886474  0  0  -0.216532  0  3.905066  0  -0.001386  0  -0.081622  -0.203569  0  3.873757  0
C  C56  1  0.64377448  0.12915071  0.80836078  1  0  -0.181946  0  3.633255  0  0  -0.208824  0  3.882367  0  0  -0.216246  0  3.901  0  -0.068223  0  -0.081853  -0.203266  0  3.869667  0
C  C57  1  0.22739055  0.12892860  0.19160496  1  0  -0.182922  0  3.637752  0  0  -0.209159  0  3.886478  0  0  -0.216583  0  3.90507  0  -0.001413  0  -0.081663  -0.203616  0  3.873762  0
C  C58  1  0.99048214  0.00001115  0.45855843  1  0  0.086558  0  3.771679  0  0  0.095705  0  4.011173  0  0  0.099652  0  4.032591  0  -0.043764  0  0.007794  0.093241  0  3.99646  0
C  C59  1  0.00951309  0.99999011  0.54144393  1  0  0.08667  0  3.771711  0  0  0.095711  0  4.011302  0  0  0.099659  0  4.032721  0  -0.084896  0  0.007845  0.093246  0  3.996587  0
C  C60  1  0.74782068  0.90136476  0.06605130  1  0  0.1492  0  3.703032  0  0  0.120987  0  3.957888  0  0  0.128265  0  3.975328  0  0.509165  0  0.051353  0.116551  0  3.946016  0
C  C61  1  0.35052710  0.90160145  0.93404421  1  0  0.147773  0  3.706253  0  0  0.119055  0  3.961408  0  0  0.126345  0  3.97884  0  0.507175  0  0.050049  0.114575  0  3.949522  0
C  C62  1  0.25217988  0.09863478  0.93394774  1  0  0.149145  0  3.703092  0  0  0.120937  0  3.957935  0  0  0.128214  0  3.975376  0  0.509214  0  0.051358  0.1165  0  3.946065  0
C  C63  1  0.64947299  0.09839723  0.06595562  1  0  0.147859  0  3.706227  0  0  0.119147  0  3.961378  0  0  0.12644  0  3.978808  0  0.507129  0  0.050068  0.114661  0  3.949489  0
C  C64  1  0.34549746  0.70158336  0.16190171  1  0  -0.148715  0  3.678073  0  0  -0.16741  0  3.923468  0  0  -0.1744  0  3.942411  0  -0.048095  0  -0.079382  -0.163331  0  3.911489  0
C  C65  1  0.95244779  0.70169914  0.83817012  1  0  -0.148235  0  3.680986  0  0  -0.166783  0  3.926185  0  0  -0.173771  0  3.945123  0  -0.064156  0  -0.078632  -0.162705  0  3.914217  0
C  C66  1  0.65450396  0.29841447  0.83809733  1  0  -0.148772  0  3.678067  0  0  -0.167469  0  3.923446  0  0  -0.174457  0  3.942389  0  -0.048101  0  -0.079393  -0.163387  0  3.911463  0
C  C67  1  0.04755055  0.29830127  0.16183108  1  0  -0.148228  0  3.680953  0  0  -0.166776  0  3.926157  0  0  -0.173765  0  3.945096  0  -0.064163  0  -0.078621  -0.162698  0  3.914188  0
C  C68  1  0.65341226  0.89772522  0.03436522  1  0  -0.157504  0  3.689487  0  0  -0.177362  0  3.941015  0  0  -0.184928  0  3.961933  0  -0.046825  0  -0.084643  -0.172487  0  3.92668  0
C  C69  1  0.44861261  0.89787787  0.96570930  1  0  -0.156312  0  3.692015  0  0  -0.175987  0  3.943538  0  0  -0.183557  0  3.964467  0  -0.045327  0  -0.083426  -0.171112  0  3.929211  0
C  C70  1  0.34658741  0.10227433  0.96563460  1  0  -0.157537  0  3.68945  0  0  -0.177378  0  3.940987  0  0  -0.184944  0  3.961905  0  -0.046819  0  -0.084661  -0.172502  0  3.926652  0
C  C71  1  0.55138794  0.10212168  0.03429093  1  0  -0.156307  0  3.692136  0  0  -0.175986  0  3.943634  0  0  -0.183556  0  3.964563  0  -0.045395  0  -0.083447  -0.171112  0  3.929309  0
C  C72  1  0.23753903  0.93633579  0.17007890  1  0  0.195069  0  3.747019  0  0  0.191821  0  3.992153  0  0  0.199096  0  4.011751  0  0.395639  0  0.12132  0.186907  0  3.978897  0
C  C73  1  0.82598684  0.93643699  0.82991581  1  0  0.193594  0  3.748644  0  0  0.190366  0  3.993584  0  0  0.197536  0  4.013259  0  0.526003  0  0.121891  0.185469  0  3.980333  0
C  C74  1  0.76246106  0.06366290  0.82992033  1  0  0.195007  0  3.747074  0  0  0.191785  0  3.992208  0  0  0.199061  0  4.011804  0  0.395826  0  0.121311  0.18687  0  3.978947  0
C  C75  1  0.17401283  0.06356256  0.17008282  1  0  0.193482  0  3.748609  0  0  0.190327  0  3.993466  0  0  0.197498  0  4.013137  0  0.526014  0  0.121889  0.185429  0  3.980216  0
C  C76  1  0.53700080  0.67646758  0.21074154  1  0  0.074212  0  3.776576  0  0  0.088831  0  4.000861  0  0  0.090544  0  4.024117  0  -0.058022  0  0.002138  0.087959  0  3.984808  0
C  C77  1  0.78602280  0.67674201  0.78927928  1  0  0.074822  0  3.774686  0  0  0.088308  0  4.000427  0  0  0.09003  0  4.023694  0  -0.07748  0  0.001651  0.087426  0  3.984382  0
C  C78  1  0.46300022  0.32353282  0.78925731  1  0  0.074298  0  3.776657  0  0  0.088923  0  4.000906  0  0  0.090634  0  4.024163  0  -0.058092  0  0.002159  0.088049  0  3.984854  0
C  C79  1  0.21397687  0.32325754  0.21072173  1  0  0.074854  0  3.774708  0  0  0.088327  0  4.000485  0  0  0.090053  0  4.02375  0  -0.077505  0  0.001658  0.087445  0  3.984437  0
C  C80  1  0.03194248  0.89778525  0.41699834  1  0  -0.164405  0  3.704186  0  0  -0.181533  0  3.948085  0  0  -0.188931  0  3.968446  0  -0.021174  0  -0.083342  -0.176732  0  3.934301  0
C  C81  1  0.07036103  0.89774494  0.58296596  1  0  -0.164041  0  3.705599  0  0  -0.181372  0  3.949492  0  0  -0.188725  0  3.969889  0  6e-06  0  -0.083962  -0.176592  0  3.935686  0
C  C82  1  0.96805233  0.10221687  0.58300461  1  0  -0.164396  0  3.704153  0  0  -0.181553  0  3.948094  0  0  -0.188953  0  3.968456  0  -0.021149  0  -0.083365  -0.176753  0  3.934311  0
C  C83  1  0.92963866  0.10225632  0.41703604  1  0  -0.163963  0  3.705665  0  0  -0.181321  0  3.949552  0  0  -0.188673  0  3.969949  0  -2.6e-05  0  -0.083962  -0.176544  0  3.935746  0
C  C84  1  0.55101021  0.99995409  0.01720368  1  0  0.090872  0  3.747963  0  0  0.101861  0  3.983504  0  0  0.105947  0  4.004762  0  -0.023171  0  0.00844  0.09958  0  3.968274  0
C  C85  1  0.44898992  0.00004631  0.98279714  1  0  0.091018  0  3.747786  0  0  0.101953  0  3.983377  0  0  0.106043  0  4.004633  0  -0.060417  0  0.008456  0.099672  0  3.968147  0
C  C86  1  0.01225611  0.90171894  0.33919165  1  0  0.138492  0  3.72308  0  0  0.111952  0  3.976165  0  0  0.118721  0  3.994384  0  0.485852  0  0.04744  0.107627  0  3.963675  0
C  C87  1  0.08613666  0.90164348  0.66076679  1  0  0.138296  0  3.722099  0  0  0.111447  0  3.975361  0  0  0.118205  0  3.993563  0  0.470918  0  0.047984  0.107133  0  3.962859  0
C  C88  1  0.98774091  0.09828232  0.66081093  1  0  0.138527  0  3.722877  0  0  0.111989  0  3.975986  0  0  0.118761  0  3.994203  0  0.485991  0  0.047431  0.107666  0  3.963495  0
C  C89  1  0.91386394  0.09835779  0.33923444  1  0  0.138313  0  3.722094  0  0  0.111466  0  3.975387  0  0  0.118226  0  3.99359  0  0.471072  0  0.047969  0.107151  0  3.962886  0
C  C90  1  0.57729758  0.55765922  0.22190256  1  0  -0.159388  0  3.703868  0  0  -0.17508  0  3.940189  0  0  -0.182054  0  3.962315  0  -0.073083  0  -0.085388  -0.170432  0  3.925258  0
C  C91  1  0.86469693  0.55797395  0.77793114  1  0  -0.1583  0  3.703669  0  0  -0.173578  0  3.939997  0  0  -0.180597  0  3.962141  0  -0.066011  0  -0.08551  -0.168944  0  3.925021  0
C  C92  1  0.42270344  0.44234118  0.77809629  1  0  -0.159284  0  3.703902  0  0  -0.174973  0  3.940213  0  0  -0.181956  0  3.962333  0  -0.073071  0  -0.085331  -0.170323  0  3.92528  0
C  C93  1  0.13530227  0.44202474  0.22206947  1  0  -0.158304  0  3.703741  0  0  -0.173583  0  3.940055  0  0  -0.180603  0  3.962201  0  -0.066044  0  -0.085506  -0.168948  0  3.925082  0
C  C94  1  0.69943763  0.48950435  0.23750953  1  0  0.108885  0  3.764551  0  0  0.08903  0  4.01795  0  0  0.093326  0  4.037217  0  0.544117  0  0.034347  0.086387  0  4.004644  0
C  C95  1  0.81086822  0.48977363  0.76218069  1  0  0.111695  0  3.762687  0  0  0.09151  0  4.015744  0  0  0.095725  0  4.035064  0  0.467551  0  0.03571  0.088933  0  4.00244  0
C  C96  1  0.30056385  0.51049691  0.76248913  1  0  0.108796  0  3.764527  0  0  0.088925  0  4.017931  0  0  0.093221  0  4.037201  0  0.54408  0  0.034303  0.086284  0  4.004624  0
C  C97  1  0.18913277  0.51022506  0.23781835  1  0  0.111729  0  3.762711  0  0  0.091553  0  4.015756  0  0  0.095768  0  4.035072  0  0.467667  0  0.0357  0.088968  0  4.00246  0
C  C98  1  0.74147534  0.64476220  0.23669586  1  0  0.115442  0  3.742962  0  0  0.093766  0  3.995767  0  0  0.098571  0  4.013169  0  0.513137  0  0.035832  0.09057  0  3.983629  0
C  C99  1  0.61340081  0.64490284  0.76320712  1  0  0.112858  0  3.743333  0  0  0.091148  0  3.995858  0  0  0.095834  0  4.013267  0  0.48816  0  0.034278  0.088004  0  3.983732  0
C  C100  1  0.25852393  0.35523992  0.76330377  1  0  0.115488  0  3.742841  0  0  0.093793  0  3.995672  0  0  0.098598  0  4.013071  0  0.512965  0  0.035835  0.090596  0  3.983533  0
C  C101  1  0.38659882  0.35509499  0.23679408  1  0  0.112948  0  3.743238  0  0  0.091226  0  3.995769  0  0  0.095912  0  4.013178  0  0.488172  0  0.034306  0.088081  0  3.983638  0
C  C102  1  0.62191749  0.71988658  0.21980086  1  0  -0.161546  0  3.713017  0  0  -0.179996  0  3.955919  0  0  -0.186545  0  3.978379  0  -0.017151  0  -0.090082  -0.175295  0  3.940389  0
C  C103  1  0.65767541  0.72006324  0.78025660  1  0  -0.159671  0  3.708328  0  0  -0.178007  0  3.951245  0  0  -0.184559  0  3.973727  0  0.016887  0  -0.088373  -0.173291  0  3.935748  0
C  C104  1  0.37808268  0.28011554  0.78019799  1  0  -0.161608  0  3.713015  0  0  -0.180061  0  3.955914  0  0  -0.186606  0  3.978371  0  -0.017008  0  -0.090101  -0.175359  0  3.940385  0
C  C105  1  0.34232201  0.27993545  0.21974557  1  0  -0.159782  0  3.708268  0  0  -0.178129  0  3.951182  0  0  -0.184685  0  3.973662  0  0.016871  0  -0.088422  -0.17339  0  3.935703  0
C  C106  1  0.22757750  0.77202281  0.14255261  1  0  0.147419  0  3.731057  0  0  0.119892  0  3.984783  0  0  0.127026  0  4.002328  0  0.458715  0  0.049826  0.115535  0  3.973217  0
C  C107  1  0.00014786  0.77204854  0.85741280  1  0  0.147243  0  3.731186  0  0  0.119421  0  3.985406  0  0  0.126574  0  4.002881  0  0.456394  0  0.049508  0.115027  0  3.973825  0
C  C108  1  0.77242259  0.22797587  0.85744780  1  0  0.147466  0  3.731029  0  0  0.119925  0  3.984768  0  0  0.127061  0  4.002311  0  0.458745  0  0.049839  0.115566  0  3.973198  0
C  C109  1  0.99985138  0.22795186  0.14258761  1  0  0.147305  0  3.731099  0  0  0.119498  0  3.985305  0  0  0.126654  0  4.002775  0  0.456407  0  0.049521  0.115103  0  3.973724  0
C  C110  1  0.41212023  0.75055001  0.18855932  1  0  0.109766  0  3.741757  0  0  0.123253  0  3.970138  0  0  0.128413  0  3.990258  0  0.033667  0  0.014147  0.119747  0  3.956504  0
C  C111  1  0.83684904  0.75076869  0.81151194  1  0  0.109884  0  3.744549  0  0  0.123332  0  3.973217  0  0  0.128463  0  3.993357  0  -0.007181  0  0.014358  0.119844  0  3.959571  0
C  C112  1  0.58788033  0.24944954  0.81143913  1  0  0.109727  0  3.741847  0  0  0.123241  0  3.970187  0  0  0.1284  0  3.990305  0  0.033705  0  0.014191  0.119739  0  3.956545  0
C  C113  1  0.16314973  0.24923086  0.18848866  1  0  0.109939  0  3.744462  0  0  0.123363  0  3.973182  0  0  0.128494  0  3.993322  0  -0.007165  0  0.014388  0.119874  0  3.959539  0
C  C114  1  0.48760530  0.99996524  0.45946815  1  0  0.091462  0  3.751301  0  0  0.104438  0  3.977896  0  0  0.107638  0  4.000223  0  -0.028708  0  0.010243  0.102461  0  3.962509  0
C  C115  1  0.51239840  0.00003516  0.54052954  1  0  0.091438  0  3.751484  0  0  0.104456  0  3.97806  0  0  0.107658  0  4.000386  0  0.01122  0  0.010324  0.10248  0  3.962672  0
C  C116  1  0.55206806  0.99982975  0.30893708  1  0  0.132284  0  3.730103  0  0  0.10659  0  3.989514  0  0  0.112326  0  4.006998  0  0.554298  0  0.046126  0.10296  0  3.977457  0
C  C117  1  0.44793296  0.00017066  0.69106236  1  0  0.132336  0  3.730193  0  0  0.106643  0  3.989621  0  0  0.112379  0  4.007103  0  0.554295  0  0.04611  0.103006  0  3.977568  0
C  C118  1  0.57970161  0.99994209  0.38350098  1  0  -0.142469  0  3.68411  0  0  -0.160203  0  3.924904  0  0  -0.167107  0  3.945865  0  -0.067661  0  -0.076525  -0.15567  0  3.910791  0
C  C119  1  0.42030074  0.00005746  0.61649768  1  0  -0.142399  0  3.684153  0  0  -0.16018  0  3.924988  0  0  -0.167081  0  3.945946  0  -0.067549  0  -0.07652  -0.155646  0  3.910875  0
C  C120  1  0.37013238  0.99987177  0.45466441  1  0  -0.164275  0  3.726414  0  0  -0.180501  0  3.965863  0  0  -0.187685  0  3.987636  0  -0.108239  0  -0.086983  -0.175682  0  3.950976  0
C  C121  1  0.62986825  0.00013121  0.54533425  1  0  -0.164305  0  3.726426  0  0  -0.180538  0  3.965897  0  0  -0.187722  0  3.987668  0  -0.108244  0  -0.087011  -0.175719  0  3.951008  0
C  C122  1  0.35127300  0.99976543  0.37724020  1  0  0.109249  0  3.773839  0  0  0.08676  0  4.026728  0  0  0.091936  0  4.045344  0  0.517976  0  0.033918  0.083466  0  4.013956  0
C  C123  1  0.64872938  0.00023583  0.62275886  1  0  0.109287  0  3.773767  0  0  0.086791  0  4.026654  0  0  0.091967  0  4.045267  0  0.517978  0  0.033924  0.083499  0  4.01388  0
N  N124  1  0.17295676  0.88682973  0.14710644  1  0  -0.423012  0  3.282193  0  0  -0.368888  0  3.545112  0  0  -0.386593  0  3.564486  0  -1.229399  0  -0.389499  -0.357246  0  3.532023  0
N  N125  1  0.94011657  0.88684603  0.85282737  1  0  -0.423039  0  3.279685  0  0  -0.368715  0  3.542378  0  0  -0.386521  0  3.562152  0  -1.223511  0  -0.390607  -0.357064  0  3.52921  0
N  N126  1  0.82704201  0.11316981  0.85289357  1  0  -0.423072  0  3.282307  0  0  -0.368934  0  3.545196  0  0  -0.386643  0  3.564574  0  -1.229614  0  -0.389522  -0.357315  0  3.532164  0
N  N127  1  0.05988220  0.11315352  0.14717205  1  0  -0.423018  0  3.279547  0  0  -0.368733  0  3.54223  0  0  -0.386538  0  3.562002  0  -1.223559  0  -0.390632  -0.357082  0  3.529063  0
N  N128  1  0.74704408  0.99985547  0.08219932  1  0  -0.392749  0  3.25148  0  0  -0.327996  0  3.508388  0  0  -0.346146  0  3.52843  0  -1.257021  0  -0.358932  -0.31636  0  3.494731  0
N  N129  1  0.25295691  0.00014321  0.91779913  1  0  -0.392683  0  3.251463  0  0  -0.327931  0  3.508374  0  0  -0.346079  0  3.528417  0  -1.257101  0  -0.358949  -0.316297  0  3.494715  0
N  N130  1  0.78235796  0.53071337  0.24421168  1  0  -0.324617  0  3.085493  0  0  -0.289743  0  3.35112  0  0  -0.300056  0  3.365428  0  -1.206706  0  -0.327203  -0.282233  0  3.341326  0
N  N131  1  0.68674308  0.53089947  0.75550610  1  0  -0.325559  0  3.086285  0  0  -0.290719  0  3.352097  0  0  -0.301028  0  3.366487  0  -1.210163  0  -0.327647  -0.283191  0  3.342232  0
N  N132  1  0.21764221  0.46928875  0.75578777  1  0  -0.324591  0  3.085352  0  0  -0.289717  0  3.351  0  0  -0.300031  0  3.365307  0  -1.206639  0  -0.327196  -0.282207  0  3.341205  0
N  N133  1  0.31325834  0.46909836  0.24449354  1  0  -0.325633  0  3.086267  0  0  -0.290798  0  3.352087  0  0  -0.301108  0  3.366476  0  -1.210132  0  -0.327686  -0.28327  0  3.342225  0
N  N134  1  0.95430541  0.00005060  0.29972625  1  0  -0.37019  0  3.228557  0  0  -0.311373  0  3.486831  0  0  -0.329204  0  3.508308  0  -1.235765  0  -0.336574  -0.299295  0  3.472024  0
N  N135  1  0.04569340  0.99995066  0.70027536  1  0  -0.370173  0  3.228513  0  0  -0.311367  0  3.486818  0  0  -0.329198  0  3.508297  0  -1.23561  0  -0.336572  -0.299288  0  3.472009  0
N  N136  1  0.43998800  0.99969854  0.30470411  1  0  -0.329573  0  3.134561  0  0  -0.281369  0  3.394909  0  0  -0.293983  0  3.410571  0  -1.223002  0  -0.321479  -0.272776  0  3.38404  0
N  N137  1  0.56001302  0.00030187  0.69529474  1  0  -0.329596  0  3.134524  0  0  -0.281397  0  3.394891  0  0  -0.29401  0  3.41055  0  -1.222955  0  -0.321477  -0.272802  0  3.384024  0
Cl  Cl138  1  0.07170895  0.85652734  0.99997625  1  0  -0.678626  0  1.021883  0  0  -0.635189  0  1.290767  0  0  -0.653186  0  1.270804  0  -0.710153  0  -0.322405  -0.622423  0  1.304272  0
Cl  Cl139  1  0.92828939  0.14347306  0.00002376  1  0  -0.678619  0  1.021878  0  0  -0.635175  0  1.290744  0  0  -0.653184  0  1.270797  0  -0.704758  0  -0.322416  -0.622408  0  1.304252  0
Cl  Cl140  1  0.72368640  0.17963955  0.21570516  1  0  -0.659044  0  0.847842  0  0  -0.622198  0  1.089489  0  0  -0.637346  0  1.069244  0  -0.71688  0  -0.357521  -0.611135  0  1.103261  0
Cl  Cl141  1  0.09672362  0.17964469  0.78425155  1  0  -0.658977  0  0.846789  0  0  -0.622193  0  1.088399  0  0  -0.637347  0  1.068203  0  -0.716869  0  -0.357801  -0.611076  0  1.102042  0
Cl  Cl142  1  0.27631366  0.82035742  0.78429723  1  0  -0.659051  0  0.847858  0  0  -0.622204  0  1.089519  0  0  -0.637353  0  1.069275  0  -0.716921  0  -0.357522  -0.611143  0  1.103287  0
Cl  Cl143  1  0.90327872  0.82035485  0.21574948  1  0  -0.658992  0  0.846818  0  0  -0.622217  0  1.088447  0  0  -0.637369  0  1.068239  0  -0.716869  0  -0.357808  -0.611098  0  1.102095  0
