# generated using pymatgen
data_ZnH19C28I3NO7
_symmetry_space_group_name_H-M   'P 1'
_cell_length_a   14.14420320
_cell_length_b   15.35793821
_cell_length_c   15.21470588
_cell_angle_alpha   81.57793618
_cell_angle_beta   88.61150757
_cell_angle_gamma   77.21997186
_symmetry_Int_Tables_number   1
_chemical_formula_structural   ZnH19C28I3NO7
_chemical_formula_sum   'Zn2 H38 C56 I6 N2 O14'
_cell_volume   3188.27692600
_cell_formula_units_Z   2
loop_
 _symmetry_equiv_pos_site_id
 _symmetry_equiv_pos_as_xyz
  1  'x, y, z'
loop_
 _atom_site_type_symbol
 _atom_site_label
 _atom_site_symmetry_multiplicity
 _atom_site_fract_x
 _atom_site_fract_y
 _atom_site_fract_z
 _atom_site_occupancy
 _atom_site_pbe_bader_charge
 _atom_site_pbe_bader_spin_density
 _atom_site_pbe_cm5_charge
 _atom_site_pbe_ddec_charge
 _atom_site_pbe_ddec_spin_density
 _atom_site_pbe_ddec_sum_bond_order
 _atom_site_pbe_magmom
Zn  Zn0  1  0.48134531  0.60156778  0.52503463  1  1.34346  0  0.691344  0.922298  0  2.274402  0
Zn  Zn1  1  0.51548866  0.40470105  0.47261908  1  1.345809  0  0.691452  0.92579  0  2.269909  0
H  H2  1  0.53681922  0.72642986  0.93663038  1  0.080431  0  0.088104  0.097293  0  1.062629  0
H  H3  1  0.44555127  0.27912079  0.05748469  1  0.096073  0  0.089773  0.100599  0  1.057392  0
H  H4  1  0.55871141  0.88701874  0.37409387  1  0.061603  0  0.091555  0.104343  0  1.092217  0
H  H5  1  0.44416915  0.11842208  0.62219321  1  0.093309  0  0.092934  0.108955  0  1.080951  0
H  H6  1  0.46837121  0.53017826  0.76784062  1  0.122399  0  0.096528  0.112054  0  1.071851  0
H  H7  1  0.50833143  0.47574613  0.22569150  1  0.126039  0  0.093375  0.103657  0  1.086854  0
H  H8  1  0.50578931  0.25018697  0.74938045  1  0.103611  0  0.106336  0.123137  0  1.002199  0
H  H9  1  0.49017845  0.75269999  0.24607558  1  0.1095  0  0.105997  0.122932  0  1.000153  0
H  H10  1  0.58476575  0.89963678  0.23265142  1  0.045143  0  0.08828  0.046372  0  1.010996  0
H  H11  1  0.69258054  0.86876493  0.29931271  1  0.06582  0  0.093438  0.055067  0  1.002798  0
H  H12  1  0.78280474  0.93939389  0.17351567  1  0.036508  0  0.095517  0.133661  0  0.984438  0
H  H13  1  0.72974446  0.85485214  0.13873239  1  0.024131  0  0.093473  0.129252  0  0.995668  0
H  H14  1  0.67463732  0.97074683  0.10751516  1  0.033582  0  0.083656  0.114325  0  1.025193  0
H  H15  1  0.30964785  0.13474192  0.70113251  1  0.062723  0  0.093399  0.05488  0  1.000771  0
H  H16  1  0.41826009  0.10351555  0.76683424  1  0.056516  0  0.086041  0.043245  0  1.018888  0
H  H17  1  0.33073962  0.02749250  0.89068285  1  0.051069  0  0.081056  0.111231  0  1.032439  0
H  H18  1  0.27373137  0.14349516  0.86341661  1  0.02943  0  0.090635  0.126761  0  1.000017  0
H  H19  1  0.22194242  0.05948586  0.82573616  1  0.031752  0  0.096144  0.135691  0  0.983965  0
H  H20  1  0.23240065  0.70161487  0.58257310  1  0.088384  0  0.100854  0.073446  0  0.990218  0
H  H21  1  0.21841408  0.75708470  0.68010031  1  0.081573  0  0.100456  0.062853  0  1.012826  0
H  H22  1  0.24312727  0.60627352  0.77649812  1  0.038238  0  0.088765  0.120237  0  0.999101  0
H  H23  1  0.14567211  0.61863439  0.70021333  1  0.042384  0  0.096208  0.128717  0  0.990985  0
H  H24  1  0.26164911  0.55136779  0.67996775  1  0.054252  0  0.092928  0.136516  0  1.003002  0
H  H25  1  0.69286672  0.42050752  0.27195199  1  0.045256  0  0.110266  0.081682  0  0.959182  0
H  H26  1  0.67573894  0.33093638  0.21650864  1  0.073002  0  0.100936  0.058068  0  1.026362  0
H  H27  1  0.81831919  0.22704815  0.30166898  1  0.069309  0  0.092438  0.132147  0  1.015574  0
H  H28  1  0.85280028  0.32448754  0.24387517  1  0.038562  0  0.095382  0.127539  0  0.991485  0
H  H29  1  0.83117028  0.31701829  0.36026060  1  0.041618  0  0.097255  0.139532  0  0.987685  0
H  H30  1  0.58235531  0.25697060  0.17198090  1  0.041713  0  0.079483  0.028294  0  1.062934  0
H  H31  1  0.58814734  0.14020677  0.16925428  1  0.049743  0  0.089626  0.047939  0  1.024369  0
H  H32  1  0.76020825  0.12130549  0.11525523  1  0.053743  0  0.093832  0.133064  0  0.99327  0
H  H33  1  0.67926236  0.20336273  0.04134773  1  0.01964  0  0.082051  0.117125  0  1.036936  0
H  H34  1  0.75396892  0.23831463  0.11582947  1  0.033944  0  0.091805  0.126405  0  0.998874  0
H  H35  1  0.40423309  0.83598969  0.83289754  1  0.037185  0  0.088324  0.0459  0  1.011333  0
H  H36  1  0.38853508  0.73015098  0.80679945  1  0.080976  0  0.0861  0.041702  0  1.046722  0
H  H37  1  0.21493132  0.76664013  0.85504783  1  0.037268  0  0.092022  0.126928  0  0.996411  0
H  H38  1  0.29424071  0.77132864  0.94265401  1  0.04812  0  0.08911  0.124921  0  1.00911  0
H  H39  1  0.22951146  0.87304839  0.87951104  1  0.041772  0  0.092442  0.128359  0  0.997256  0
C  C40  1  0.51369610  0.58299366  0.34185489  1  1.565837  0  0.213159  0.597519  0  4.169783  0
C  C41  1  0.47858504  0.41905672  0.65238713  1  1.594148  0  0.212621  0.594196  0  4.17276  0
C  C42  1  0.48883645  0.56336189  0.09854887  1  -0.038637  0  -0.004098  0.048397  0  3.954317  0
C  C43  1  0.49110754  0.44305046  0.89557345  1  0.047352  0  -0.004136  0.047366  0  3.952535  0
C  C44  1  0.49457696  0.65196174  0.05692772  1  0.040952  0  -0.01075  0.057861  0  3.99476  0
C  C45  1  0.48794773  0.35393360  0.93748996  1  -0.049043  0  -0.010012  0.059379  0  3.993365  0
C  C46  1  0.47956514  0.49602207  0.04362112  1  0.018946  0  -0.002914  0.010903  0  3.907875  0
C  C47  1  0.49893321  0.51085895  0.95038034  1  -0.008403  0  -0.001417  0.013114  0  3.905298  0
C  C48  1  0.52785370  0.59375084  0.91612148  1  -0.253267  0  -0.041882  0.017522  0  3.850871  0
C  C49  1  0.45169168  0.41259851  0.07779062  1  -0.264101  0  -0.043785  0.014697  0  3.858384  0
C  C50  1  0.51763602  0.66342765  0.96532896  1  0.042542  0  -0.102011  -0.1688  0  4.025028  0
C  C51  1  0.46364263  0.34263933  0.02880779  1  0.034774  0  -0.10485  -0.170409  0  4.025663  0
C  C52  1  0.61442335  0.17747647  0.33368401  1  0.605889  0  0.070473  0.061484  0  4.051578  0
C  C53  1  0.37816274  0.83252317  0.65779846  1  0.599232  0  0.077373  0.074384  0  4.062362  0
C  C54  1  0.59527813  0.25916012  0.36855196  1  1.049504  0  0.203969  0.290081  0  4.09444  0
C  C55  1  0.39891878  0.74932935  0.62622317  1  1.064856  0  0.196576  0.274858  0  4.113293  0
C  C56  1  0.47830968  0.21313046  0.46399265  1  0.388245  0  0.094566  0.172181  0  3.861514  0
C  C57  1  0.51774139  0.79241021  0.53189966  1  0.388543  0  0.091458  0.163426  0  3.842992  0
C  C58  1  0.51188402  0.12121016  0.45249747  1  0.048784  0  -0.014177  -0.038845  0  3.958571  0
C  C59  1  0.48438684  0.88500455  0.54130307  1  0.00507  0  -0.007267  -0.024991  0  3.944609  0
C  C60  1  0.57341440  0.10613551  0.37684969  1  0.065887  0  0.000133  -0.047599  0  3.944338  0
C  C61  1  0.42170208  0.90215376  0.61575204  1  0.038841  0  -0.000649  -0.047925  0  3.946261  0
C  C62  1  0.67990032  0.47452521  0.53143332  1  1.698464  0  0.217914  0.653625  0  4.26342  0
C  C63  1  0.31452356  0.53776657  0.47323999  1  1.704284  0  0.220096  0.654378  0  4.260574  0
C  C64  1  0.48740449  0.04631708  0.51042574  1  0.018241  0  -0.013611  0.063741  0  4.006453  0
C  C65  1  0.51004347  0.95981994  0.48387570  1  0.005403  0  -0.016375  0.055291  0  4.00824  0
C  C66  1  0.55252070  0.95036771  0.39941387  1  0.02114  0  -0.120978  -0.283616  0  4.05838  0
C  C67  1  0.44710161  0.05604485  0.59582380  1  0.029573  0  -0.12017  -0.287446  0  4.051626  0
C  C68  1  0.58757639  0.01815539  0.34897570  1  0.438572  0  0.085001  0.227483  0  4.032093  0
C  C69  1  0.41160403  0.98849411  0.64603384  1  0.474573  0  0.086084  0.230661  0  4.04286  0
C  C70  1  0.78152591  0.47745922  0.53020828  1  0.194079  0  -0.014706  -0.126823  0  3.845227  0
C  C71  1  0.21250365  0.53674004  0.48031867  1  0.076133  0  -0.012817  -0.130958  0  3.847084  0
C  C72  1  0.86474248  0.48897548  0.52307331  1  -0.224548  0  -0.032602  -0.008905  0  4.298794  0
C  C73  1  0.12878621  0.52748127  0.49132595  1  -0.173948  0  -0.032574  -0.00656  0  4.295477  0
C  C74  1  0.95522138  0.50224295  0.51373295  1  -0.368841  0  -0.019036  -0.018966  0  4.231595  0
C  C75  1  0.03798645  0.51553465  0.50317909  1  0.168611  0  -0.017641  -0.018199  0  4.232363  0
C  C76  1  0.50233213  0.61059715  0.24322137  1  0.031371  0  -0.01379  -0.001472  0  3.949448  0
C  C77  1  0.48509296  0.39342118  0.75132172  1  -0.084466  0  -0.013161  -0.00171  0  3.950179  0
C  C78  1  0.49060016  0.72037580  0.11192056  1  -0.258525  0  -0.044683  0.014022  0  3.875972  0
C  C79  1  0.49662735  0.28440256  0.88318235  1  -0.27308  0  -0.045491  0.011042  0  3.877087  0
C  C80  1  0.49288862  0.70104326  0.20348850  1  0.020849  0  -0.088844  -0.130882  0  3.976069  0
C  C81  1  0.49787873  0.30277543  0.79162025  1  0.1095  0  -0.088232  -0.131563  0  3.977025  0
C  C82  1  0.49951347  0.54412417  0.19138572  1  -0.041908  0  -0.091762  -0.150554  0  3.975073  0
C  C83  1  0.48140871  0.46161871  0.80258092  1  -0.01325  0  -0.085614  -0.140381  0  3.95701  0
C  C84  1  0.65399128  0.91807498  0.24473636  1  0.383645  0  -0.068639  0.087686  0  3.895071  0
C  C85  1  0.71395105  0.92130418  0.16119608  1  -0.032013  0  -0.24518  -0.397206  0  3.979056  0
C  C86  1  0.34931185  0.08467084  0.75459599  1  0.372532  0  -0.068759  0.08997  0  3.896643  0
C  C87  1  0.29029519  0.07823039  0.83856129  1  -0.051966  0  -0.247813  -0.399065  0  3.9825  0
C  C88  1  0.25123406  0.69488995  0.65324442  1  0.346605  0  -0.06549  0.085462  0  3.844111  0
C  C89  1  0.22420316  0.61277033  0.70585784  1  -0.067775  0  -0.245915  -0.389528  0  3.963924  0
C  C90  1  0.70265311  0.34693813  0.27783526  1  0.408285  0  -0.055362  0.102565  0  3.860392  0
C  C91  1  0.80748376  0.30039014  0.29780682  1  -0.067457  0  -0.246999  -0.410295  0  3.966515  0
C  C92  1  0.63170560  0.18987150  0.17665855  1  0.371821  0  -0.076653  0.073808  0  3.921434  0
C  C93  1  0.71117941  0.18820964  0.10841503  1  -0.039465  0  -0.247956  -0.394472  0  3.969644  0
C  C94  1  0.35109390  0.80000473  0.81224683  1  0.360306  0  -0.07491  0.079652  0  3.90183  0
C  C95  1  0.26720281  0.80306171  0.87586625  1  -0.064403  0  -0.245446  -0.392191  0  3.969051  0
I  I96  1  0.48167333  0.85602134  0.05375788  1  0.072347  0  0.085059  -0.035125  0  1.449092  0
I  I97  1  0.50811657  0.14862557  0.94220269  1  0.076353  0  0.097708  -0.025178  0  1.490442  0
I  I98  1  0.60751296  0.61357884  0.79706269  1  0.140027  0  0.112048  0.016552  0  1.494323  0
I  I99  1  0.37330130  0.39034715  0.19731525  1  0.131462  0  0.106707  0.009608  0  1.470815  0
I  I100  1  0.65862596  0.74415718  0.48354344  1  0.184388  0  0.134929  0.032482  0  1.571525  0
I  I101  1  0.33779286  0.26059848  0.51345305  1  0.182914  0  0.135061  0.033155  0  1.557788  0
N  N102  1  0.52257980  0.27752483  0.42813846  1  -1.257315  0  -0.330203  -0.34812  0  3.555321  0
N  N103  1  0.47232442  0.72850824  0.56837385  1  -1.250399  0  -0.329049  -0.339773  0  3.550752  0
O  O104  1  0.50256036  0.64429021  0.39156882  1  -1.16729  0  -0.320161  -0.556175  0  2.328181  0
O  O105  1  0.49931714  0.35619470  0.60425459  1  -1.164481  0  -0.320845  -0.553347  0  2.324808  0
O  O106  1  0.53370188  0.49851168  0.36723648  1  -1.170422  0  -0.315856  -0.566563  0  2.442501  0
O  O107  1  0.45324104  0.50278374  0.62448011  1  -1.184063  0  -0.315194  -0.567043  0  2.43106  0
O  O108  1  0.62359978  0.54388948  0.55532099  1  -1.163345  0  -0.317003  -0.56811  0  2.384886  0
O  O109  1  0.36856293  0.46527753  0.45452367  1  -1.156886  0  -0.310981  -0.562978  0  2.374235  0
O  O110  1  0.65793836  0.40586406  0.50757949  1  -1.131351  0  -0.302797  -0.519634  0  2.258882  0
O  O111  1  0.33897256  0.60932234  0.48770935  1  -1.136213  0  -0.303979  -0.524811  0  2.26845  0
O  O112  1  0.63445441  0.00690529  0.27090248  1  -1.058979  0  -0.171371  -0.180736  0  2.557682  0
O  O113  1  0.36941633  0.99680022  0.72636856  1  -1.055334  0  -0.171407  -0.180795  0  2.556998  0
O  O114  1  0.35728197  0.68050653  0.65839882  1  -1.081258  0  -0.178255  -0.220076  0  2.572826  0
O  O115  1  0.63813392  0.32887898  0.35038296  1  -1.083259  0  -0.158299  -0.180563  0  2.643367  0
O  O116  1  0.67730467  0.16795915  0.26405398  1  -1.061529  0  -0.198355  -0.212239  0  2.560595  0
O  O117  1  0.31324884  0.84486524  0.72528364  1  -1.059254  0  -0.197343  -0.210839  0  2.552769  0
