# generated using pymatgen
data_CdH24(C11O2)4
_symmetry_space_group_name_H-M   'P 1'
_cell_length_a   9.91034788
_cell_length_b   14.35248511
_cell_length_c   15.20230518
_cell_angle_alpha   79.53824834
_cell_angle_beta   72.66823627
_cell_angle_gamma   85.31250190
_symmetry_Int_Tables_number   1
_chemical_formula_structural   CdH24(C11O2)4
_chemical_formula_sum   'Cd2 H48 C88 O16'
_cell_volume   2028.97431658
_cell_formula_units_Z   2
loop_
 _symmetry_equiv_pos_site_id
 _symmetry_equiv_pos_as_xyz
  1  'x, y, z'
loop_
 _atom_site_type_symbol
 _atom_site_label
 _atom_site_symmetry_multiplicity
 _atom_site_fract_x
 _atom_site_fract_y
 _atom_site_fract_z
 _atom_site_occupancy
 _atom_site_pbe_bader_charge
 _atom_site_pbe_bader_spin_density
 _atom_site_pbe_cm5_charge
 _atom_site_pbe_ddec_charge
 _atom_site_pbe_ddec_spin_density
 _atom_site_pbe_ddec_sum_bond_order
 _atom_site_pbe_magmom
Cd  Cd0  1  0.24827997  0.50278910  0.75095349  1  1.293144  0  0.781376  0.990509  0  1.955557  0
Cd  Cd1  1  0.74282737  0.49891597  0.24703757  1  1.293968  0  0.781909  0.990179  0  1.952473  0
H  H2  1  0.10736894  0.82092060  0.79649976  1  0.085967  0  0.099842  0.103208  0  1.030295  0
H  H3  1  0.76500143  0.99707326  0.94807869  1  0.071441  0  0.102517  0.107295  0  1.009972  0
H  H4  1  0.98340286  0.94374978  0.88967161  1  0.043651  0  0.096347  0.095369  0  1.046135  0
H  H5  1  0.10855579  0.75471656  0.59967250  1  0.119614  0  0.105893  0.106525  0  1.035773  0
H  H6  1  0.73635337  0.61862718  0.59740674  1  0.082888  0  0.110616  0.11251  0  0.992384  0
H  H7  1  0.66898401  0.76398690  0.50444062  1  0.091727  0  0.101223  0.103204  0  1.058689  0
H  H8  1  0.36621529  0.24737494  0.92217176  1  0.11075  0  0.105979  0.106604  0  1.04569  0
H  H9  1  0.76296843  0.37293178  0.89187439  1  0.049526  0  0.110104  0.110556  0  0.996812  0
H  H10  1  0.83090372  0.22955687  0.98703349  1  0.102078  0  0.098702  0.098648  0  1.070532  0
H  H11  1  0.39590773  0.18628278  0.70977090  1  0.098474  0  0.09952  0.102748  0  1.030421  0
H  H12  1  0.73067748  0.00525877  0.55885948  1  0.040621  0  0.104123  0.111114  0  1.004351  0
H  H13  1  0.51684384  0.06144029  0.61854568  1  0.063777  0  0.096114  0.09486  0  1.045875  0
H  H14  1  0.02792084  0.20122316  0.82522412  1  0.051976  0  0.101336  0.103643  0  1.027734  0
H  H15  1  0.03967141  0.19845553  0.66310491  1  0.047807  0  0.102797  0.108505  0  1.000599  0
H  H16  1  0.05583426  0.39972803  0.96740753  1  0.148403  0  0.105974  0.125937  0  1.029703  0
H  H17  1  0.98129576  0.09334384  0.46610088  1  0.06229  0  0.099366  0.101794  0  1.030293  0
H  H18  1  0.31937435  0.72661920  0.62130572  1  0.104268  0  0.1016  0.112908  0  1.038092  0
H  H19  1  0.17345572  0.27646255  0.87204152  1  0.11771  0  0.101977  0.114806  0  1.042239  0
H  H20  1  0.46896688  0.80300851  0.66354433  1  0.088276  0  0.101684  0.10414  0  1.029773  0
H  H21  1  0.46110378  0.80729995  0.82464966  1  0.085389  0  0.101695  0.106643  0  1.005773  0
H  H22  1  0.43592478  0.60183686  0.52802545  1  0.143497  0  0.104526  0.125276  0  1.031597  0
H  H23  1  0.57398094  0.88384170  0.95388533  1  0.048725  0  0.104508  0.108319  0  1.004322  0
H  H24  1  0.78274622  0.56362280  0.72462927  1  0.630616  0  0.333523  0.37068  0  0.898125  0
H  H25  1  0.70498272  0.41835041  0.76824640  1  0.636772  0  0.335853  0.371594  0  0.890324  0
H  H26  1  0.59748611  0.81552095  0.28875446  1  0.052486  0  0.100493  0.104832  0  1.028331  0
H  H27  1  0.26325296  0.99712625  0.43965951  1  0.074269  0  0.103177  0.108219  0  1.009024  0
H  H28  1  0.47708814  0.94074932  0.37963871  1  0.064981  0  0.09655  0.096083  0  1.042164  0
H  H29  1  0.64397571  0.73754694  0.04774092  1  0.136375  0  0.104872  0.106994  0  1.046716  0
H  H30  1  0.21262858  0.64535676  0.13424902  1  0.075167  0  0.109273  0.108284  0  1.001648  0
H  H31  1  0.14627759  0.78893497  0.03844325  1  0.08946  0  0.099536  0.100012  0  1.060899  0
H  H32  1  0.90741246  0.24175843  0.37741872  1  0.08229  0  0.10869  0.110673  0  1.020264  0
H  H33  1  0.23682955  0.39094290  0.42230508  1  0.073459  0  0.110399  0.112275  0  0.990389  0
H  H34  1  0.30389253  0.24476615  0.51420720  1  0.092558  0  0.101357  0.10376  0  1.051417  0
H  H35  1  0.88969077  0.18286280  0.20260519  1  0.128017  0  0.099942  0.102572  0  1.031996  0
H  H36  1  0.22522407  0.00343963  0.05121425  1  0.077695  0  0.102613  0.108203  0  1.008335  0
H  H37  1  0.01110890  0.05923712  0.11001936  1  0.049496  0  0.096552  0.095688  0  1.043919  0
H  H38  1  0.52786134  0.20084855  0.33399026  1  0.092377  0  0.102378  0.106761  0  1.020162  0
H  H39  1  0.53697280  0.19676125  0.17236832  1  0.087964  0  0.103158  0.108887  0  0.999402  0
H  H40  1  0.56225492  0.40069581  0.47205101  1  0.159608  0  0.103988  0.125332  0  1.034014  0
H  H41  1  0.43951151  0.10108246  0.01436604  1  0.079985  0  0.101348  0.105619  0  1.018748  0
H  H42  1  0.81889974  0.72516152  0.12575931  1  0.120173  0  0.101881  0.116758  0  1.042175  0
H  H43  1  0.67863936  0.27623883  0.37834174  1  0.1168  0  0.100678  0.110551  0  1.040349  0
H  H44  1  0.96029926  0.79825263  0.17528971  1  0.078781  0  0.100226  0.10146  0  1.036457  0
H  H45  1  0.94940755  0.80173552  0.33700349  1  0.073031  0  0.10094  0.105217  0  1.004169  0
H  H46  1  0.94109019  0.60273981  0.03027601  1  0.15603  0  0.105283  0.125448  0  1.031261  0
H  H47  1  0.03493859  0.90285117  0.51047634  1  0.047401  0  0.099464  0.102041  0  1.032891  0
H  H48  1  0.29279750  0.60051277  0.24384972  1  0.618184  0  0.336996  0.372956  0  0.883897  0
H  H49  1  0.20866566  0.45281003  0.28950068  1  0.632709  0  0.330721  0.368558  0  0.905271  0
C  C50  1  0.03238398  0.70448932  0.90776728  1  -0.023053  0  -0.018203  -0.025866  0  3.975903  0
C  C51  1  0.11049197  0.63178405  0.85142754  1  1.516303  0  0.189617  0.556911  0  4.215132  0
C  C52  1  0.04244958  0.80068776  0.86826300  1  -0.023641  0  -0.086876  -0.091278  0  3.985518  0
C  C53  1  0.97238866  0.86916098  0.92076721  1  -0.020906  0  -0.096712  -0.143131  0  3.989085  0
C  C54  1  0.84690074  0.84322481  0.50139371  1  -0.034413  0  0.007052  0.093511  0  3.979351  0
C  C55  1  0.92747345  0.67779605  0.60560721  1  -0.033822  0  -0.027436  -0.086974  0  4.056599  0
C  C56  1  0.97715899  0.59042057  0.65680466  1  1.480535  0  0.244573  0.600365  0  4.076577  0
C  C57  1  0.96974085  0.84060788  0.52959210  1  -0.016792  0  -0.086275  -0.129143  0  3.950819  0
C  C58  1  0.01117926  0.75803772  0.57990309  1  -0.031344  0  -0.07385  -0.061651  0  3.948716  0
C  C59  1  0.80205524  0.68075217  0.57989180  1  -0.044553  0  -0.085345  -0.104728  0  3.993547  0
C  C60  1  0.76379051  0.76245853  0.52695205  1  -0.035723  0  -0.083163  -0.114074  0  3.940404  0
C  C61  1  0.64022506  0.15566217  0.00684067  1  0.028068  0  0.009331  0.097068  0  3.973103  0
C  C62  1  0.55970559  0.31873749  0.89942679  1  -0.089995  0  -0.026787  -0.086481  0  4.056212  0
C  C63  1  0.51234188  0.40482964  0.84517777  1  1.481292  0  0.244993  0.59907  0  4.072167  0
C  C64  1  0.50976725  0.16083167  0.98763985  1  -0.046954  0  -0.085511  -0.130544  0  3.949625  0
C  C65  1  0.46872046  0.24228754  0.93552209  1  -0.004563  0  -0.075484  -0.061298  0  3.9431  0
C  C66  1  0.69185488  0.31327866  0.91683246  1  -0.017394  0  -0.085881  -0.10564  0  3.996857  0
C  C67  1  0.73039089  0.23278385  0.97119268  1  -0.050673  0  -0.081455  -0.110719  0  3.93789  0
C  C68  1  0.47073138  0.30108913  0.59642888  1  -0.054575  0  -0.020826  -0.0313  0  3.983013  0
C  C69  1  0.39037090  0.37454937  0.65080494  1  1.499558  0  0.187403  0.553647  0  4.216559  0
C  C70  1  0.46022875  0.20530503  0.63767389  1  -0.079565  0  -0.089796  -0.096755  0  3.99705  0
C  C71  1  0.52806858  0.13565171  0.58614003  1  -0.007521  0  -0.095337  -0.140157  0  3.98884  0
C  C72  1  0.09384924  0.14753465  0.78894746  1  -0.006259  0  -0.087986  -0.115  0  4.004228  0
C  C73  1  0.18094068  0.07458861  0.64897115  1  0.021871  0  -0.006147  0.030004  0  4.011754  0
C  C74  1  0.19304344  0.07450844  0.55377210  1  -0.050782  0  -0.006855  0.01973  0  3.991378  0
C  C75  1  0.09943811  0.14550632  0.69852457  1  -0.024243  0  -0.090081  -0.123796  0  4.011377  0
C  C76  1  0.32530236  0.92470179  0.65137370  1  0.005408  0  -0.005285  0.022922  0  3.979109  0
C  C77  1  0.32247829  0.92116197  0.55899138  1  -0.077082  0  -0.004188  0.028817  0  3.958522  0
C  C78  1  0.25092250  0.00086469  0.69729337  1  -0.049292  0  0.001364  0.000339  0  3.916372  0
C  C79  1  0.39045021  0.84361777  0.50740853  1  0.061136  0  -0.00641  0.071483  0  3.989445  0
C  C80  1  0.44456727  0.67646728  0.49629944  1  -0.095243  0  -0.082496  -0.087267  0  3.934109  0
C  C81  1  0.25855471  0.99729650  0.51228241  1  0.004575  0  -0.088969  -0.179805  0  3.993538  0
C  C82  1  0.37989078  0.74703002  0.54830277  1  -0.084151  0  -0.093152  -0.146758  0  3.96528  0
C  C83  1  0.17273765  0.08031336  0.83738531  1  0.01213  0  -0.004824  0.025191  0  3.98027  0
C  C84  1  0.17034622  0.08178425  0.93118849  1  -0.036111  0  -0.004003  0.028035  0  3.961655  0
C  C85  1  0.24976814  0.00524011  0.79079670  1  -0.017812  0  0.002792  0.001881  0  3.912208  0
C  C86  1  0.10010449  0.15809967  0.98386887  1  -0.020998  0  -0.007564  0.068329  0  3.992367  0
C  C87  1  0.04610276  0.32474115  0.99765256  1  -0.064589  0  -0.081332  -0.086334  0  3.933018  0
C  C88  1  0.23326285  0.00500616  0.97779074  1  -0.03122  0  -0.089019  -0.181112  0  3.997035  0
C  C89  1  0.11122317  0.25511113  0.94450172  1  -0.098193  0  -0.093908  -0.148975  0  3.970814  0
C  C90  1  0.40534680  0.85784825  0.69928042  1  -0.052209  0  -0.087794  -0.114263  0  4.005197  0
C  C91  1  0.32170095  0.93215497  0.83853940  1  0.026137  0  -0.006645  0.02866  0  4.013735  0
C  C92  1  0.30631840  0.93093365  0.93427310  1  -0.04889  0  -0.007488  0.018117  0  3.996748  0
C  C93  1  0.40235049  0.86086880  0.78906917  1  -0.077387  0  -0.08987  -0.122377  0  4.006429  0
C  C94  1  0.52479220  0.70109931  0.40275529  1  -0.015983  0  -0.021585  -0.032379  0  3.983781  0
C  C95  1  0.60360457  0.62748326  0.34799045  1  1.524276  0  0.188498  0.553336  0  4.222007  0
C  C96  1  0.53414240  0.79674874  0.36111678  1  0.010012  0  -0.088513  -0.095735  0  3.996015  0
C  C97  1  0.46642570  0.86662282  0.41241777  1  -0.097034  0  -0.094988  -0.138421  0  3.989676  0
C  C98  1  0.35475505  0.84675806  0.99107290  1  -0.059934  0  0.008724  0.098622  0  3.9712  0
C  C99  1  0.43328070  0.68344319  0.09949013  1  -0.051903  0  -0.026022  -0.084023  0  4.050587  0
C  C100  1  0.47836349  0.59852267  0.15643543  1  1.491796  0  0.243911  0.595699  0  4.073937  0
C  C101  1  0.49521037  0.83151075  0.99358499  1  -0.008077  0  -0.082634  -0.129359  0  3.955651  0
C  C102  1  0.53469463  0.75000982  0.04640171  1  -0.039335  0  -0.074122  -0.060353  0  3.939934  0
C  C103  1  0.29238502  0.69827006  0.09729198  1  -0.048399  0  -0.085438  -0.10672  0  3.999407  0
C  C104  1  0.25431990  0.77888966  0.04284132  1  -0.00969  0  -0.081629  -0.112026  0  3.938391  0
C  C105  1  0.14709576  0.15930862  0.49684623  1  -0.052902  0  0.006398  0.092918  0  3.977113  0
C  C106  1  0.06702866  0.32563798  0.39314485  1  -0.036116  0  -0.025665  -0.084082  0  4.048644  0
C  C107  1  0.01536027  0.41397227  0.34446190  1  1.48435  0  0.243843  0.600483  0  4.078518  0
C  C108  1  0.03733613  0.15849685  0.45623151  1  -0.04058  0  -0.086042  -0.127679  0  3.948368  0
C  C109  1  0.99569733  0.24135779  0.40631983  1  0.032326  0  -0.074235  -0.065016  0  3.949617  0
C  C110  1  0.18079000  0.32600116  0.43042210  1  -0.086461  0  -0.085641  -0.10576  0  3.994462  0
C  C111  1  0.21847915  0.24388027  0.48295332  1  0.006416  0  -0.082222  -0.112707  0  3.941432  0
C  C112  1  0.96473916  0.29876864  0.09069809  1  -0.016454  0  -0.017383  -0.025644  0  3.974302  0
C  C113  1  0.88516870  0.37160905  0.14631680  1  1.53322  0  0.188396  0.556857  0  4.212612  0
C  C114  1  0.95434443  0.20268210  0.13071072  1  -0.094628  0  -0.087456  -0.095017  0  3.99343  0
C  C115  1  0.02258616  0.13367736  0.07841256  1  -0.045983  0  -0.096048  -0.140068  0  3.990908  0
C  C116  1  0.59149412  0.14598544  0.29824779  1  -0.071668  0  -0.087238  -0.114007  0  3.999745  0
C  C117  1  0.67529371  0.07138755  0.15911902  1  -0.027133  0  -0.006494  0.029478  0  4.014365  0
C  C118  1  0.68851061  0.07159043  0.06385554  1  0.037578  0  -0.008176  0.020487  0  3.99435  0
C  C119  1  0.59534895  0.14313638  0.20823017  1  -0.015922  0  -0.089355  -0.122356  0  4.005031  0
C  C120  1  0.82051112  0.92173599  0.16134089  1  -0.056074  0  -0.004864  0.023034  0  3.978156  0
C  C121  1  0.82192186  0.91990274  0.06778628  1  -0.004067  0  -0.004086  0.030029  0  3.962126  0
C  C122  1  0.74549425  0.99770135  0.20737182  1  -0.036602  0  0.002983  0.001914  0  3.914917  0
C  C123  1  0.89322785  0.84404123  0.01487137  1  -0.061486  0  -0.008775  0.068436  0  3.993946  0
C  C124  1  0.95019222  0.67785662  0.00050359  1  -0.048577  0  -0.081901  -0.087445  0  3.93715  0
C  C125  1  0.75828520  0.99624388  0.02118319  1  -0.119504  0  -0.090671  -0.18208  0  3.996954  0
C  C126  1  0.88273680  0.74687219  0.05377758  1  -0.092981  0  -0.09448  -0.152215  0  3.97276  0
C  C127  1  0.67021529  0.07853922  0.34667327  1  -0.03424  0  -0.006419  0.021045  0  3.983364  0
C  C128  1  0.67202501  0.08158403  0.43939197  1  0.013356  0  -0.002204  0.030856  0  3.957826  0
C  C129  1  0.74411992  0.00215107  0.30088291  1  0.017597  0  0.000938  -0.00095  0  3.921545  0
C  C130  1  0.60470025  0.15902125  0.49127234  1  -0.085165  0  -0.007645  0.072726  0  3.991463  0
C  C131  1  0.55249590  0.32599319  0.50329938  1  -0.045977  0  -0.083579  -0.08984  0  3.937683  0
C  C132  1  0.73498435  0.00504963  0.48632047  1  -0.06145  0  -0.0911  -0.183009  0  3.993195  0
C  C133  1  0.61691107  0.25563368  0.45100063  1  -0.049386  0  -0.090325  -0.140872  0  3.966397  0
C  C134  1  0.89722362  0.85351166  0.21052593  1  -0.038254  0  -0.088872  -0.11701  0  4.008193  0
C  C135  1  0.81280359  0.92793223  0.34955118  1  -0.020762  0  -0.006342  0.031969  0  4.017271  0
C  C136  1  0.80043710  0.92805462  0.44462490  1  0.007033  0  -0.008765  0.016711  0  3.999478  0
C  C137  1  0.89198568  0.85576173  0.30082382  1  -0.029423  0  -0.0909  -0.123895  0  4.013521  0
O  O138  1  0.06962174  0.54617206  0.87442922  1  -1.141816  0  -0.327608  -0.545132  0  2.17538  0
O  O139  1  0.28361029  0.34893363  0.72132460  1  -1.14843  0  -0.334249  -0.560722  0  2.1859  0
O  O140  1  0.10258289  0.56796176  0.64576050  1  -1.127334  0  -0.270252  -0.470353  0  2.228139  0
O  O141  1  0.87655004  0.53302323  0.71821455  1  -1.13374  0  -0.33503  -0.484203  0  2.260378  0
O  O142  1  0.38874250  0.43317669  0.85957483  1  -1.135992  0  -0.266908  -0.462993  0  2.216354  0
O  O143  1  0.61483255  0.45412812  0.77578429  1  -1.135413  0  -0.333731  -0.484054  0  2.264976  0
O  O144  1  0.21699343  0.65711388  0.78072856  1  -1.148391  0  -0.33434  -0.562228  0  2.176837  0
O  O145  1  0.42822652  0.46078012  0.62654415  1  -1.133975  0  -0.328004  -0.547521  0  2.180213  0
O  O146  1  0.56976979  0.54069865  0.37522380  1  -1.142562  0  -0.326661  -0.545244  0  2.189065  0
O  O147  1  0.77682675  0.34595989  0.21560509  1  -1.149822  0  -0.332534  -0.559513  0  2.179413  0
O  O148  1  0.59816430  0.56279192  0.13794151  1  -1.134177  0  -0.26774  -0.463912  0  2.20404  0
O  O149  1  0.37795361  0.55931731  0.23441245  1  -1.117598  0  -0.330421  -0.480362  0  2.266212  0
O  O150  1  0.89005075  0.43099407  0.34977272  1  -1.132589  0  -0.269671  -0.470658  0  2.241075  0
O  O151  1  0.11286941  0.47897328  0.29345038  1  -1.137839  0  -0.337073  -0.485629  0  2.254667  0
O  O152  1  0.70461598  0.65357073  0.27378349  1  -1.154112  0  -0.334117  -0.561662  0  2.191187  0
O  O153  1  0.92565548  0.45724624  0.12405218  1  -1.141736  0  -0.327327  -0.545159  0  2.167888  0
