# generated using pymatgen
data_ZnNiH14(C5N4)2
_symmetry_space_group_name_H-M   'P 1'
_cell_length_a   8.42538156
_cell_length_b   8.59618000
_cell_length_c   11.00616890
_cell_angle_alpha   76.00436766
_cell_angle_beta   76.53854393
_cell_angle_gamma   68.88790465
_symmetry_Int_Tables_number   1
_chemical_formula_structural   ZnNiH14(C5N4)2
_chemical_formula_sum   'Zn2 Ni2 H28 C20 N16'
_cell_volume   712.14716253
_cell_formula_units_Z   2
loop_
 _symmetry_equiv_pos_site_id
 _symmetry_equiv_pos_as_xyz
  1  'x, y, z'
loop_
 _atom_site_type_symbol
 _atom_site_label
 _atom_site_symmetry_multiplicity
 _atom_site_fract_x
 _atom_site_fract_y
 _atom_site_fract_z
 _atom_site_occupancy
 _atom_site_hle17_bader_spin_density
 _atom_site_hle17_ddec_charge
 _atom_site_hle17_ddec_spin_density
 _atom_site_hle17_ddec_sum_bond_order
 _atom_site_hle17_magmom
 _atom_site_hse06_10hf_bader_spin_density
 _atom_site_hse06_10hf_ddec_charge
 _atom_site_hse06_10hf_ddec_spin_density
 _atom_site_hse06_10hf_ddec_sum_bond_order
 _atom_site_hse06_10hf_magmom
 _atom_site_hse06_bader_spin_density
 _atom_site_hse06_ddec_charge
 _atom_site_hse06_ddec_spin_density
 _atom_site_hse06_ddec_sum_bond_order
 _atom_site_hse06_magmom
 _atom_site_pbe_bader_spin_density
 _atom_site_pbe_cm5_charge
 _atom_site_pbe_ddec_charge
 _atom_site_pbe_ddec_spin_density
 _atom_site_pbe_ddec_sum_bond_order
 _atom_site_pbe_magmom
Zn  Zn0  1  0.82526548  0.65966628  0.26934215  1  0  0.971304  0  1.907824  0  0  0.798397  0  2.350073  0  0  0.837206  0  2.309962  0  0  0.680068  0.771783  0  2.377332  0
Zn  Zn1  1  0.17473609  0.34033356  0.73065989  1  0  0.971284  0  1.907805  0  0  0.798372  0  2.350046  0  0  0.837183  0  2.309936  0  0  0.680044  0.771758  0  2.377305  0
Ni  Ni2  1  0.50000430  0.49999304  0.00000159  1  0  0.1275  0  3.397222  0  0  0.138456  0  3.8657  0  0  0.148379  0  3.817714  0  0  0.395001  0.140267  0  3.893306  0
Ni  Ni3  1  0.99999798  0.99999995  0.49999618  1  0  0.120113  0  3.399603  0  0  0.136826  0  3.855378  0  0  0.14409  0  3.813468  0  0  0.392882  0.140266  0  3.87906  0
H  H4  1  0.68535930  0.44342216  0.43552518  1  0  0.329398  0  0.91786  0  0  0.317421  0  0.975883  0  0  0.322441  0  0.973394  0  0  0.282652  0.313892  0  0.977617  0
H  H5  1  0.31463658  0.55658018  0.56447554  1  0  0.329428  0  0.917806  0  0  0.317433  0  0.975855  0  0  0.322454  0  0.973365  0  0  0.282663  0.313903  0  0.977589  0
H  H6  1  0.60720680  0.62702853  0.48659457  1  0  0.333384  0  0.926799  0  0  0.317728  0  0.991567  0  0  0.324444  0  0.986093  0  0  0.278629  0.312958  0  0.995468  0
H  H7  1  0.39278709  0.37297254  0.51340580  1  0  0.333439  0  0.926768  0  0  0.317795  0  0.991504  0  0  0.324511  0  0.98603  0  0  0.278688  0.313024  0  0.995407  0
H  H8  1  0.80457520  0.49681308  0.50601194  1  0  0.325663  0  0.915733  0  0  0.312484  0  0.978145  0  0  0.317017  0  0.976171  0  0  0.284526  0.30925  0  0.97962  0
H  H9  1  0.19541783  0.50318665  0.49399336  1  0  0.325674  0  0.915713  0  0  0.312474  0  0.978145  0  0  0.317005  0  0.976173  0  0  0.284536  0.309241  0  0.979621  0
H  H10  1  0.94399555  0.70180424  0.02629890  1  0  0.321016  0  0.902772  0  0  0.313384  0  0.956076  0  0  0.3176  0  0.954593  0  0  0.28687  0.31035  0  0.957229  0
H  H11  1  0.05600704  0.29818547  0.97370296  1  0  0.321049  0  0.902721  0  0  0.313414  0  0.956026  0  0  0.31763  0  0.954543  0  0  0.286909  0.31038  0  0.957179  0
H  H12  1  0.05864624  0.77210863  0.08780556  1  0  0.327824  0  0.919464  0  0  0.317527  0  0.976526  0  0  0.322165  0  0.974415  0  0  0.282695  0.314269  0  0.978003  0
H  H13  1  0.94135876  0.22788494  0.91219249  1  0  0.327843  0  0.919439  0  0  0.317546  0  0.976501  0  0  0.322183  0  0.974395  0  0  0.282729  0.314288  0  0.977978  0
H  H14  1  0.86376336  0.89336632  0.06264767  1  0  0.334089  0  0.938009  0  0  0.31624  0  1.007455  0  0  0.323377  0  1.001351  0  0  0.276602  0.311198  0  1.011751  0
H  H15  1  0.13624041  0.10662723  0.93735150  1  0  0.33405  0  0.938076  0  0  0.316189  0  1.007556  0  0  0.323329  0  1.001446  0  0  0.276604  0.311148  0  1.011851  0
H  H16  1  0.21984801  0.51168054  0.28743729  1  0  0.069714  0  0.960437  0  0  0.077599  0  1.026959  0  0  0.0808  0  1.023473  0  0  0.112096  0.075177  0  1.029758  0
H  H17  1  0.78014782  0.48832177  0.71256617  1  0  0.069633  0  0.960348  0  0  0.077514  0  1.026887  0  0  0.080716  0  1.023399  0  0  0.112067  0.075091  0  1.029687  0
H  H18  1  0.46720670  0.24505800  0.28353477  1  0  0.108442  0  0.976176  0  0  0.113229  0  1.046269  0  0  0.117003  0  1.044606  0  0  0.103765  0.110523  0  1.047687  0
H  H19  1  0.53279064  0.75495068  0.71646730  1  0  0.108464  0  0.976042  0  0  0.11325  0  1.04614  0  0  0.11703  0  1.04448  0  0  0.103765  0.110541  0  1.047567  0
H  H20  1  0.89615865  0.29513636  0.21141529  1  0  0.076855  0  0.959277  0  0  0.084543  0  1.023826  0  0  0.08633  0  1.023445  0  0  0.112607  0.083295  0  1.02415  0
H  H21  1  0.10383804  0.70486728  0.78858324  1  0  0.076864  0  0.959333  0  0  0.084579  0  1.02385  0  0  0.086402  0  1.023428  0  0  0.112597  0.083331  0  1.024174  0
H  H22  1  0.13455218  0.02227819  0.19187174  1  0  0.113894  0  0.946392  0  0  0.125086  0  1.004478  0  0  0.128241  0  1.003579  0  0  0.108906  0.122847  0  1.005354  0
H  H23  1  0.86545508  0.97772301  0.80812638  1  0  0.113965  0  0.946578  0  0  0.125173  0  1.004629  0  0  0.128326  0  1.003726  0  0  0.10895  0.122933  0  1.005511  0
H  H24  1  0.41332959  0.83954865  0.26130900  1  0  0.076827  0  0.919393  0  0  0.095153  0  0.977301  0  0  0.094896  0  0.978833  0  0  0.110088  0.095368  0  0.976189  0
H  H25  1  0.58666569  0.16046256  0.73869206  1  0  0.07685  0  0.919322  0  0  0.095195  0  0.977245  0  0  0.094929  0  0.978786  0  0  0.110098  0.095407  0  0.976134  0
H  H26  1  0.51377324  0.93873061  0.12202767  1  0  0.08255  0  0.91386  0  0  0.101159  0  0.972797  0  0  0.101243  0  0.973967  0  0  0.112644  0.101056  0  0.972068  0
H  H27  1  0.48622665  0.06127432  0.87797192  1  0  0.082586  0  0.91384  0  0  0.101242  0  0.97275  0  0  0.101327  0  0.973916  0  0  0.112672  0.101137  0  0.97202  0
H  H28  1  0.57442978  0.91942248  0.37896804  1  0  0.289682  0  0.904795  0  0  0.280648  0  0.961461  0  0  0.285324  0  0.959175  0  0  0.291221  0.27736  0  0.963107  0
H  H29  1  0.42557095  0.08057991  0.62103278  1  0  0.289683  0  0.904775  0  0  0.280627  0  0.961489  0  0  0.285301  0  0.959205  0  0  0.291239  0.27735  0  0.963108  0
H  H30  1  0.67378861  0.00118332  0.24509373  1  0  0.286672  0  0.910476  0  0  0.279128  0  0.963969  0  0  0.28342  0  0.962308  0  0  0.292963  0.276147  0  0.965075  0
H  H31  1  0.32621539  0.99881654  0.75490790  1  0  0.286715  0  0.910408  0  0  0.279169  0  0.963903  0  0  0.283462  0  0.962242  0  0  0.292986  0.276189  0  0.965012  0
C  C32  1  0.77487855  0.12032180  0.47750745  1  0  0.049195  0  3.520303  0  0  0.025114  0  3.857407  0  0  0.031158  0  3.861586  0  0  0.008977  0.018245  0  3.855007  0
C  C33  1  0.22513380  0.87967190  0.52248571  1  0  0.04917  0  3.521259  0  0  0.025105  0  3.85831  0  0  0.031135  0  3.862503  0  0  0.008996  0.018247  0  3.855905  0
C  C34  1  0.61486082  0.54445412  0.10318884  1  0  0.081246  0  3.485091  0  0  0.049493  0  3.815285  0  0  0.058216  0  3.818391  0  0  0.018913  0.041273  0  3.812934  0
C  C35  1  0.38513851  0.45553426  0.89681562  1  0  0.081464  0  3.485095  0  0  0.049727  0  3.815258  0  0  0.058446  0  3.818366  0  0  0.019062  0.041509  0  3.812906  0
C  C36  1  0.98768129  0.83677376  0.42468231  1  0  0.088296  0  3.479386  0  0  0.056179  0  3.809259  0  0  0.065656  0  3.813677  0  0  0.018918  0.047459  0  3.806067  0
C  C37  1  0.01231486  0.16322106  0.57531153  1  0  0.088095  0  3.479378  0  0  0.055971  0  3.809267  0  0  0.065449  0  3.813687  0  0  0.018753  0.04725  0  3.806076  0
C  C38  1  0.20567486  0.39897157  0.26832894  1  0  0.12297  0  3.72874  0  0  0.092131  0  3.988389  0  0  0.099105  0  4.004704  0  0  0.042291  0.087411  0  3.97779  0
C  C39  1  0.79432327  0.60103839  0.73167277  1  0  0.122921  0  3.728733  0  0  0.092085  0  3.988394  0  0  0.099057  0  4.004714  0  0  0.042193  0.087369  0  3.97779  0
C  C40  1  0.34470733  0.24976806  0.26360978  1  0  -0.166782  0  3.712646  0  0  -0.186842  0  3.966443  0  0  -0.194795  0  3.986846  0  0  -0.086717  -0.181797  0  3.953059  0
C  C41  1  0.65530055  0.75023815  0.73639371  1  0  -0.166612  0  3.712616  0  0  -0.186664  0  3.966398  0  0  -0.194617  0  3.986796  0  0  -0.086585  -0.181625  0  3.953016  0
C  C42  1  0.02583469  0.27960155  0.22436634  1  0  0.112979  0  3.743139  0  0  0.082524  0  4.002405  0  0  0.089718  0  4.018154  0  0  0.03962  0.077785  0  3.992244  0
C  C43  1  0.97417940  0.72040096  0.77563313  1  0  0.112953  0  3.743006  0  0  0.082468  0  4.00227  0  0  0.089633  0  4.018004  0  0  0.039609  0.077728  0  3.992113  0
C  C44  1  0.63738913  0.27681266  0.01595432  1  0  0.042724  0  3.537645  0  0  0.018936  0  3.876569  0  0  0.024613  0  3.87938  0  0  0.008224  0.012343  0  3.874972  0
C  C45  1  0.36261626  0.72317963  0.98404571  1  0  0.042636  0  3.537922  0  0  0.018844  0  3.876843  0  0  0.024515  0  3.879656  0  0  0.008278  0.012254  0  3.875249  0
C  C46  1  0.32322236  0.10941985  0.23501991  1  0  0.125085  0  3.704416  0  0  0.140936  0  3.943081  0  0  0.145716  0  3.965467  0  0  0.013737  0.137929  0  3.927809  0
C  C47  1  0.67678197  0.89058640  0.76497780  1  0  0.125009  0  3.704405  0  0  0.140876  0  3.943105  0  0  0.145652  0  3.965496  0  0  0.013764  0.137871  0  3.927827  0
C  C48  1  0.15886401  0.12730566  0.21480242  1  0  -0.174198  0  3.728186  0  0  -0.195867  0  3.987735  0  0  -0.202553  0  4.004669  0  0  -0.085603  -0.191916  0  3.977041  0
C  C49  1  0.84113651  0.87270816  0.78519639  1  0  -0.174218  0  3.728262  0  0  -0.195892  0  3.987783  0  0  -0.202575  0  4.004727  0  0  -0.085627  -0.191946  0  3.977092  0
C  C50  1  0.46670061  0.94397452  0.22349459  1  0  0.028349  0  3.690246  0  0  -0.033958  0  3.951521  0  0  -0.031096  0  3.963903  0  0  -0.066413  -0.035783  0  3.94274  0
C  C51  1  0.53329839  0.05603292  0.77650652  1  0  0.028318  0  3.690101  0  0  -0.034107  0  3.951533  0  0  -0.031236  0  3.963918  0  0  -0.066461  -0.035929  0  3.942742  0
N  N52  1  0.71685851  0.54393139  0.44507189  1  0  -0.873705  0  2.937713  0  0  -0.830941  0  3.158017  0  0  -0.850819  0  3.146195  0  0  -0.774612  -0.816937  0  3.166077  0
N  N53  1  0.28313740  0.45606712  0.55493133  1  0  -0.873784  0  2.937677  0  0  -0.830984  0  3.15806  0  0  -0.850859  0  3.146237  0  0  -0.774669  -0.816981  0  3.166124  0
N  N54  1  0.93661516  0.77012983  0.09264810  1  0  -0.876884  0  2.950042  0  0  -0.838738  0  3.170594  0  0  -0.858556  0  3.159176  0  0  -0.778277  -0.824517  0  3.178293  0
N  N55  1  0.06338858  0.22986370  0.90735289  1  0  -0.876896  0  2.950062  0  0  -0.838712  0  3.170574  0  0  -0.858534  0  3.159156  0  0  -0.778349  -0.824491  0  3.178272  0
N  N56  1  0.04783038  0.41510783  0.25018920  1  0  -0.329926  0  3.245552  0  0  -0.257123  0  3.508631  0  0  -0.273983  0  3.526348  0  0  -0.322271  -0.245724  0  3.496649  0
N  N57  1  0.95217153  0.58489454  0.74981324  1  0  -0.329912  0  3.245484  0  0  -0.257102  0  3.508561  0  0  -0.273965  0  3.526293  0  0  -0.322247  -0.245704  0  3.496578  0
N  N58  1  0.97592586  0.73677267  0.37387808  1  0  -0.454508  0  2.942564  0  0  -0.384503  0  3.222364  0  0  -0.402701  0  3.233182  0  0  -0.361381  -0.37173  0  3.215355  0
N  N59  1  0.02406411  0.26322587  0.62611795  1  0  -0.454331  0  2.942377  0  0  -0.384327  0  3.222146  0  0  -0.402524  0  3.232967  0  0  -0.361246  -0.371549  0  3.215135  0
N  N60  1  0.68633097  0.57635099  0.16866796  1  0  -0.433769  0  3.00365  0  0  -0.36172  0  3.288938  0  0  -0.37975  0  3.30062  0  0  -0.3557  -0.348988  0  3.281294  0
N  N61  1  0.31366315  0.42365253  0.83133920  1  0  -0.434001  0  3.00384  0  0  -0.361972  0  3.289143  0  0  -0.380003  0  3.300826  0  0  -0.355844  -0.349241  0  3.2815  0
N  N62  1  0.63137190  0.19622798  0.46287753  1  0  -0.449973  0  2.795536  0  0  -0.400102  0  3.042896  0  0  -0.414136  0  3.055458  0  0  -0.358291  -0.389959  0  3.034859  0
N  N63  1  0.36860378  0.80377677  0.53711976  1  0  -0.449894  0  2.796729  0  0  -0.400024  0  3.044093  0  0  -0.414056  0  3.056661  0  0  -0.358295  -0.389879  0  3.036055  0
N  N64  1  0.61538352  0.91095222  0.28492379  1  0  -0.623133  0  3.110159  0  0  -0.574483  0  3.356969  0  0  -0.591211  0  3.356975  0  0  -0.618492  -0.56266  0  3.356583  0
N  N65  1  0.38461843  0.08905017  0.71507682  1  0  -0.623192  0  3.11008  0  0  -0.574511  0  3.356952  0  0  -0.591237  0  3.356948  0  0  -0.618565  -0.562685  0  3.35657  0
N  N66  1  0.72416987  0.13384895  0.02584611  1  0  -0.439134  0  2.816942  0  0  -0.388465  0  3.061462  0  0  -0.40238  0  3.075008  0  0  -0.353215  -0.378245  0  3.052567  0
N  N67  1  0.27583951  0.86613205  0.97414710  1  0  -0.439012  0  2.817307  0  0  -0.388334  0  3.06181  0  0  -0.402249  0  3.075355  0  0  -0.353239  -0.378114  0  3.052919  0
