# generated using pymatgen
data_ZnH10C20I2NO5
_symmetry_space_group_name_H-M   'P 1'
_cell_length_a   13.65443726
_cell_length_b   14.71751015
_cell_length_c   16.07688165
_cell_angle_alpha   90.06057841
_cell_angle_beta   88.82728561
_cell_angle_gamma   66.27356258
_symmetry_Int_Tables_number   1
_chemical_formula_structural   ZnH10C20I2NO5
_chemical_formula_sum   'Zn2 H20 C40 I4 N2 O10'
_cell_volume   2956.95052828
_cell_formula_units_Z   2
loop_
 _symmetry_equiv_pos_site_id
 _symmetry_equiv_pos_as_xyz
  1  'x, y, z'
loop_
 _atom_site_type_symbol
 _atom_site_label
 _atom_site_symmetry_multiplicity
 _atom_site_fract_x
 _atom_site_fract_y
 _atom_site_fract_z
 _atom_site_occupancy
 _atom_site_pbe_bader_charge
 _atom_site_pbe_bader_spin_density
 _atom_site_pbe_cm5_charge
 _atom_site_pbe_ddec_charge
 _atom_site_pbe_ddec_spin_density
 _atom_site_pbe_ddec_sum_bond_order
 _atom_site_pbe_magmom
Zn  Zn0  1  0.48299682  0.59942130  0.50768748  1  1.317736  0  0.685009  0.900778  0  2.402133  0
Zn  Zn1  1  0.51175227  0.40161942  0.50887716  1  1.321645  0  0.685454  0.89009  0  2.392764  0
H  H2  1  0.52719300  0.64557740  0.08870707  1  0.107096  0  0.114955  0.136273  0  0.977925  0
H  H3  1  0.50973713  0.35861627  0.08136391  1  0.068912  0  0.109062  0.11597  0  0.986419  0
H  H4  1  0.52484438  0.35855206  0.92653607  1  0.072989  0  0.108982  0.112386  0  0.982338  0
H  H5  1  0.61528875  0.03260287  0.60031404  1  0.109474  0  0.128893  0.135288  0  0.959986  0
H  H6  1  0.60293703  0.86770131  0.59717540  1  0.104394  0  0.117376  0.125105  0  0.991548  0
H  H7  1  0.36424334  0.97386797  0.40711829  1  0.098059  0  0.130123  0.137611  0  0.954321  0
H  H8  1  0.37621957  0.13889937  0.41066065  1  0.136266  0  0.132222  0.141826  0  0.949887  0
H  H9  1  0.05994892  0.22011001  0.53665457  1  0.084475  0  0.092748  0.112745  0  1.049713  0
H  H10  1  0.87870388  0.65034452  0.46225454  1  0.093665  0  0.094446  0.101707  0  1.032028  0
H  H11  1  0.95906431  0.76962029  0.43510887  1  0.056856  0  0.099038  0.109316  0  0.999764  0
H  H12  1  0.79237014  0.23504051  0.59362875  1  0.062093  0  0.097805  0.06548  0  0.991295  0
H  H13  1  0.92927110  0.14741269  0.58570378  1  0.026471  0  0.090814  0.045721  0  0.979396  0
H  H14  1  0.88112347  0.06031973  0.46824657  1  0.035057  0  0.087905  0.119646  0  1.008835  0
H  H15  1  0.80294024  0.06539021  0.55943596  1  -0.000841  0  0.085601  0.111032  0  1.010222  0
H  H16  1  0.74589843  0.14938021  0.47603437  1  0.052153  0  0.088949  0.126328  0  1.00757  0
H  H17  1  0.66599228  0.57458214  0.84767066  1  0.060523  0  0.09802  0.058241  0  1.011167  0
H  H18  1  0.70122904  0.64801604  0.92026729  1  0.045854  0  0.096662  0.055352  0  0.959756  0
H  H19  1  0.57446869  0.80269747  0.84705322  1  0.029024  0  0.08935  0.124031  0  0.994273  0
H  H20  1  0.68110337  0.72354039  0.78087683  1  0.03502  0  0.080909  0.111282  0  1.028403  0
H  H21  1  0.55051006  0.72433139  0.77196153  1  0.045324  0  0.089598  0.13146  0  0.999874  0
C  C22  1  0.52016840  0.50297006  0.66782664  1  1.665487  0  0.212723  0.664051  0  4.23908  0
C  C23  1  0.01305542  0.54728700  0.52960021  1  0.023134  0  -0.009954  0.035088  0  3.9729  0
C  C24  1  0.12061214  0.52479120  0.55259217  1  0.020768  0  -0.002483  0.047965  0  3.912507  0
C  C25  1  0.96770994  0.47406136  0.53986129  1  0.062892  0  -0.010314  -0.002935  0  3.949622  0
C  C26  1  0.04002964  0.37302800  0.55021802  1  -0.045326  0  -0.010306  0.088218  0  4.014541  0
C  C27  1  0.14138198  0.35687746  0.58714268  1  -0.190227  0  -0.058446  -0.031908  0  3.869528  0
C  C28  1  0.17373144  0.43320985  0.59830091  1  -0.197867  0  -0.051869  -0.01634  0  3.880769  0
C  C29  1  0.85745200  0.49332938  0.53575644  1  -0.181724  0  -0.028236  0.031659  0  3.791293  0
C  C30  1  0.89980668  0.31966469  0.51134233  1  0.505258  0  0.092559  0.263686  0  4.034514  0
C  C31  1  0.17158101  0.58928008  0.52828849  1  0.071872  0  -0.017529  -0.090503  0  3.859922  0
C  C32  1  0.52725981  0.58199760  0.05389999  1  -0.034374  0  -0.087254  -0.233832  0  3.915805  0
C  C33  1  0.29216549  0.55383667  0.52796597  1  1.575655  0  0.199493  0.587893  0  4.203974  0
C  C34  1  0.51592282  0.50257853  0.09565974  1  0.103802  0  0.006502  0.156833  0  4.119826  0
C  C35  1  0.51717667  0.42061243  0.04908176  1  -0.027531  0  -0.087468  -0.143059  0  3.97832  0
C  C36  1  0.52636227  0.42033210  0.96317016  1  0.007779  0  -0.079648  -0.101355  0  3.991207  0
C  C37  1  0.53558574  0.50041939  0.92035805  1  0.119186  0  -0.009198  0.01779  0  4.107  0
C  C38  1  0.53854794  0.58110320  0.96751616  1  0.573065  0  0.095344  0.222677  0  4.045437  0
C  C39  1  0.50436479  0.50396050  0.18348384  1  -0.50608  0  -0.031024  -0.049121  0  4.084807  0
C  C40  1  0.53467898  0.50150907  0.83260068  1  -0.511863  0  -0.030998  -0.032722  0  4.131255  0
C  C41  1  0.52989581  0.50156874  0.75693559  1  0.154845  0  -0.046591  -0.182265  0  3.945569  0
C  C42  1  0.49478412  0.50305073  0.25899163  1  0.195856  0  -0.042738  -0.17446  0  3.948594  0
C  C43  1  0.55381334  0.92740391  0.55690074  1  -0.006393  0  -0.054372  -0.083578  0  3.913082  0
C  C44  1  0.48839656  0.50174438  0.34878574  1  1.687763  0  0.21878  0.673392  0  4.224841  0
C  C45  1  0.48260442  0.91212761  0.50214265  1  0.069577  0  0.023431  0.062704  0  4.072015  0
C  C46  1  0.41873154  0.98758640  0.44890756  1  0.057242  0  -0.052578  -0.08658  0  3.915636  0
C  C47  1  0.42561755  0.07908605  0.45069737  1  0.002272  0  -0.053918  -0.089319  0  3.931919  0
C  C48  1  0.49687039  0.09424785  0.50540598  1  0.076606  0  0.022194  0.054697  0  4.099606  0
C  C49  1  0.56095638  0.01874352  0.55847295  1  0.048671  0  -0.053346  -0.085359  0  3.913699  0
C  C50  1  0.47480478  0.81878438  0.50126913  1  0.879051  0  0.242056  0.292186  0  3.921473  0
C  C51  1  0.50536284  0.18721765  0.50793532  1  0.911174  0  0.247577  0.297193  0  3.91643  0
C  C52  1  0.70422649  0.44201492  0.50353145  1  1.6148  0  0.211388  0.612805  0  4.155433  0
C  C53  1  0.00454455  0.29767979  0.53322582  1  0.01465  0  -0.112938  -0.260687  0  3.994858  0
C  C54  1  0.82101304  0.41939090  0.51671001  1  1.3e-05  0  -0.022958  -0.157074  0  3.88796  0
C  C55  1  0.10980652  0.67928827  0.49045044  1  -0.249623  0  -0.038124  0.060938  0  3.856407  0
C  C56  1  0.00331366  0.70185420  0.46892781  1  0.018205  0  -0.104679  -0.124354  0  4.043913  0
C  C57  1  0.95769108  0.63556414  0.48578920  1  -0.010298  0  -0.092953  -0.109731  0  4.021571  0
C  C58  1  0.85485203  0.18482862  0.55106015  1  0.430655  0  -0.068973  0.094491  0  3.902386  0
C  C59  1  0.81912053  0.11054061  0.51094492  1  -0.05961  0  -0.246364  -0.390238  0  3.983701  0
C  C60  1  0.63796109  0.64734264  0.87892130  1  0.379087  0  -0.065046  0.092902  0  3.900906  0
C  C61  1  0.60856096  0.72978978  0.81586993  1  -0.048159  0  -0.248889  -0.397794  0  3.980848  0
I  I62  1  0.22788652  0.21547807  0.63806598  1  0.091569  0  0.062593  -0.047957  0  1.546214  0
I  I63  1  0.74912722  0.63017881  0.59023365  1  0.11405  0  0.091133  -0.027869  0  1.643956  0
I  I64  1  0.16617476  0.78696941  0.45089048  1  0.112467  0  0.048881  -0.044498  0  1.418756  0
I  I65  1  0.27887116  0.43022243  0.69231075  1  0.196814  0  0.103117  0.033702  0  1.66907  0
N  N66  1  0.51546815  0.26172202  0.51070526  1  -1.168777  0  -0.265974  -0.270304  0  3.102564  0
N  N67  1  0.46835474  0.74257890  0.50150681  1  -1.166822  0  -0.269986  -0.280082  0  3.135306  0
O  O68  1  0.52336072  0.57808827  0.63027860  1  -1.134789  0  -0.315354  -0.549436  0  2.302154  0
O  O69  1  0.50840860  0.42919987  0.63511941  1  -1.15006  0  -0.315892  -0.556665  0  2.345807  0
O  O70  1  0.33100254  0.61617375  0.54658059  1  -1.166486  0  -0.316629  -0.544502  0  2.389088  0
O  O71  1  0.34540095  0.46479349  0.50341808  1  -1.167576  0  -0.317824  -0.548324  0  2.32724  0
O  O72  1  0.45254838  0.58591161  0.38588841  1  -1.144805  0  -0.318284  -0.552019  0  2.280251  0
O  O73  1  0.51999984  0.41673278  0.38266436  1  -1.137993  0  -0.313934  -0.539032  0  2.242848  0
O  O74  1  0.64629859  0.52786308  0.47667192  1  -1.170729  0  -0.322639  -0.561135  0  2.348068  0
O  O75  1  0.67172970  0.37433064  0.52041025  1  -1.144927  0  -0.300645  -0.526014  0  2.343978  0
O  O76  1  0.87377990  0.24357841  0.48524596  1  -1.056714  0  -0.205027  -0.232739  0  2.477872  0
O  O77  1  0.54403849  0.66276075  0.93076903  1  -1.06776  0  -0.200308  -0.234743  0  2.489479  0
