# generated using pymatgen
data_ZnH34C36(NO)4
_symmetry_space_group_name_H-M   'P 1'
_cell_length_a   11.44264730
_cell_length_b   12.26410453
_cell_length_c   13.36186886
_cell_angle_alpha   89.58936963
_cell_angle_beta   89.13373830
_cell_angle_gamma   62.18732522
_symmetry_Int_Tables_number   1
_chemical_formula_structural   ZnH34C36(NO)4
_chemical_formula_sum   'Zn2 H68 C72 N8 O8'
_cell_volume   1658.31429687
_cell_formula_units_Z   2
loop_
 _symmetry_equiv_pos_site_id
 _symmetry_equiv_pos_as_xyz
  1  'x, y, z'
loop_
 _atom_site_type_symbol
 _atom_site_label
 _atom_site_symmetry_multiplicity
 _atom_site_fract_x
 _atom_site_fract_y
 _atom_site_fract_z
 _atom_site_occupancy
 _atom_site_pbe_bader_charge
 _atom_site_pbe_bader_spin_density
 _atom_site_pbe_cm5_charge
 _atom_site_pbe_ddec_charge
 _atom_site_pbe_ddec_spin_density
 _atom_site_pbe_ddec_sum_bond_order
 _atom_site_pbe_magmom
Zn  Zn0  1  0.28557376  0.42891656  0.74993138  1  1.26426  0  0.683673  0.809304  0  2.342201  0
Zn  Zn1  1  0.71442631  0.57108355  0.25006889  1  1.26425  0  0.683667  0.809292  0  2.34223  0
H  H2  1  0.41230378  0.50658797  0.40538294  1  0.052052  0  0.086779  0.118492  0  1.019014  0
H  H3  1  0.08122280  0.50659572  0.09467462  1  0.056111  0  0.086913  0.118449  0  1.019516  0
H  H4  1  0.58769633  0.49341029  0.59461809  1  0.052022  0  0.086797  0.118504  0  1.01899  0
H  H5  1  0.91877814  0.49340439  0.90532639  1  0.056107  0  0.086911  0.11846  0  1.019484  0
H  H6  1  0.33233314  0.41433545  0.38580742  1  0.041593  0  0.088076  0.119054  0  1.014147  0
H  H7  1  0.25341276  0.41414468  0.11438688  1  0.036928  0  0.088228  0.118942  0  1.014097  0
H  H8  1  0.66766785  0.58566281  0.61419360  1  0.041588  0  0.088075  0.119055  0  1.014153  0
H  H9  1  0.74658865  0.58585450  0.88561413  1  0.036946  0  0.088245  0.118932  0  1.014071  0
H  H10  1  0.43618293  0.38570418  0.49095938  1  0.027375  0  0.092117  0.129687  0  1.002183  0
H  H11  1  0.17818864  0.38566051  0.00916386  1  0.034679  0  0.091826  0.129353  0  1.002039  0
H  H12  1  0.56381539  0.61429593  0.50904315  1  0.027385  0  0.092117  0.129713  0  1.00217  0
H  H13  1  0.82181230  0.61433960  0.99083641  1  0.034657  0  0.091818  0.129327  0  1.002057  0
H  H14  1  0.17028111  0.61806258  0.45990793  1  0.046334  0  0.096643  0.097289  0  1.031694  0
H  H15  1  0.21207640  0.61780543  0.04023349  1  0.050554  0  0.096411  0.096865  0  1.031487  0
H  H16  1  0.82971855  0.38193661  0.54009086  1  0.046345  0  0.096641  0.097267  0  1.031737  0
H  H17  1  0.78792455  0.38219468  0.95976677  1  0.050547  0  0.096419  0.096866  0  1.031487  0
H  H18  1  0.20066014  0.49449879  0.54355395  1  0.11862  0  0.103987  0.122609  0  1.020406  0
H  H19  1  0.30521624  0.49419141  0.95662289  1  0.091537  0  0.104141  0.123173  0  1.019852  0
H  H20  1  0.79933860  0.50550224  0.45644633  1  0.118634  0  0.103974  0.122581  0  1.02037  0
H  H21  1  0.69478516  0.50580778  0.04337737  1  0.091532  0  0.104147  0.123166  0  1.019863  0
H  H22  1  0.42878426  0.55674031  0.87283616  1  0.116081  0  0.104484  0.117588  0  1.026481  0
H  H23  1  0.01461325  0.55659073  0.62731861  1  0.075886  0  0.104634  0.117866  0  1.026113  0
H  H24  1  0.57121936  0.44325796  0.12716259  1  0.11592  0  0.104472  0.117592  0  1.026479  0
H  H25  1  0.98538733  0.44340661  0.37268242  1  0.075964  0  0.104648  0.117926  0  1.026096  0
H  H26  1  0.48353951  0.72363127  0.92333481  1  0.076754  0  0.102836  0.107635  0  1.002222  0
H  H27  1  0.79293370  0.72352717  0.57683159  1  0.075221  0  0.102944  0.107693  0  1.001748  0
H  H28  1  0.51646190  0.27636791  0.07666396  1  0.076742  0  0.102818  0.107603  0  1.002266  0
H  H29  1  0.20706821  0.27646925  0.42316943  1  0.075214  0  0.102922  0.107602  0  1.001798  0
H  H30  1  0.44976031  0.89360546  0.80683473  1  0.055191  0  0.102979  0.102403  0  0.995439  0
H  H31  1  0.65694795  0.89364318  0.69327283  1  0.056006  0  0.103045  0.102613  0  0.994814  0
H  H32  1  0.55023976  0.10639465  0.19316554  1  0.055193  0  0.102977  0.102415  0  0.995442  0
H  H33  1  0.34305217  0.10635508  0.30672745  1  0.055985  0  0.103067  0.102638  0  0.994828  0
H  H34  1  0.36251733  0.90217499  0.63544486  1  0.07665  0  0.107173  0.11446  0  1.004686  0
H  H35  1  0.73584413  0.90226497  0.86454097  1  0.079668  0  0.107  0.114183  0  1.004458  0
H  H36  1  0.63748228  0.09782603  0.36455466  1  0.076664  0  0.107136  0.114455  0  1.004665  0
H  H37  1  0.26415640  0.09773421  0.13545930  1  0.079663  0  0.107022  0.114218  0  1.004524  0
H  H38  1  0.26586061  0.73405173  0.41882040  1  0.115986  0  0.119471  0.114179  0  0.998284  0
H  H39  1  0.00015301  0.73405321  0.08129327  1  0.104811  0  0.119488  0.114208  0  0.998479  0
H  H40  1  0.73413499  0.26595206  0.58117990  1  0.115968  0  0.11949  0.114218  0  0.998277  0
H  H41  1  0.99984706  0.26594690  0.91870625  1  0.105203  0  0.119484  0.114159  0  0.998529  0
H  H42  1  0.33833261  0.81831233  0.46917918  1  0.104386  0  0.119547  0.114937  0  0.965847  0
H  H43  1  0.84350863  0.81819680  0.03069989  1  0.093382  0  0.119651  0.115089  0  0.96547  0
H  H44  1  0.66166566  0.18168962  0.53082035  1  0.104372  0  0.119544  0.114952  0  0.965805  0
H  H45  1  0.15649236  0.18180146  0.96930039  1  0.093384  0  0.11964  0.11507  0  0.965475  0
H  H46  1  0.03883657  0.80062547  0.57578623  1  0.059027  0  0.096245  0.092581  0  1.038756  0
H  H47  1  0.16056661  0.80064602  0.92424003  1  0.06238  0  0.096338  0.092505  0  1.038439  0
H  H48  1  0.96116211  0.19937740  0.42421329  1  0.058613  0  0.096227  0.092583  0  1.038815  0
H  H49  1  0.83943346  0.19935408  0.07576174  1  0.062351  0  0.096335  0.092513  0  1.038444  0
H  H50  1  0.18363044  0.02172696  0.41708769  1  0.056027  0  0.100027  0.098876  0  1.018393  0
H  H51  1  0.79466752  0.02169717  0.08295502  1  0.079938  0  0.099835  0.098617  0  1.018387  0
H  H52  1  0.81636691  0.97827683  0.58291259  1  0.055988  0  0.10005  0.098868  0  1.018413  0
H  H53  1  0.20533167  0.97830293  0.91704676  1  0.079944  0  0.099836  0.098623  0  1.018408  0
H  H54  1  0.64872463  0.26369203  0.92634618  1  0.055326  0  0.094345  0.109891  0  1.008157  0
H  H55  1  0.08793767  0.26346426  0.57339281  1  0.053566  0  0.094337  0.109301  0  1.008624  0
H  H56  1  0.35127503  0.73630716  0.07365485  1  0.055285  0  0.094348  0.109905  0  1.008172  0
H  H57  1  0.91206107  0.73653676  0.42660598  1  0.053603  0  0.094344  0.109291  0  1.008627  0
H  H58  1  0.68436194  0.12249931  0.86853947  1  0.033795  0  0.100323  0.118604  0  0.990289  0
H  H59  1  0.19348086  0.12235980  0.63137034  1  0.033685  0  0.100185  0.117997  0  0.989835  0
H  H60  1  0.31563904  0.87749896  0.13146155  1  0.033802  0  0.100333  0.118631  0  0.990303  0
H  H61  1  0.80651747  0.87764031  0.36862695  1  0.033676  0  0.100163  0.117968  0  0.989844  0
H  H62  1  0.69516985  0.41590163  0.79173450  1  0.06166  0  0.09906  0.102609  0  1.006683  0
H  H63  1  0.88917134  0.41575873  0.70781094  1  0.036431  0  0.099078  0.102849  0  1.006414  0
H  H64  1  0.30483022  0.58409848  0.20826652  1  0.061649  0  0.099068  0.102604  0  1.006688  0
H  H65  1  0.11082832  0.58424045  0.29218784  1  0.036405  0  0.099078  0.102866  0  1.006398  0
H  H66  1  0.89391074  0.01924254  0.79285334  1  0.061717  0  0.094061  0.092171  0  1.028807  0
H  H67  1  0.08687102  0.01911688  0.70696571  1  0.077507  0  0.093854  0.091626  0  1.028649  0
H  H68  1  0.10609020  0.98075756  0.20714767  1  0.061535  0  0.094089  0.092228  0  1.028754  0
H  H69  1  0.91312818  0.98088323  0.29303457  1  0.077504  0  0.093844  0.091644  0  1.028655  0
C  C70  1  0.36401760  0.45819006  0.44314492  1  -0.065845  0  -0.242677  -0.341175  0  3.911528  0
C  C71  1  0.17794233  0.45809879  0.05698444  1  -0.059683  0  -0.242721  -0.340804  0  3.912039  0
C  C72  1  0.63598205  0.54180912  0.55685610  1  -0.065836  0  -0.242697  -0.341235  0  3.91149  0
C  C73  1  0.82205861  0.54190131  0.94301657  1  -0.059668  0  -0.242733  -0.34078  0  3.911968  0
C  C74  1  0.24529814  0.54682022  0.50714143  1  -0.014219  0  -0.159403  -0.221318  0  3.976579  0
C  C75  1  0.20822925  0.54661098  0.99299979  1  -0.009886  0  -0.159057  -0.220597  0  3.975548  0
C  C76  1  0.75470018  0.45317989  0.49285886  1  -0.014213  0  -0.159373  -0.221226  0  3.976561  0
C  C77  1  0.79177082  0.45338912  0.00700123  1  -0.009892  0  -0.159066  -0.220583  0  3.975511  0
C  C78  1  0.28655576  0.60554144  0.58643184  1  0.996491  0  0.240716  0.328535  0  3.924438  0
C  C79  1  0.10826098  0.60541087  0.91366530  1  0.996333  0  0.24112  0.328529  0  3.924176  0
C  C80  1  0.71344298  0.39445959  0.41356769  1  0.996481  0  0.240699  0.328509  0  3.924412  0
C  C81  1  0.89173909  0.39458924  0.08633497  1  0.996354  0  0.241127  0.328541  0  3.924163  0
C  C82  1  0.36173541  0.63820810  0.72685543  1  0.387452  0  0.086674  0.14765  0  4.062425  0
C  C83  1  0.00039887  0.63812529  0.77322549  1  0.359886  0  0.086033  0.146846  0  4.062163  0
C  C84  1  0.63826642  0.36179201  0.27314258  1  0.387404  0  0.086658  0.147595  0  4.06251  0
C  C85  1  0.99960299  0.36187297  0.22677477  1  0.359889  0  0.086008  0.1468  0  4.062352  0
C  C86  1  0.41243365  0.63268831  0.82254488  1  -0.113805  0  -0.095102  -0.162939  0  3.981417  0
C  C87  1  0.95513230  0.63259584  0.67758075  1  0.018947  0  -0.095132  -0.163031  0  3.980937  0
C  C88  1  0.58756905  0.36731179  0.17745387  1  -0.11304  0  -0.095091  -0.162916  0  3.981466  0
C  C89  1  0.04486869  0.36740242  0.32241952  1  0.018889  0  -0.095202  -0.163253  0  3.981049  0
C  C90  1  0.44348564  0.72577761  0.84937069  1  0.000688  0  -0.099346  -0.099919  0  4.037048  0
C  C91  1  0.83097527  0.72571830  0.65075194  1  -0.02565  0  -0.09919  -0.099443  0  4.035246  0
C  C92  1  0.55651706  0.27422250  0.15062805  1  -0.000356  0  -0.099294  -0.09986  0  4.037008  0
C  C93  1  0.16902618  0.27427904  0.34924833  1  -0.025634  0  -0.099143  -0.099218  0  4.0351  0
C  C94  1  0.42481780  0.82227261  0.78302111  1  -0.011586  0  -0.095923  -0.089791  0  4.047433  0
C  C95  1  0.75324050  0.82229388  0.71706387  1  -0.057451  0  -0.095754  -0.090148  0  4.046344  0
C  C96  1  0.57518315  0.17772749  0.21697915  1  -0.011112  0  -0.095952  -0.089847  0  4.047484  0
C  C97  1  0.24676049  0.17770438  0.28293565  1  -0.057458  0  -0.095773  -0.090176  0  4.046394  0
C  C98  1  0.37574690  0.82821364  0.68708504  1  -0.054827  0  -0.094125  -0.166475  0  4.015452  0
C  C99  1  0.79647241  0.82824703  0.81294805  1  -0.032452  0  -0.094263  -0.165902  0  4.014669  0
C  C100  1  0.62425358  0.17178739  0.31291447  1  -0.054833  0  -0.094097  -0.166485  0  4.015538  0
C  C101  1  0.20352858  0.17175123  0.18705222  1  -0.032509  0  -0.094302  -0.166004  0  4.014834  0
C  C102  1  0.34547234  0.73452785  0.66044887  1  0.338393  0  0.09346  0.0914  0  4.026379  0
C  C103  1  0.92038593  0.73449588  0.83960606  1  0.301503  0  0.093651  0.090793  0  4.026024  0
C  C104  1  0.65452907  0.26547134  0.33955139  1  0.338429  0  0.09348  0.091459  0  4.026318  0
C  C105  1  0.07961681  0.26550238  0.16039494  1  0.30148  0  0.093689  0.090882  0  4.026035  0
C  C106  1  0.26241671  0.78923052  0.48421366  1  0.278137  0  -0.042915  -0.106512  0  3.897021  0
C  C107  1  0.94852820  0.78914631  0.01581474  1  0.300605  0  -0.042356  -0.105344  0  3.896792  0
C  C108  1  0.73758064  0.21077328  0.51578737  1  0.278124  0  -0.042884  -0.10648  0  3.896978  0
C  C109  1  0.05147233  0.21085287  0.98418553  1  0.300236  0  -0.042345  -0.105287  0  3.896773  0
C  C110  1  0.12727943  0.89889238  0.49576097  1  -0.045423  0  -0.013699  0.078692  0  3.98768  0
C  C111  1  0.97389944  0.89887396  0.00428814  1  0.019085  0  -0.014447  0.076794  0  3.989572  0
C  C112  1  0.87272009  0.10111234  0.50423853  1  -0.045442  0  -0.013674  0.078725  0  3.987687  0
C  C113  1  0.02609976  0.10112615  0.99571139  1  0.019073  0  -0.014434  0.076855  0  3.98955  0
C  C114  1  0.02286931  0.88773871  0.54207614  1  -0.092845  0  -0.092537  -0.127103  0  3.983289  0
C  C115  1  0.08942169  0.88775634  0.95793579  1  -0.083737  0  -0.092757  -0.126583  0  3.982496  0
C  C116  1  0.97712892  0.11226509  0.45792413  1  -0.092317  0  -0.092596  -0.127255  0  3.983421  0
C  C117  1  0.91057792  0.11224469  0.04206448  1  -0.083691  0  -0.092777  -0.126639  0  3.982518  0
C  C118  1  0.10332658  0.01218807  0.45421346  1  0.044154  0  -0.089009  -0.125134  0  3.998335  0
C  C119  1  0.88450882  0.01215395  0.04581906  1  -0.05528  0  -0.08843  -0.124189  0  3.997398  0
C  C120  1  0.89667252  0.98781573  0.54578680  1  0.044178  0  -0.089103  -0.125218  0  3.99844  0
C  C121  1  0.11549125  0.98784616  0.95418121  1  -0.055298  0  -0.088433  -0.124217  0  3.99744  0
C  C122  1  0.53666770  0.28018944  0.79412965  1  1.570456  0  0.193879  0.624624  0  4.166998  0
C  C123  1  0.18318466  0.28019900  0.70570540  1  1.559415  0  0.193709  0.625348  0  4.165123  0
C  C124  1  0.46333242  0.71980882  0.20587212  1  1.570294  0  0.193867  0.62462  0  4.167015  0
C  C125  1  0.81681545  0.71979926  0.29429637  1  1.559462  0  0.193646  0.625187  0  4.165164  0
C  C126  1  0.66461089  0.21780847  0.85335312  1  -0.021177  0  -0.163139  -0.342084  0  3.960257  0
C  C127  1  0.11780186  0.21768377  0.64645736  1  -0.010897  0  -0.162416  -0.33971  0  3.959378  0
C  C128  1  0.33538789  0.78219071  0.14664567  1  -0.021141  0  -0.163157  -0.342147  0  3.960295  0
C  C129  1  0.88219775  0.78231726  0.35354067  1  -0.011172  0  -0.162424  -0.339679  0  3.959446  0
C  C130  1  0.78116869  0.21694480  0.79914282  1  0.052749  0  -0.01413  0.127812  0  3.990251  0
C  C131  1  0.00203227  0.21682353  0.70053155  1  0.00773  0  -0.01457  0.126068  0  3.990684  0
C  C132  1  0.21883137  0.78305531  0.20085819  1  0.052756  0  -0.014126  0.127826  0  3.990264  0
C  C133  1  0.99796693  0.78317658  0.29946723  1  0.007719  0  -0.014543  0.126144  0  3.99073  0
C  C134  1  0.78153676  0.32824733  0.77390311  1  -0.182621  0  -0.097567  -0.145979  0  3.992696  0
C  C135  1  0.89036961  0.32816803  0.72568052  1  -0.001607  0  -0.098286  -0.14656  0  3.992906  0
C  C136  1  0.21846331  0.67175278  0.22609716  1  -0.182615  0  -0.097563  -0.14593  0  3.992689  0
C  C137  1  0.10962959  0.67183208  0.27431901  1  -0.001578  0  -0.098295  -0.146622  0  3.992912  0
C  C138  1  0.89211059  0.10665360  0.77384590  1  -0.121497  0  -0.092654  -0.127959  0  3.985435  0
C  C139  1  0.00129087  0.10658668  0.72588331  1  -0.044003  0  -0.092161  -0.125968  0  3.982994  0
C  C140  1  0.10788994  0.89334558  0.22615438  1  -0.121305  0  -0.092644  -0.127974  0  3.98542  0
C  C141  1  0.99870833  0.89341343  0.27411622  1  -0.044013  0  -0.092186  -0.126044  0  3.983063  0
N  N142  1  0.32308021  0.56026710  0.67844597  1  -1.231773  0  -0.350052  -0.403652  0  3.464409  0
N  N143  1  0.11697629  0.56015139  0.82164495  1  -1.220914  0  -0.349871  -0.402696  0  3.46312  0
N  N144  1  0.67692074  0.43973301  0.32155279  1  -1.23179  0  -0.350046  -0.403663  0  3.464379  0
N  N145  1  0.88302512  0.43984779  0.17835531  1  -1.22088  0  -0.349832  -0.402636  0  3.463094  0
N  N146  1  0.29967891  0.71005669  0.57220981  1  -1.235676  0  -0.238735  -0.069723  0  3.706671  0
N  N147  1  0.99062761  0.70997801  0.92785565  1  -1.224917  0  -0.239281  -0.070431  0  3.708822  0
N  N148  1  0.70031982  0.28994434  0.42779047  1  -1.235696  0  -0.238709  -0.069687  0  3.706724  0
N  N149  1  0.00937246  0.29002209  0.07214537  1  -1.224876  0  -0.239276  -0.070431  0  3.708747  0
O  O150  1  0.53527199  0.25927404  0.70304908  1  -1.187694  0  -0.337703  -0.569526  0  2.090075  0
O  O151  1  0.20519465  0.25951798  0.79684544  1  -1.18533  0  -0.337842  -0.569958  0  2.089546  0
O  O152  1  0.46472864  0.74072145  0.29695046  1  -1.187659  0  -0.337674  -0.569496  0  2.090158  0
O  O153  1  0.79480455  0.74048213  0.20315110  1  -1.185117  0  -0.337805  -0.569888  0  2.089314  0
O  O154  1  0.43253299  0.35449227  0.84602529  1  -1.183162  0  -0.346076  -0.577927  0  2.289596  0
O  O155  1  0.21314509  0.35441016  0.65379442  1  -1.179213  0  -0.345626  -0.578171  0  2.287684  0
O  O156  1  0.56746842  0.64550691  0.15397347  1  -1.183014  0  -0.34608  -0.577934  0  2.289552  0
O  O157  1  0.78685411  0.64558995  0.34620437  1  -1.179232  0  -0.345613  -0.578104  0  2.287891  0
