# generated using pymatgen
data_NaH4C6N3O8
_symmetry_space_group_name_H-M   'P 1'
_cell_length_a   3.74109209
_cell_length_b   11.95051681
_cell_length_c   11.94592519
_cell_angle_alpha   116.09370433
_cell_angle_beta   89.46555996
_cell_angle_gamma   89.53339596
_symmetry_Int_Tables_number   1
_chemical_formula_structural   NaH4C6N3O8
_chemical_formula_sum   'Na2 H8 C12 N6 O16'
_cell_volume   479.57733084
_cell_formula_units_Z   2
loop_
 _symmetry_equiv_pos_site_id
 _symmetry_equiv_pos_as_xyz
  1  'x, y, z'
loop_
 _atom_site_type_symbol
 _atom_site_label
 _atom_site_symmetry_multiplicity
 _atom_site_fract_x
 _atom_site_fract_y
 _atom_site_fract_z
 _atom_site_occupancy
 _atom_site_hle17_bader_spin_density
 _atom_site_hle17_ddec_charge
 _atom_site_hle17_ddec_spin_density
 _atom_site_hle17_ddec_sum_bond_order
 _atom_site_hle17_magmom
 _atom_site_hse06_10hf_bader_spin_density
 _atom_site_hse06_10hf_ddec_charge
 _atom_site_hse06_10hf_ddec_spin_density
 _atom_site_hse06_10hf_ddec_sum_bond_order
 _atom_site_hse06_10hf_magmom
 _atom_site_hse06_bader_spin_density
 _atom_site_hse06_ddec_charge
 _atom_site_hse06_ddec_spin_density
 _atom_site_hse06_ddec_sum_bond_order
 _atom_site_hse06_magmom
 _atom_site_pbe_bader_spin_density
 _atom_site_pbe_cm5_charge
 _atom_site_pbe_ddec_charge
 _atom_site_pbe_ddec_spin_density
 _atom_site_pbe_ddec_sum_bond_order
 _atom_site_pbe_magmom
Na  Na0  1  0.50039905  0.49989227  0.49992742  1  0  0.935455  0  0.330478  0  0  0.898313  0  0.468934  0  0  0.908563  0  0.447892  0  0  0.682482  0.890522  0  0.484244  0
Na  Na1  1  0.99991651  0.99998967  0.99999395  1  0  0.895257  0  0.336911  0  0  0.833043  0  0.501203  0  0  0.846566  0  0.475551  0  0  0.592272  0.82321  0  0.519455  0
H  H2  1  0.46583246  0.77990592  0.85582327  1  0  0.423568  0  0.863576  0  0  0.394049  0  0.925348  0  0  0.404213  0  0.909972  0  0  0.301096  0.386791  0  0.936334  0
H  H3  1  0.53393199  0.14426510  0.22019901  1  0  0.42376  0  0.863022  0  0  0.394196  0  0.925152  0  0  0.40436  0  0.909777  0  0  0.301161  0.386927  0  0.936155  0
H  H4  1  0.53430298  0.22002273  0.14416570  1  0  0.423815  0  0.863328  0  0  0.394187  0  0.925238  0  0  0.404335  0  0.909914  0  0  0.301162  0.386924  0  0.936232  0
H  H5  1  0.46585231  0.85574012  0.77984847  1  0  0.423433  0  0.863866  0  0  0.393912  0  0.925535  0  0  0.404078  0  0.910159  0  0  0.301048  0.386656  0  0.936516  0
H  H6  1  0.25057397  0.92104245  0.38285762  1  0  0.145855  0  0.961908  0  0  0.142193  0  1.03988  0  0  0.147389  0  1.033327  0  0  0.123819  0.138508  0  1.044376  0
H  H7  1  0.74883559  0.61711817  0.07899011  1  0  0.145541  0  0.962129  0  0  0.142104  0  1.03989  0  0  0.14733  0  1.033337  0  0  0.123847  0.138414  0  1.044391  0
H  H8  1  0.74950507  0.07895114  0.61704997  1  0  0.145957  0  0.961612  0  0  0.142313  0  1.039603  0  0  0.147517  0  1.033035  0  0  0.123712  0.138618  0  1.04413  0
H  H9  1  0.25065314  0.38292585  0.92113004  1  0  0.146039  0  0.961658  0  0  0.14245  0  1.039432  0  0  0.147646  0  1.032998  0  0  0.123826  0.138751  0  1.043987  0
C  C10  1  0.00020251  0.63331972  0.36660243  1  0  0.346427  0  3.884211  0  0  0.31897  0  4.176143  0  0  0.341917  0  4.185259  0  0  0.122159  0.304151  0  4.168713  0
C  C11  1  0.00020194  0.36665100  0.63335967  1  0  0.346619  0  3.884225  0  0  0.318775  0  4.176881  0  0  0.341555  0  4.186576  0  0  0.122061  0.303944  0  4.169404  0
C  C12  1  0.14527222  0.75915150  0.41206045  1  0  -0.055531  0  3.611266  0  0  -0.073462  0  3.870264  0  0  -0.088769  0  3.895533  0  0  0.061097  -0.064442  0  3.854591  0
C  C13  1  0.85447668  0.58797213  0.24087417  1  0  -0.056064  0  3.611241  0  0  -0.074167  0  3.870531  0  0  -0.083974  0  3.899238  0  0  0.06122  -0.065022  0  3.854659  0
C  C14  1  0.85500912  0.24085408  0.58788558  1  0  -0.055987  0  3.61168  0  0  -0.073889  0  3.870722  0  0  -0.089234  0  3.895867  0  0  0.061143  -0.064824  0  3.855027  0
C  C15  1  0.14542229  0.41207464  0.75919582  1  0  -0.055371  0  3.610189  0  0  -0.073166  0  3.869414  0  0  -0.088499  0  3.894559  0  0  0.06134  -0.064125  0  3.85377  0
C  C16  1  0.14182058  0.82759328  0.34405793  1  0  -0.073838  0  3.700689  0  0  -0.117987  0  3.977111  0  0  -0.106814  0  3.991205  0  0  -0.061186  -0.124434  0  3.966986  0
C  C17  1  0.85779379  0.65596148  0.17241945  1  0  -0.073544  0  3.700381  0  0  -0.117895  0  3.976925  0  0  -0.106404  0  3.989678  0  0  -0.061406  -0.124363  0  3.966814  0
C  C18  1  0.85816635  0.17241663  0.65590350  1  0  -0.073747  0  3.69963  0  0  -0.117922  0  3.976215  0  0  -0.106745  0  3.990204  0  0  -0.061061  -0.124373  0  3.966047  0
C  C19  1  0.14188314  0.34408264  0.82765626  1  0  -0.074393  0  3.69977  0  0  -0.118455  0  3.97627  0  0  -0.107277  0  3.990335  0  0  -0.061335  -0.124898  0  3.966056  0
C  C20  1  0.99970877  0.77538409  0.22463222  1  0  0.06131  0  3.711907  0  0  0.046926  0  3.966872  0  0  0.033853  0  3.991741  0  0  0.068622  0.055178  0  3.95005  0
C  C21  1  0.00008453  0.22460259  0.77537058  1  0  0.061549  0  3.710447  0  0  0.047082  0  3.965437  0  0  0.033987  0  3.99024  0  0  0.06859  0.055358  0  3.948595  0
N  N22  1  0.29352026  0.82122672  0.53616056  1  0  0.491521  0  3.926543  0  0  0.549941  0  4.180005  0  0  0.572911  0  4.188657  0  0  0.052827  0.534692  0  4.173982  0
N  N23  1  0.70658903  0.46384142  0.17883556  1  0  0.492337  0  3.926334  0  0  0.55124  0  4.178953  0  0  0.554818  0  4.217899  0  0  0.053016  0.536007  0  4.172916  0
N  N24  1  0.70695141  0.17882680  0.46377630  1  0  0.491173  0  3.927563  0  0  0.550105  0  4.180445  0  0  0.573067  0  4.189095  0  0  0.052574  0.534872  0  4.174374  0
N  N25  1  0.29325569  0.53622205  0.82127083  1  0  0.491382  0  3.926092  0  0  0.549673  0  4.179889  0  0  0.572637  0  4.188545  0  0  0.052749  0.534433  0  4.173828  0
N  N26  1  0.99979933  0.84661912  0.15319920  1  0  0.469407  0  3.96155  0  0  0.531648  0  4.212334  0  0  0.553754  0  4.22327  0  0  0.04179  0.516858  0  4.205027  0
N  N27  1  0.99991606  0.15331613  0.84677532  1  0  0.468284  0  3.960998  0  0  0.530583  0  4.211941  0  0  0.552687  0  4.222878  0  0  0.041265  0.515791  0  4.204637  0
O  O28  1  0.00055684  0.57154555  0.42843867  1  0  -0.608738  0  2.081981  0  0  -0.593824  0  2.343803  0  0  -0.613289  0  2.336075  0  0  -0.408261  -0.579745  0  2.348301  0
O  O29  1  0.00026432  0.42842741  0.57153670  1  0  -0.609159  0  2.083304  0  0  -0.593887  0  2.345068  0  0  -0.613403  0  2.337364  0  0  -0.408462  -0.57977  0  2.349544  0
O  O30  1  0.40105403  0.75756829  0.58911489  1  0  -0.364932  0  1.78006  0  0  -0.354457  0  1.973435  0  0  -0.364878  0  1.966253  0  0  -0.122563  -0.347405  0  1.978479  0
O  O31  1  0.59962704  0.41075197  0.24249982  1  0  -0.365494  0  1.780107  0  0  -0.355247  0  1.97357  0  0  -0.358896  0  1.975521  0  0  -0.123031  -0.348266  0  1.978722  0
O  O32  1  0.59921325  0.24252893  0.41088326  1  0  -0.364973  0  1.78037  0  0  -0.354971  0  1.973999  0  0  -0.365338  0  1.966746  0  0  -0.122858  -0.347969  0  1.979119  0
O  O33  1  0.40096109  0.58916892  0.75755928  1  0  -0.364959  0  1.779097  0  0  -0.35463  0  1.972793  0  0  -0.36499  0  1.965531  0  0  -0.122886  -0.347647  0  1.977927  0
O  O34  1  0.31051284  0.93683369  0.58466296  1  0  -0.348141  0  1.812007  0  0  -0.338317  0  2.020506  0  0  -0.352995  0  2.017874  0  0  -0.124144  -0.328406  0  2.022313  0
O  O35  1  0.68861472  0.41545552  0.06322012  1  0  -0.348482  0  1.811714  0  0  -0.338879  0  2.020117  0  0  -0.346925  0  2.026809  0  0  -0.124381  -0.329043  0  2.022038  0
O  O36  1  0.68990904  0.06322378  0.41523374  1  0  -0.347623  0  1.812078  0  0  -0.337915  0  2.020299  0  0  -0.352584  0  2.017658  0  0  -0.123835  -0.328039  0  2.02213  0
O  O37  1  0.31019518  0.58466268  0.93691251  1  0  -0.347511  0  1.81203  0  0  -0.337866  0  2.02089  0  0  -0.352537  0  2.018243  0  0  -0.123945  -0.327944  0  2.022683  0
O  O38  1  0.16481538  0.94656091  0.19483381  1  0  -0.362745  0  1.795275  0  0  -0.361348  0  2.003777  0  0  -0.374662  0  1.999979  0  0  -0.135335  -0.352309  0  2.006474  0
O  O39  1  0.83484283  0.80493848  0.05323247  1  0  -0.362921  0  1.794769  0  0  -0.361568  0  2.003334  0  0  -0.374895  0  1.999524  0  0  -0.135296  -0.352497  0  2.005992  0
O  O40  1  0.83506384  0.05332338  0.80501768  1  0  -0.36226  0  1.794941  0  0  -0.360976  0  2.003602  0  0  -0.374282  0  1.9998  0  0  -0.13502  -0.351942  0  2.006312  0
O  O41  1  0.16455670  0.19511184  0.94682006  1  0  -0.362369  0  1.794111  0  0  -0.360985  0  2.002541  0  0  -0.374317  0  1.9988  0  0  -0.135149  -0.351897  0  2.005171  0
O  O42  1  0.46851550  0.86591592  0.86591805  1  0  -0.894668  0  1.799885  0  0  -0.849696  0  1.96405  0  0  -0.865481  0  1.930497  0  0  -0.652259  -0.838377  0  1.987599  0
O  O43  1  0.53141077  0.13402440  0.13410109  1  0  -0.895237  0  1.798697  0  0  -0.850196  0  1.963021  0  0  -0.865992  0  1.929524  0  0  -0.652465  -0.838871  0  1.986615  0
