# generated using pymatgen
data_CaH6C9O7
_symmetry_space_group_name_H-M   'P 1'
_cell_length_a   7.01986070
_cell_length_b   8.34067953
_cell_length_c   9.91371508
_cell_angle_alpha   98.24137057
_cell_angle_beta   103.33265809
_cell_angle_gamma   108.74032423
_symmetry_Int_Tables_number   1
_chemical_formula_structural   CaH6C9O7
_chemical_formula_sum   'Ca2 H12 C18 O14'
_cell_volume   519.76021806
_cell_formula_units_Z   2
loop_
 _symmetry_equiv_pos_site_id
 _symmetry_equiv_pos_as_xyz
  1  'x, y, z'
loop_
 _atom_site_type_symbol
 _atom_site_label
 _atom_site_symmetry_multiplicity
 _atom_site_fract_x
 _atom_site_fract_y
 _atom_site_fract_z
 _atom_site_occupancy
 _atom_site_hle17_bader_spin_density
 _atom_site_hle17_ddec_charge
 _atom_site_hle17_ddec_spin_density
 _atom_site_hle17_ddec_sum_bond_order
 _atom_site_hle17_magmom
 _atom_site_hse06_10hf_bader_spin_density
 _atom_site_hse06_10hf_ddec_charge
 _atom_site_hse06_10hf_ddec_spin_density
 _atom_site_hse06_10hf_ddec_sum_bond_order
 _atom_site_hse06_10hf_magmom
 _atom_site_hse06_bader_spin_density
 _atom_site_hse06_ddec_charge
 _atom_site_hse06_ddec_spin_density
 _atom_site_hse06_ddec_sum_bond_order
 _atom_site_hse06_magmom
 _atom_site_pbe_bader_spin_density
 _atom_site_pbe_cm5_charge
 _atom_site_pbe_ddec_charge
 _atom_site_pbe_ddec_spin_density
 _atom_site_pbe_ddec_sum_bond_order
 _atom_site_pbe_magmom
Ca  Ca0  1  0.30809446  0.56990784  0.10359207  1  0  1.547136  0  1.06863  0  0  1.414409  0  1.410612  0  0  1.461058  0  1.363703  0  0  0.888028  1.379134  0  1.444344  0
Ca  Ca1  1  0.69190524  0.43009138  0.89640664  1  0  1.547117  0  1.068644  0  0  1.414385  0  1.410627  0  0  1.461036  0  1.363721  0  0  0.888011  1.379113  0  1.444353  0
H  H2  1  0.44938561  0.70143234  0.44725854  1  0  0.422962  0  0.862554  0  0  0.390706  0  0.942407  0  0  0.403604  0  0.927907  0  0  0.317986  0.381606  0  0.95246  0
H  H3  1  0.55061207  0.29856558  0.55274172  1  0  0.422952  0  0.862543  0  0  0.390697  0  0.942396  0  0  0.403593  0  0.927911  0  0  0.317999  0.3816  0  0.952442  0
H  H4  1  0.82512723  0.08311338  0.24547774  1  0  0.110792  0  0.951579  0  0  0.117105  0  1.01773  0  0  0.12194  0  1.012723  0  0  0.114212  0.113531  0  1.021544  0
H  H5  1  0.17487097  0.91688850  0.75452318  1  0  0.110761  0  0.951614  0  0  0.117063  0  1.017773  0  0  0.121902  0  1.012768  0  0  0.114196  0.113488  0  1.021588  0
H  H6  1  0.81183506  0.09073580  0.67767966  1  0  0.113768  0  0.930999  0  0  0.122522  0  0.993529  0  0  0.126454  0  0.990036  0  0  0.118155  0.1196  0  0.996203  0
H  H7  1  0.18816406  0.90926205  0.32232079  1  0  0.113756  0  0.931023  0  0  0.122518  0  0.993544  0  0  0.126451  0  0.990057  0  0  0.11816  0.119598  0  0.99622  0
H  H8  1  0.29824380  0.49390720  0.59082590  1  0  0.117692  0  0.93341  0  0  0.126551  0  0.995542  0  0  0.130817  0  0.99202  0  0  0.11727  0.123337  0  0.998125  0
H  H9  1  0.70175443  0.50609465  0.40917603  1  0  0.117709  0  0.933434  0  0  0.126556  0  0.995573  0  0  0.130824  0  0.992054  0  0  0.117286  0.123344  0  0.998157  0
H  H10  1  0.15451727  0.78821421  0.93033513  1  0  0.433697  0  0.866265  0  0  0.402504  0  0.93014  0  0  0.413642  0  0.91387  0  0  0.300884  0.394623  0  0.941639  0
H  H11  1  0.84549211  0.21178997  0.06966366  1  0  0.433696  0  0.866256  0  0  0.402529  0  0.930109  0  0  0.413671  0  0.913833  0  0  0.300857  0.394649  0  0.941609  0
H  H12  1  0.35761026  0.91724176  0.05450293  1  0  0.429624  0  0.823639  0  0  0.412551  0  0.87883  0  0  0.421177  0  0.866217  0  0  0.326935  0.406327  0  0.886251  0
H  H13  1  0.64240084  0.08275703  0.94549530  1  0  0.429655  0  0.823599  0  0  0.412582  0  0.878785  0  0  0.421209  0  0.86617  0  0  0.326949  0.406358  0  0.886203  0
C  C14  1  0.07027083  0.29944866  0.40604492  1  0  -0.071248  0  3.751021  0  0  -0.045205  0  3.991593  0  0  -0.055572  0  4.014437  0  0  -0.015007  -0.038814  0  3.976055  0
C  C15  1  0.92972316  0.70055078  0.59395403  1  0  -0.071273  0  3.750996  0  0  -0.045264  0  3.991636  0  0  -0.055633  0  4.014487  0  0  -0.015038  -0.038853  0  3.976073  0
C  C16  1  0.06157278  0.30317425  0.64990033  1  0  -0.070917  0  3.731899  0  0  -0.045917  0  3.975922  0  0  -0.055753  0  3.996999  0  0  -0.006744  -0.039843  0  3.961491  0
C  C17  1  0.93842192  0.69682388  0.35009651  1  0  -0.07092  0  3.731865  0  0  -0.04588  0  3.975865  0  0  -0.055713  0  3.996931  0  0  -0.006718  -0.039808  0  3.961444  0
C  C18  1  0.89192994  0.14668557  0.35840462  1  0  -0.03724  0  3.668759  0  0  -0.077064  0  3.915008  0  0  -0.072131  0  3.931685  0  0  -0.063037  -0.080285  0  3.904235  0
C  C19  1  0.10806976  0.85331618  0.64159851  1  0  -0.037151  0  3.668469  0  0  -0.076924  0  3.914768  0  0  -0.072001  0  3.931459  0  0  -0.062991  -0.080153  0  3.903984  0
C  C20  1  0.61639777  0.90454300  0.39892863  1  0  0.676786  0  3.80342  0  0  0.623255  0  4.101479  0  0  0.657777  0  4.093063  0  0  0.244714  0.599718  0  4.106685  0
C  C21  1  0.38360052  0.09545371  0.60106648  1  0  0.676791  0  3.803366  0  0  0.623359  0  4.101351  0  0  0.65788  0  4.092936  0  0  0.244743  0.5998  0  4.106579  0
C  C22  1  0.88334447  0.14939601  0.60150598  1  0  -0.040267  0  3.663715  0  0  -0.083505  0  3.920718  0  0  -0.077804  0  3.936631  0  0  -0.061132  -0.087074  0  3.909977  0
C  C23  1  0.11665598  0.85060441  0.39849604  1  0  -0.04022  0  3.663644  0  0  -0.083453  0  3.920704  0  0  -0.077759  0  3.93662  0  0  -0.061138  -0.08703  0  3.909965  0
C  C24  1  0.17296797  0.37412565  0.30111538  1  0  0.665052  0  3.899974  0  0  0.612615  0  4.193886  0  0  0.646766  0  4.186854  0  0  0.214905  0.5898  0  4.197365  0
C  C25  1  0.82703391  0.62587471  0.69888684  1  0  0.664988  0  3.900032  0  0  0.612522  0  4.194002  0  0  0.646677  0  4.186971  0  0  0.214848  0.589701  0  4.197472  0
C  C26  1  0.14900997  0.38742132  0.80616824  1  0  0.695851  0  3.876085  0  0  0.648242  0  4.161973  0  0  0.683488  0  4.153659  0  0  0.233605  0.624473  0  4.166444  0
C  C27  1  0.85098768  0.61257663  0.19383100  1  0  0.695887  0  3.876059  0  0  0.648247  0  4.16199  0  0  0.683501  0  4.153662  0  0  0.233607  0.62448  0  4.166464  0
C  C28  1  0.15567498  0.37719287  0.55241335  1  0  -0.037753  0  3.646542  0  0  -0.082128  0  3.905017  0  0  -0.076833  0  3.920851  0  0  -0.060479  -0.08461  0  3.893787  0
C  C29  1  0.84432397  0.62280768  0.44758646  1  0  -0.037768  0  3.646582  0  0  -0.082124  0  3.905071  0  0  -0.076833  0  3.920908  0  0  -0.060484  -0.084614  0  3.89384  0
C  C30  1  0.79943221  0.07096914  0.45567308  1  0  -0.089331  0  3.793362  0  0  -0.063767  0  4.030816  0  0  -0.07552  0  4.055442  0  0  -0.018382  -0.056304  0  4.014689  0
C  C31  1  0.20056731  0.92903277  0.54432500  1  0  -0.089384  0  3.793223  0  0  -0.063952  0  4.030847  0  0  -0.075705  0  4.055477  0  0  -0.01842  -0.056467  0  4.0147  0
O  O32  1  0.32991983  0.51933709  0.34444605  1  0  -0.702554  0  2.061443  0  0  -0.644894  0  2.308223  0  0  -0.672943  0  2.298555  0  0  -0.350618  -0.625059  0  2.313969  0
O  O33  1  0.67008144  0.48066194  0.65555690  1  0  -0.702507  0  2.061357  0  0  -0.644866  0  2.308195  0  0  -0.6729  0  2.298493  0  0  -0.350601  -0.625033  0  2.313938  0
O  O34  1  0.02031353  0.39535498  0.87661436  1  0  -0.729699  0  2.000969  0  0  -0.670105  0  2.246706  0  0  -0.699717  0  2.23803  0  0  -0.364804  -0.649039  0  2.252019  0
O  O35  1  0.97968764  0.60464415  0.12338556  1  0  -0.729689  0  2.000849  0  0  -0.670094  0  2.246614  0  0  -0.699705  0  2.237934  0  0  -0.364799  -0.649027  0  2.251928  0
O  O36  1  0.55798547  0.82396096  0.49692279  1  0  -0.548384  0  2.111116  0  0  -0.492115  0  2.327331  0  0  -0.515931  0  2.315236  0  0  -0.313656  -0.475581  0  2.335335  0
O  O37  1  0.44201355  0.17604207  0.50308346  1  0  -0.54837  0  2.111285  0  0  -0.492088  0  2.327412  0  0  -0.515905  0  2.315329  0  0  -0.31366  -0.47556  0  2.335434  0
O  O38  1  0.34757558  0.44954004  0.86507216  1  0  -0.724665  0  1.956757  0  0  -0.661363  0  2.192612  0  0  -0.690668  0  2.182331  0  0  -0.366644  -0.640296  0  2.199032  0
O  O39  1  0.65242203  0.55045794  0.13492607  1  0  -0.724694  0  1.956733  0  0  -0.661383  0  2.19261  0  0  -0.690687  0  2.182324  0  0  -0.366646  -0.640313  0  2.199031  0
O  O40  1  0.52789766  0.84645982  0.26866366  1  0  -0.633251  0  2.005031  0  0  -0.583757  0  2.248331  0  0  -0.607977  0  2.238061  0  0  -0.322255  -0.566934  0  2.255253  0
O  O41  1  0.47209490  0.15354221  0.73133953  1  0  -0.633309  0  2.004825  0  0  -0.583798  0  2.24801  0  0  -0.608018  0  2.23774  0  0  -0.322285  -0.566967  0  2.25494  0
O  O42  1  0.10515649  0.29410539  0.17008985  1  0  -0.666869  0  1.939006  0  0  -0.606971  0  2.151938  0  0  -0.632646  0  2.141333  0  0  -0.328667  -0.589163  0  2.15873  0
O  O43  1  0.89484874  0.70589885  0.82991240  1  0  -0.666834  0  1.939024  0  0  -0.606903  0  2.151948  0  0  -0.632578  0  2.141346  0  0  -0.328623  -0.589098  0  2.158737  0
O  O44  1  0.30183218  0.80670740  0.98412103  1  0  -0.861179  0  1.77536  0  0  -0.813671  0  1.945884  0  0  -0.83324  0  1.915108  0  0  -0.605262  -0.799149  0  1.965926  0
O  O45  1  0.69817588  0.19329420  0.01587618  1  0  -0.861198  0  1.775328  0  0  -0.813725  0  1.945783  0  0  -0.833297  0  1.915001  0  0  -0.605258  -0.799205  0  1.965821  0
