# generated using pymatgen
data_Zr6H24C50Br5ClO32
_symmetry_space_group_name_H-M   'P 1'
_cell_length_a   14.78620484
_cell_length_b   14.77283581
_cell_length_c   14.82985570
_cell_angle_alpha   60.21995811
_cell_angle_beta   59.77794241
_cell_angle_gamma   60.18705255
_symmetry_Int_Tables_number   1
_chemical_formula_structural   Zr6H24C50Br5ClO32
_chemical_formula_sum   'Zr6 H24 C50 Br5 Cl1 O32'
_cell_volume   2293.68057220
_cell_formula_units_Z   1
loop_
 _symmetry_equiv_pos_site_id
 _symmetry_equiv_pos_as_xyz
  1  'x, y, z'
loop_
 _atom_site_type_symbol
 _atom_site_label
 _atom_site_symmetry_multiplicity
 _atom_site_fract_x
 _atom_site_fract_y
 _atom_site_fract_z
 _atom_site_occupancy
 _atom_site_pbe_bader_charge
 _atom_site_pbe_bader_spin_density
 _atom_site_pbe_cm5_charge
 _atom_site_pbe_ddec_charge
 _atom_site_pbe_ddec_spin_density
 _atom_site_pbe_ddec_sum_bond_order
 _atom_site_pbe_magmom
Zr  Zr0  1  0.87621188  0.88476722  0.61532356  1  2.634097  0  1.627641  2.370088  0  2.763854  0
Zr  Zr1  1  0.12016607  0.11895005  0.38070806  1  2.639132  0  1.630892  2.384182  0  2.758563  0
Zr  Zr2  1  0.11421420  0.88119102  0.61910646  1  2.63579  0  1.623626  2.377567  0  2.743513  0
Zr  Zr3  1  0.88053103  0.12289673  0.37679825  1  2.636745  0  1.625665  2.372211  0  2.7489  0
Zr  Zr4  1  0.11772036  0.88332567  0.37705065  1  2.635506  0  1.624657  2.376496  0  2.75086  0
Zr  Zr5  1  0.87795805  0.12322127  0.61631610  1  2.633376  0  1.624623  2.3772  0  2.747566  0
H  H6  1  0.08853245  0.72065921  0.59142943  1  0.598784  0  0.331856  0.423528  0  0.857269  0
H  H7  1  0.09701514  0.09522087  0.21576352  1  0.625889  0  0.332433  0.424696  0  0.856395  0
H  H8  1  0.09168189  0.09329183  0.59466099  1  0.614845  0  0.332243  0.425729  0  0.852861  0
H  H9  1  0.71483685  0.09902429  0.59006210  1  0.599453  0  0.331233  0.422835  0  0.85887  0
H  H10  1  0.83554569  0.60200765  0.62159388  1  0.102816  0  0.111019  0.117015  0  0.992638  0
H  H11  1  0.16101848  0.57330125  0.37616275  1  0.118617  0  0.102818  0.117553  0  1.029859  0
H  H12  1  0.84651995  0.42825491  0.61815969  1  0.108994  0  0.110307  0.117091  0  1.0011  0
H  H13  1  0.57410858  0.86225545  0.91235412  1  0.084897  0  0.110659  0.116598  0  0.993658  0
H  H14  1  0.61656171  0.11842184  0.93214097  1  0.10754  0  0.101319  0.117136  0  1.036875  0
H  H15  1  0.40782920  0.86578794  0.08626485  1  0.086003  0  0.10802  0.114095  0  1.009793  0
H  H16  1  0.13814716  0.85258483  0.08049606  1  0.07923  0  0.112332  0.120097  0  0.986409  0
H  H17  1  0.84918321  0.14249933  0.09416647  1  0.131913  0  0.108632  0.123857  0  1.011744  0
H  H18  1  0.12807695  0.86036408  0.91264473  1  0.130534  0  0.109113  0.115533  0  1.006639  0
H  H19  1  0.58578193  0.43346335  0.63248628  1  0.110707  0  0.112  0.11955  0  0.986439  0
H  H20  1  0.59348861  0.41440765  0.34890584  1  0.085957  0  0.108201  0.122714  0  1.014343  0
H  H21  1  0.41513841  0.60105597  0.62562042  1  0.117167  0  0.106555  0.112503  0  1.014948  0
H  H22  1  0.13323915  0.59951855  0.91101658  1  0.130103  0  0.10828  0.130231  0  0.999297  0
H  H23  1  0.73511390  0.62021990  0.97202439  1  0.055855  0  0.098413  0.108869  0  0.985366  0
H  H24  1  0.82201995  0.53561082  0.88585575  1  0.04621  0  0.097973  0.107926  0  0.984995  0
H  H25  1  0.83281074  0.36569488  0.05460897  1  0.040554  0  0.097536  0.109206  0  0.98791  0
H  H26  1  0.74574234  0.45027150  0.14065956  1  0.072588  0  0.097529  0.109859  0  0.991605  0
H  H27  1  0.58233953  0.14073999  0.34744819  1  0.108525  0  0.111374  0.120302  0  0.984659  0
H  H28  1  0.59468166  0.85316979  0.63741555  1  0.132877  0  0.108868  0.125008  0  1.007603  0
H  H29  1  0.41253790  0.12937914  0.35910294  1  0.121048  0  0.095652  0.102564  0  1.053586  0
C  C30  1  0.99284014  0.70312524  0.49414985  1  1.568984  0  0.237596  0.63973  0  4.09612  0
C  C31  1  0.31126448  0.99614247  0.20257043  1  1.565686  0  0.236021  0.649144  0  4.09511  0
C  C32  1  0.00281389  0.30473250  0.49629487  1  1.585358  0  0.235444  0.648204  0  4.096225  0
C  C33  1  0.69798850  0.99782419  0.80440202  1  1.547314  0  0.239256  0.643241  0  4.09366  0
C  C34  1  0.98836954  0.70348549  0.80421970  1  1.55633  0  0.237952  0.647214  0  4.101763  0
C  C35  1  0.69793888  0.00136078  0.49097222  1  1.54303  0  0.23939  0.642315  0  4.093162  0
C  C36  1  0.99933002  0.30766240  0.19903504  1  1.536844  0  0.23479  0.654431  0  4.098403  0
C  C37  1  0.30514072  0.99035042  0.50202346  1  1.558653  0  0.235275  0.649474  0  4.08616  0
C  C38  1  0.30360347  0.70092241  0.49122929  1  1.558657  0  0.234243  0.647385  0  4.092777  0
C  C39  1  0.98771774  0.00142516  0.80685940  1  1.569599  0  0.234589  0.647343  0  4.091676  0
C  C40  1  0.70020270  0.31232502  0.49256358  1  1.541966  0  0.238736  0.641083  0  4.093662  0
C  C41  1  0.99735592  0.99814244  0.19613768  1  1.560274  0  0.239118  0.642384  0  4.091132  0
C  C42  1  0.00824929  0.40352157  0.49568097  1  0.022563  0  -0.014649  -0.081919  0  3.913136  0
C  C43  1  0.99682580  0.59900030  0.49657784  1  -0.034268  0  -0.009644  -0.012352  0  3.958484  0
C  C44  1  0.09871325  0.44378499  0.42894805  1  -0.120017  0  -0.002212  0.108427  0  3.904768  0
C  C45  1  0.90825145  0.55771062  0.56721836  1  0.002731  0  -0.081287  -0.096851  0  3.974582  0
C  C46  1  0.09188396  0.54147916  0.42857721  1  0.057097  0  -0.087881  -0.147763  0  3.955804  0
C  C47  1  0.91457017  0.46172232  0.56544921  1  -0.065339  0  -0.076482  -0.076918  0  3.967308  0
C  C48  1  0.41694651  0.99465460  0.10584559  1  0.035471  0  -0.014306  -0.081712  0  3.908328  0
C  C49  1  0.60304886  0.99242754  0.91096884  1  -0.020354  0  -0.009473  -0.011497  0  3.958005  0
C  C50  1  0.47839139  0.06463031  0.06287269  1  -0.140726  0  -0.001908  0.109336  0  3.902065  0
C  C51  1  0.54641228  0.91872332  0.95495552  1  0.003656  0  -0.082168  -0.098859  0  3.974844  0
C  C52  1  0.56996845  0.06361531  0.96598114  1  0.050173  0  -0.08739  -0.147528  0  3.956844  0
C  C53  1  0.45472443  0.92079134  0.05086831  1  -0.001435  0  -0.077793  -0.077441  0  3.968561  0
C  C54  1  0.98397857  0.00452885  0.90841422  1  0.006974  0  -0.01416  -0.082181  0  3.904049  0
C  C55  1  0.99400746  0.99778331  0.09706732  1  0.003968  0  -0.009593  -0.012418  0  3.953014  0
C  C56  1  0.90481387  0.08470116  0.96084082  1  -0.096727  0  -0.003106  0.107893  0  3.905475  0
C  C57  1  0.07314557  0.91725834  0.04655452  1  -0.033077  0  -0.079517  -0.095015  0  3.963919  0
C  C58  1  0.91031194  0.08070992  0.05393379  1  -0.00032  0  -0.088858  -0.153016  0  3.965577  0
C  C59  1  0.06728027  0.92154661  0.95389763  1  -0.018159  0  -0.07593  -0.074422  0  3.957915  0
C  C60  1  0.40722672  0.60214960  0.48505703  1  0.048043  0  -0.013684  -0.081085  0  3.901776  0
C  C61  1  0.59990677  0.41408221  0.49052153  1  -0.074404  0  -0.009409  -0.012177  0  3.953747  0
C  C62  1  0.45917040  0.54869720  0.40602106  1  -0.133791  0  -0.003027  0.107655  0  3.905411  0
C  C63  1  0.55008693  0.46633584  0.56920580  1  0.025134  0  -0.079891  -0.094879  0  3.96409  0
C  C64  1  0.55424073  0.45593998  0.40929450  1  0.094036  0  -0.08868  -0.153385  0  3.965993  0
C  C65  1  0.45552042  0.55876970  0.56553162  1  -0.049468  0  -0.076057  -0.073356  0  3.955861  0
C  C66  1  0.98844383  0.60429918  0.90522257  1  0.036945  0  -0.010439  -0.062195  0  3.981894  0
C  C67  1  0.99907646  0.40906983  0.09982908  1  0.054713  0  -0.014735  -0.143395  0  3.913239  0
C  C68  1  0.91139419  0.54978084  0.95906424  1  -0.032925  0  -0.005123  0.05697  0  3.887454  0
C  C69  1  0.07731281  0.46551215  0.04443061  1  0.068465  0  0.023217  0.145218  0  4.000415  0
C  C70  1  0.91750348  0.45579866  0.05262564  1  -0.061185  0  -0.000146  0.077301  0  3.875431  0
C  C71  1  0.07134898  0.55948445  0.95063960  1  -0.014248  0  -0.091578  -0.172865  0  3.963098  0
C  C72  1  0.80983031  0.54847469  0.95863334  1  -0.010467  0  -0.150235  -0.198205  0  3.882364  0
C  C73  1  0.81652800  0.44193340  0.06449216  1  -0.010412  0  -0.149421  -0.195311  0  3.868498  0
C  C74  1  0.40761990  0.98649210  0.50346443  1  0.096509  0  -0.014856  -0.080547  0  3.900755  0
C  C75  1  0.59824525  0.99728449  0.49233555  1  0.020163  0  -0.009265  -0.011793  0  3.954769  0
C  C76  1  0.46024815  0.90772429  0.58238863  1  -0.159854  0  -0.003669  0.108856  0  3.909018  0
C  C77  1  0.54771103  0.07587121  0.41285907  1  -0.027308  0  -0.080819  -0.0937  0  3.962302  0
C  C78  1  0.55438621  0.91360363  0.57634058  1  0.012105  0  -0.089179  -0.152608  0  3.963403  0
C  C79  1  0.45396257  0.06956450  0.41940013  1  -0.068009  0  -0.079543  -0.077714  0  3.974591  0
Br  Br80  1  0.23817616  0.37178925  0.33851165  1  -0.031289  0  0.033203  -0.050938  0  1.503561  0
Br  Br81  1  0.44841833  0.16467569  0.12756360  1  -0.032061  0  0.038428  -0.046397  0  1.512885  0
Br  Br82  1  0.78440092  0.20463456  0.91551327  1  -0.03634  0  0.035266  -0.057594  0  1.449395  0
Br  Br83  1  0.40949429  0.59104955  0.28980409  1  -0.040204  0  0.035602  -0.056728  0  1.44339  0
Br  Br84  1  0.41276361  0.78817853  0.70333844  1  -0.046357  0  0.027657  -0.062245  0  1.408073  0
Cl  Cl85  1  0.18554343  0.42389560  0.08701741  1  -0.18732  0  -0.017299  -0.090342  0  1.59964  0
O  O86  1  0.91446231  0.74281605  0.57046251  1  -1.17831  0  -0.352932  -0.614589  0  2.277157  0
O  O87  1  0.26743056  0.07345035  0.24248347  1  -1.176655  0  -0.361811  -0.619249  0  2.382027  0
O  O88  1  0.07773063  0.26327183  0.42050535  1  -1.179796  0  -0.359076  -0.61516  0  2.382216  0
O  O89  1  0.73336938  0.92403510  0.76229238  1  -1.170001  0  -0.355104  -0.618074  0  2.282602  0
O  O90  1  0.06606009  0.74282700  0.76369489  1  -1.187587  0  -0.362309  -0.622204  0  2.293809  0
O  O91  1  0.73576108  0.07951204  0.41522410  1  -1.176397  0  -0.348808  -0.613  0  2.257822  0
O  O92  1  0.92232998  0.26857069  0.23524625  1  -1.165601  0  -0.355461  -0.615484  0  2.26695  0
O  O93  1  0.26119250  0.91644682  0.57772284  1  -1.177107  0  -0.363498  -0.623454  0  2.378555  0
O  O94  1  0.26158902  0.74255217  0.41659043  1  -1.179686  0  -0.362179  -0.621003  0  2.389752  0
O  O95  1  0.91455142  0.07796016  0.76346464  1  -1.186011  0  -0.360725  -0.619967  0  2.383156  0
O  O96  1  0.73759224  0.27320920  0.57036924  1  -1.172612  0  -0.351798  -0.616643  0  2.260476  0
O  O97  1  0.07593202  0.92265800  0.23266177  1  -1.174339  0  -0.351142  -0.615974  0  2.260702  0
O  O98  1  0.06515335  0.92329906  0.76954085  1  -1.18101  0  -0.346825  -0.613481  0  2.265229  0
O  O99  1  0.73963197  0.27119588  0.41699760  1  -1.178873  0  -0.352415  -0.614237  0  2.287582  0
O  O100  1  0.92175636  0.07535329  0.23573237  1  -1.181397  0  -0.353451  -0.615927  0  2.289093  0
O  O101  1  0.26360544  0.73585331  0.57147786  1  -1.179273  0  -0.345334  -0.610853  0  2.26526  0
O  O102  1  0.91271811  0.74098857  0.76444112  1  -1.170098  0  -0.345486  -0.605256  0  2.250541  0
O  O103  1  0.26769048  0.06886294  0.42547240  1  -1.184236  0  -0.347206  -0.612824  0  2.309093  0
O  O104  1  0.07457386  0.26562132  0.24030398  1  -1.168478  0  -0.352742  -0.608355  0  2.353922  0
O  O105  1  0.73661341  0.92610872  0.56808398  1  -1.178175  0  -0.357907  -0.616306  0  2.300569  0
O  O106  1  0.73517844  0.07694795  0.76267060  1  -1.18055  0  -0.352936  -0.611028  0  2.291314  0
O  O107  1  0.06929707  0.74331605  0.41698301  1  -1.184721  0  -0.353361  -0.611738  0  2.291473  0
O  O108  1  0.27001704  0.92207137  0.23630599  1  -1.173834  0  -0.349084  -0.614262  0  2.278053  0
O  O109  1  0.92280054  0.26912063  0.57234370  1  -1.184195  0  -0.350457  -0.617945  0  2.273861  0
O  O110  1  0.79519069  0.07228132  0.56305447  1  -1.229566  0  -0.693157  -1.06922  0  2.358196  0
O  O111  1  0.06473181  0.06733609  0.56730257  1  -1.24107  0  -0.695418  -1.067636  0  2.365437  0
O  O112  1  0.06827853  0.06837673  0.29583130  1  -1.254272  0  -0.695184  -1.069853  0  2.364946  0
O  O113  1  0.06222251  0.80073507  0.56461331  1  -1.228007  0  -0.694305  -1.07001  0  2.366466  0
O  O114  1  0.14646277  0.95063383  0.44990846  1  -1.195859  0  -0.790917  -1.146855  0  2.127222  0
O  O115  1  0.94819690  0.95399990  0.44653515  1  -1.200482  0  -0.790483  -1.149677  0  2.124241  0
O  O116  1  0.94995975  0.15060642  0.44824381  1  -1.198039  0  -0.791788  -1.14933  0  2.131251  0
O  O117  1  0.94545046  0.95364811  0.64639077  1  -1.194891  0  -0.790543  -1.148897  0  2.127768  0
