# generated using pymatgen
data_CoH8C11NO4
_symmetry_space_group_name_H-M   'P 1'
_cell_length_a   10.39470545
_cell_length_b   11.05071529
_cell_length_c   12.41484533
_cell_angle_alpha   55.35713456
_cell_angle_beta   86.55671427
_cell_angle_gamma   65.80345516
_symmetry_Int_Tables_number   1
_chemical_formula_structural   CoH8C11NO4
_chemical_formula_sum   'Co4 H32 C44 N4 O16'
_cell_volume   1041.37262831
_cell_formula_units_Z   4
loop_
 _symmetry_equiv_pos_site_id
 _symmetry_equiv_pos_as_xyz
  1  'x, y, z'
loop_
 _atom_site_type_symbol
 _atom_site_label
 _atom_site_symmetry_multiplicity
 _atom_site_fract_x
 _atom_site_fract_y
 _atom_site_fract_z
 _atom_site_occupancy
 _atom_site_pbe_bader_charge
 _atom_site_pbe_bader_spin_density
 _atom_site_pbe_cm5_charge
 _atom_site_pbe_ddec_charge
 _atom_site_pbe_ddec_spin_density
 _atom_site_pbe_ddec_sum_bond_order
 _atom_site_pbe_magmom
Co  Co0  1  0.86256025  0.09196263  0.75906751  1  1.205868  2.544555  0.655391  0.878515  2.717364  2.55538  2.49
Co  Co1  1  0.83822389  0.04721132  0.01540447  1  1.317682  2.670537  0.655862  0.999706  2.911603  2.456294  2.653
Co  Co2  1  0.13733086  0.90802928  0.24083926  1  1.204313  2.544624  0.655528  0.878996  2.717431  2.554598  2.49
Co  Co3  1  0.16159482  0.95288907  0.98450875  1  1.316661  2.669947  0.65523  0.999258  2.910622  2.452497  2.652
H  H4  1  0.92227093  0.24245613  0.83459433  1  0.653329  0.002646  0.278993  0.379561  0.00232  0.964289  0.005
H  H5  1  0.67707578  0.71696607  0.14602537  1  0.0787  0.000147  0.106612  0.122989  -6.9e-05  1.032874  0.0
H  H6  1  0.68069212  0.32899201  0.14018893  1  0.10549  -2.8e-05  0.107229  0.11506  -0.000197  1.057168  0.0
H  H7  1  0.88766609  0.61970318  0.87651577  1  0.093545  0.000338  0.105771  0.112317  0.000107  1.027362  0.0
H  H8  1  0.55410951  0.44796752  0.42627466  1  0.121858  0.001106  0.11414  0.112037  0.000379  0.996929  0.0
H  H9  1  0.63461693  0.57985034  0.33266739  1  0.067797  -2e-05  0.107345  0.083217  -0.000186  1.01832  0.0
H  H10  1  0.82251716  0.74737750  0.28469807  1  0.098264  0.002037  0.118729  0.090722  0.000585  0.98442  0.001
H  H11  1  0.65505927  0.71018973  0.44216082  1  0.065767  0.001152  0.106076  0.11386  0.000504  0.99648  0.0
H  H12  1  0.42390249  0.24349644  0.20699991  1  0.090023  0.00071  0.105693  0.113636  0.000316  1.034512  0.0
H  H13  1  0.59164190  0.25562232  0.05747599  1  0.119287  0.001692  0.117446  0.090312  0.000607  1.028494  0.001
H  H14  1  0.43535308  0.83438944  0.50467613  1  0.076873  4e-06  0.107375  0.110193  -9e-06  0.994941  0.0
H  H15  1  0.27660800  0.21594151  0.31208620  1  0.082774  7.2e-05  0.104195  0.099686  8.4e-05  1.041399  0.0
H  H16  1  0.26205102  0.82403444  0.61382613  1  0.121175  0.000684  0.106929  0.11215  0.000278  1.047424  0.0
H  H17  1  0.06750748  0.84675434  0.73698575  1  0.127777  0.002248  0.117377  0.089755  0.000781  1.033745  0.002
H  H18  1  0.87515301  0.35851288  0.48429170  1  0.073393  0.002453  0.116108  0.083002  0.000958  0.995736  0.002
H  H19  1  0.06187798  0.35957081  0.34698983  1  0.114593  0.000924  0.110629  0.129307  0.000426  1.004967  0.0
H  H20  1  0.07739932  0.75764849  0.16545244  1  0.653676  0.002646  0.279281  0.379464  0.002322  0.964138  0.005
H  H21  1  0.32292586  0.28298549  0.85399335  1  0.078767  0.000148  0.106658  0.122981  -6.9e-05  1.032789  0.0
H  H22  1  0.31933329  0.67096532  0.85981883  1  0.105812  -3e-05  0.107179  0.11505  -0.000198  1.057036  0.0
H  H23  1  0.11239886  0.38019683  0.12353419  1  0.093916  0.00034  0.105693  0.112328  0.000108  1.027522  0.0
H  H24  1  0.44599077  0.55196379  0.57379293  1  0.121724  0.001092  0.11428  0.112142  0.000372  0.996693  0.0
H  H25  1  0.36550592  0.42006461  0.66738229  1  0.069477  -2.4e-05  0.107305  0.083277  -0.000189  1.018562  0.0
H  H26  1  0.17756600  0.25262497  0.71527975  1  0.09806  0.002031  0.118746  0.090871  0.000583  0.984502  0.001
H  H27  1  0.34510372  0.28978649  0.55788317  1  0.06548  0.001148  0.106174  0.11416  0.000502  0.996131  0.0
H  H28  1  0.57622230  0.75649856  0.79301627  1  0.09024  0.000709  0.105845  0.113946  0.000315  1.034676  0.0
H  H29  1  0.40844827  0.74435687  0.94250549  1  0.119704  0.001689  0.117414  0.090322  0.000607  1.028261  0.001
H  H30  1  0.56487274  0.16559499  0.49544981  1  0.074736  5e-06  0.107323  0.11009  -8e-06  0.994788  0.0
H  H31  1  0.72348419  0.78403107  0.68798329  1  0.084173  7.3e-05  0.104175  0.099602  8.5e-05  1.041389  0.0
H  H32  1  0.73805272  0.17594610  0.38627034  1  0.120216  0.000685  0.106904  0.112063  0.000278  1.047627  0.0
H  H33  1  0.93246557  0.15324839  0.26297406  1  0.128286  0.002247  0.117349  0.089845  0.00078  1.033861  0.002
H  H34  1  0.12481780  0.64148033  0.51564781  1  0.073647  0.002452  0.116085  0.082939  0.000957  0.995623  0.002
H  H35  1  0.93820105  0.64040824  0.65306545  1  0.114897  0.000924  0.110701  0.12945  0.000426  1.004758  0.0
C  C36  1  0.81787238  0.82021276  0.95687998  1  1.544574  -0.004144  0.216103  0.589344  -0.005193  4.148372  -0.004
C  C37  1  0.78504086  0.67963376  0.00757780  1  -0.030853  0.009362  -0.013792  -9.3e-05  0.004816  3.977802  0.007
C  C38  1  0.70857364  0.64172167  0.10997227  1  0.002006  0.000701  -0.099304  -0.221783  5.4e-05  3.942698  0.0
C  C39  1  0.67159149  0.51465153  0.15760841  1  0.40923  0.000774  0.083143  0.255517  0.000345  4.068873  0.001
C  C40  1  0.70990635  0.42795699  0.10220225  1  0.001208  5e-06  -0.094936  -0.208386  -0.000248  3.943455  0.0
C  C41  1  0.78815868  0.46365030  0.00176731  1  -0.039724  0.00579  -0.015158  -0.01126  0.003002  3.972335  0.004
C  C42  1  0.82567679  0.59111985  0.95365679  1  -0.013329  0.001874  -0.09128  -0.152213  0.000805  3.980695  0.001
C  C43  1  0.55624243  0.54075964  0.32372329  1  0.415228  0.010138  -0.064575  -0.122631  0.005481  3.892521  0.008
C  C44  1  0.40667901  0.69066149  0.25130750  1  1.593484  -0.001051  0.21319  0.607331  -0.001937  4.136905  -0.002
C  C45  1  0.83281056  0.35895117  0.95172789  1  1.59291  0.001686  0.207392  0.584548  0.000843  4.170486  0.001
C  C46  1  0.73094129  0.85349630  0.27120215  1  0.504931  -0.006214  0.043487  0.089845  -0.007057  3.965479  -0.003
C  C47  1  0.63694719  0.83417437  0.35779615  1  -0.067076  0.00337  -0.085712  -0.187069  0.001296  3.9446  0.003
C  C48  1  0.51958054  0.97422214  0.33698701  1  -0.043852  -0.009534  0.007124  0.149687  -0.010252  4.016667  -0.006
C  C49  1  0.50848419  0.12859055  0.22902648  1  0.020222  0.00263  -0.081154  -0.166532  0.001073  3.921487  0.003
C  C50  1  0.60392185  0.13715525  0.14568648  1  0.449221  -0.004752  0.042465  0.093669  -0.005256  3.957506  -0.003
C  C51  1  0.41443629  0.95986391  0.42056649  1  -0.000742  -0.009177  -0.075879  -0.109209  -0.010128  3.92675  -0.005
C  C52  1  0.29429740  0.09217004  0.39633012  1  -0.053423  -0.004938  -0.077116  -0.108928  -0.005543  3.948898  -0.002
C  C53  1  0.18197230  0.09096193  0.47100305  1  -0.032368  -0.010732  0.0087  0.149404  -0.011629  4.012257  -0.007
C  C54  1  0.17960969  0.94573663  0.58114925  1  0.001983  0.004329  -0.081077  -0.164739  0.001647  3.913768  0.004
C  C55  1  0.07143044  0.95653188  0.65035793  1  0.42526  -0.004026  0.043509  0.097535  -0.004452  3.945788  -0.002
C  C56  1  0.96341582  0.24344072  0.50869434  1  0.453997  -0.005217  0.03934  0.081225  -0.005787  3.985739  -0.002
C  C57  1  0.06712645  0.24292222  0.43338527  1  -0.021124  0.005712  -0.081271  -0.177737  0.002256  3.921318  0.005
C  C58  1  0.18183859  0.17997625  0.04293760  1  1.54379  -0.00409  0.216272  0.588944  -0.005137  4.148315  -0.004
C  C59  1  0.21490740  0.32037089  0.99239387  1  -0.031203  0.009336  -0.013883  -0.000447  0.004803  3.978239  0.007
C  C60  1  0.29146661  0.35821237  0.89006150  1  0.001787  0.000727  -0.099278  -0.221275  7.6e-05  3.941916  0.0
C  C61  1  0.32850233  0.48524134  0.84246255  1  0.407961  0.00077  0.083189  0.255241  0.000343  4.068533  0.001
C  C62  1  0.29010925  0.57200348  0.89782015  1  0.00206  2.4e-05  -0.094958  -0.2082  -0.000232  3.943108  0.0
C  C63  1  0.21180439  0.53634609  0.99821599  1  -0.038958  0.005755  -0.015096  -0.011362  0.002982  3.97279  0.004
C  C64  1  0.17432131  0.40884571  0.04634162  1  -0.014433  0.001903  -0.09125  -0.152093  0.000826  3.981561  0.001
C  C65  1  0.44385964  0.45916446  0.67634071  1  0.413718  0.010169  -0.064852  -0.122915  0.005499  3.893678  0.008
C  C66  1  0.59339281  0.30929526  0.74868347  1  1.590775  -0.001123  0.213677  0.607107  -0.002018  4.136538  -0.002
C  C67  1  0.16693983  0.64111643  0.04820498  1  1.592177  0.001724  0.207018  0.583909  0.000865  4.171455  0.001
C  C68  1  0.26913023  0.14649140  0.72878487  1  0.50488  -0.006194  0.043347  0.089727  -0.007038  3.965814  -0.003
C  C69  1  0.36317603  0.16580984  0.64223600  1  -0.067815  0.00336  -0.085497  -0.18737  0.001292  3.944362  0.003
C  C70  1  0.48054890  0.02576864  0.66305671  1  -0.043385  -0.009495  0.006893  0.149903  -0.01021  4.016762  -0.006
C  C71  1  0.49161969  0.87140111  0.77098729  1  0.018768  0.00264  -0.081237  -0.166929  0.001079  3.92157  0.003
C  C72  1  0.39612771  0.86284172  0.85428479  1  0.449489  -0.004728  0.042465  0.093669  -0.005229  3.957389  -0.003
C  C73  1  0.58572528  0.04012662  0.57952039  1  0.003096  -0.009142  -0.07559  -0.108744  -0.010096  3.926463  -0.005
C  C74  1  0.70583657  0.90779707  0.60376714  1  -0.052988  -0.004897  -0.077206  -0.108824  -0.0055  3.948962  -0.002
C  C75  1  0.81815922  0.90900910  0.52909758  1  -0.034699  -0.010693  0.008806  0.149306  -0.011585  4.012233  -0.007
C  C76  1  0.82049433  0.05424552  0.41893271  1  0.003016  0.004342  -0.081042  -0.164516  0.001656  3.913472  0.004
C  C77  1  0.92859855  0.04346136  0.34964848  1  0.424206  -0.004004  0.043493  0.097282  -0.004431  3.94564  -0.002
C  C78  1  0.03661070  0.75655127  0.49130134  1  0.453473  -0.005195  0.039511  0.081548  -0.005766  3.985585  -0.002
C  C79  1  0.93297258  0.75705262  0.56668293  1  -0.02137  0.005714  -0.081471  -0.178146  0.00226  3.921311  0.005
N  N80  1  0.71440500  0.00269127  0.16488908  1  -1.204518  0.061045  -0.321066  -0.227973  0.033353  3.513167  0.051
N  N81  1  0.96611447  0.10272430  0.61797525  1  -1.248944  0.067462  -0.354362  -0.273252  0.034744  3.650666  0.046
N  N82  1  0.28560857  0.99729882  0.83507148  1  -1.202921  0.060981  -0.321023  -0.228261  0.033312  3.512877  0.051
N  N83  1  0.03387858  0.89726921  0.38200039  1  -1.248395  0.067505  -0.354296  -0.273203  0.034768  3.650581  0.046
O  O84  1  0.85158616  0.88580257  0.84208870  1  -1.138978  0.095012  -0.30951  -0.537906  0.047977  2.3972  0.075
O  O85  1  0.80866594  0.86770226  0.03006642  1  -1.156541  0.067047  -0.302041  -0.56633  0.035021  2.45485  0.06
O  O86  1  0.60171742  0.46072902  0.26038565  1  -1.095686  0.003047  -0.182959  -0.183865  0.001334  2.573493  0.002
O  O87  1  0.33734059  0.72662018  0.32663919  1  -1.156637  0.087362  -0.325848  -0.566607  0.043996  2.334689  0.068
O  O88  1  0.36344888  0.76623127  0.12764762  1  -1.171848  0.06336  -0.28769  -0.540084  0.03291  2.380112  0.056
O  O89  1  0.84196118  0.21411703  0.03773127  1  -1.16114  0.076575  -0.318887  -0.587867  0.040222  2.432011  0.064
O  O90  1  0.85866076  0.41429036  0.83620212  1  -1.1737  0.013611  -0.321473  -0.5395  0.005954  2.085847  0.011
O  O91  1  0.95386125  0.12778701  0.86162021  1  -1.217598  0.247889  -0.560941  -0.880148  0.134881  2.409792  0.203
O  O92  1  0.14785225  0.11450987  0.15761341  1  -1.138392  0.094857  -0.309963  -0.538297  0.047928  2.396772  0.075
O  O93  1  0.19114213  0.13247741  0.96974842  1  -1.155983  0.06709  -0.301956  -0.56596  0.035035  2.454704  0.06
O  O94  1  0.39843266  0.53913082  0.73972626  1  -1.094829  0.00306  -0.18283  -0.18391  0.00134  2.573622  0.002
O  O95  1  0.66244480  0.27304553  0.67339694  1  -1.155481  0.087388  -0.3262  -0.566524  0.043994  2.334709  0.068
O  O96  1  0.63684078  0.23407145  0.87223817  1  -1.170361  0.063545  -0.287865  -0.53943  0.033019  2.382124  0.056
O  O97  1  0.15744560  0.78611631  0.96211117  1  -1.16182  0.076352  -0.318735  -0.587962  0.04009  2.431596  0.064
O  O98  1  0.14127408  0.58564407  0.16380036  1  -1.172841  0.0136  -0.321328  -0.53912  0.00595  2.085369  0.011
O  O99  1  0.04584533  0.87231254  0.13836419  1  -1.217478  0.247766  -0.561311  -0.87995  0.134823  2.410534  0.203
