# generated using pymatgen
data_Ni3H32(C22O7)2
_symmetry_space_group_name_H-M   'P 1'
_cell_length_a   6.21173584
_cell_length_b   21.48137736
_cell_length_c   21.28946608
_cell_angle_alpha   66.64101772
_cell_angle_beta   81.63579488
_cell_angle_gamma   81.71562796
_symmetry_Int_Tables_number   1
_chemical_formula_structural   Ni3H32(C22O7)2
_chemical_formula_sum   'Ni6 H64 C88 O28'
_cell_volume   2568.51634225
_cell_formula_units_Z   2
loop_
 _symmetry_equiv_pos_site_id
 _symmetry_equiv_pos_as_xyz
  1  'x, y, z'
loop_
 _atom_site_type_symbol
 _atom_site_label
 _atom_site_symmetry_multiplicity
 _atom_site_fract_x
 _atom_site_fract_y
 _atom_site_fract_z
 _atom_site_occupancy
 _atom_site_pbe_bader_charge
 _atom_site_pbe_bader_spin_density
 _atom_site_pbe_cm5_charge
 _atom_site_pbe_ddec_charge
 _atom_site_pbe_ddec_spin_density
 _atom_site_pbe_ddec_sum_bond_order
 _atom_site_pbe_magmom
Ni  Ni0  1  0.48838588  0.07409052  0.44487951  1  1.205914  1.597776  0.595614  0.967579  1.779301  2.262895  1.586
Ni  Ni1  1  0.00683536  0.42586352  0.05488482  1  1.207093  1.597347  0.595942  0.968168  1.779442  2.262273  1.585
Ni  Ni2  1  0.51163249  0.92591055  0.55511846  1  1.205958  1.597804  0.59565  0.967636  1.779312  2.262959  1.586
Ni  Ni3  1  0.99313930  0.57414187  0.94511677  1  1.20698  1.597357  0.595924  0.96807  1.779468  2.262595  1.585
Ni  Ni4  1  0.00000977  0.99999981  0.49999924  1  1.238116  1.609996  0.616806  1.008069  1.787956  2.290913  1.598
Ni  Ni5  1  0.49998157  0.50000304  0.99999611  1  1.235983  1.610416  0.616468  1.007319  1.788408  2.292189  1.599
H  H6  1  0.57027425  0.56744144  0.25794841  1  0.09164  0.000179  0.102988  0.106403  7.1e-05  1.00083  0.0
H  H7  1  0.91286712  0.46776724  0.24430318  1  0.085437  0.000321  0.100749  0.10115  0.000171  1.01541  0.0
H  H8  1  0.92473452  0.50550162  0.34034827  1  0.079675  0.000107  0.099595  0.103248  4e-05  1.019645  0.0
H  H9  1  0.56034012  0.52699471  0.16380592  1  0.085528  4.9e-05  0.10469  0.106593  -3.1e-05  1.011994  0.0
H  H10  1  0.70082295  0.35242555  0.45911796  1  0.070688  3.9e-05  0.10331  0.109711  2.5e-05  1.010864  0.0
H  H11  1  0.28628139  0.84338064  0.42809875  1  0.082087  0.000123  0.10508  0.107846  3.7e-05  1.005194  0.0
H  H12  1  0.47677556  0.43252079  0.37030485  1  0.093987  1.2e-05  0.101799  0.106254  4e-06  1.013392  0.0
H  H13  1  0.42375658  0.74083907  0.40175794  1  0.084386  0.000113  0.101159  0.10332  3.1e-05  1.008808  0.0
H  H14  1  0.64708301  0.77202343  0.49033685  1  0.08601  0.000103  0.106296  0.112883  2.5e-05  1.006888  0.0
H  H15  1  0.07505435  0.65118241  0.33236083  1  0.086668  6e-06  0.103144  0.113901  1e-06  0.993108  0.0
H  H16  1  0.78644416  0.66730721  0.46687878  1  0.049278  0.000153  0.0973  0.0998  4.8e-05  1.024457  0.0
H  H17  1  0.37604093  0.12699498  0.32589067  1  0.612713  -0.000342  0.314096  0.396001  -0.000357  0.890253  0.0
H  H18  1  0.16542967  0.09856432  0.37109908  1  0.64768  -0.00021  0.289548  0.379692  -0.000135  0.967988  0.0
H  H19  1  0.76900013  0.16445076  0.37276142  1  0.616588  0.00066  0.318741  0.396565  0.000417  0.881321  0.0
H  H20  1  0.78759636  0.14222099  0.45073543  1  0.66224  -0.000174  0.291919  0.384996  -6.6e-05  0.957976  0.0
H  H21  1  0.35121756  0.97038944  0.44319152  1  0.614534  -0.000245  0.304591  0.388334  0.000603  0.907903  0.001
H  H22  1  0.39812005  0.93265216  0.24237850  1  0.071343  0.000178  0.103035  0.1061  7e-05  1.001448  0.0
H  H23  1  0.62689195  0.03171765  0.25573303  1  0.07528  0.000316  0.100767  0.100896  0.00017  1.015496  0.0
H  H24  1  0.77321677  0.99379387  0.15983431  1  0.073189  0.000107  0.09961  0.103556  4e-05  1.019385  0.0
H  H25  1  0.25298538  0.97324896  0.33636131  1  0.07219  5.3e-05  0.104484  0.105894  -2.9e-05  1.011236  0.0
H  H26  1  0.51359268  0.14752041  0.04093859  1  0.070882  4.2e-05  0.10336  0.110191  2.7e-05  1.010452  0.0
H  H27  1  0.55922528  0.65646032  0.07201055  1  0.080207  0.000119  0.105498  0.10821  3.4e-05  1.004944  0.0
H  H28  1  0.28278016  0.06707152  0.13016115  1  0.10166  1e-05  0.101455  0.106318  4e-06  1.01349  0.0
H  H29  1  0.56832534  0.75904482  0.09827567  1  0.064049  0.000114  0.100644  0.102068  3.1e-05  1.008699  0.0
H  H30  1  0.91050398  0.72760299  0.01016597  1  0.101246  0.000102  0.106458  0.112946  2.5e-05  1.006742  0.0
H  H31  1  0.06222477  0.84822108  0.16836469  1  0.077381  7e-06  0.10356  0.114056  1e-06  0.992843  0.0
H  H32  1  0.92186341  0.83225818  0.03376850  1  0.054508  0.000151  0.097996  0.101007  4.7e-05  1.023013  0.0
H  H33  1  0.82819154  0.37285401  0.17372631  1  0.614776  -0.000369  0.313873  0.396148  -0.00037  0.890537  0.0
H  H34  1  0.63414395  0.40128553  0.12863941  1  0.654769  -0.000231  0.28957  0.379359  -0.00014  0.968435  0.0
H  H35  1  0.30484357  0.33518006  0.12699344  1  0.619029  0.00066  0.31848  0.396889  0.000418  0.879953  0.0
H  H36  1  0.37971210  0.35777401  0.04903778  1  0.655441  -0.00014  0.291515  0.384461  -6.6e-05  0.95851  0.0
H  H37  1  0.76486079  0.52936093  0.05702654  1  0.620307  -0.000229  0.305021  0.389578  0.000609  0.906314  0.001
H  H38  1  0.42964187  0.43257383  0.74205590  1  0.091564  0.000179  0.102971  0.106319  7.1e-05  1.000806  0.0
H  H39  1  0.08717962  0.53219693  0.75571291  1  0.085767  0.000321  0.100843  0.101205  0.000171  1.015422  0.0
H  H40  1  0.07528415  0.49443895  0.65967983  1  0.076499  0.000107  0.099547  0.103192  4e-05  1.019351  0.0
H  H41  1  0.43961349  0.47302529  0.83619367  1  0.085285  4.9e-05  0.104645  0.106556  -3.1e-05  1.011978  0.0
H  H42  1  0.29917720  0.64756660  0.54088869  1  0.070739  3.9e-05  0.103326  0.109754  2.5e-05  1.010934  0.0
H  H43  1  0.71376643  0.15661013  0.57191576  1  0.081765  0.000122  0.105163  0.107877  3.7e-05  1.00537  0.0
H  H44  1  0.52320363  0.56746580  0.62970280  1  0.094115  1.2e-05  0.101805  0.106226  4e-06  1.013466  0.0
H  H45  1  0.57626092  0.25914491  0.59826217  1  0.084693  0.000113  0.101226  0.103288  3.1e-05  1.008862  0.0
H  H46  1  0.35291005  0.22798039  0.50965604  1  0.085944  0.000104  0.106298  0.112932  2.5e-05  1.006906  0.0
H  H47  1  0.92492472  0.34880454  0.66764952  1  0.086559  6e-06  0.103178  0.113931  1e-06  0.993346  0.0
H  H48  1  0.21354852  0.33269280  0.53312020  1  0.049369  0.000153  0.097278  0.099759  4.8e-05  1.024335  0.0
H  H49  1  0.62397514  0.87299824  0.67411444  1  0.612828  -0.000341  0.314056  0.395878  -0.000357  0.890246  0.0
H  H50  1  0.83458182  0.90142797  0.62890468  1  0.647707  -0.00021  0.289521  0.379532  -0.000135  0.968201  0.0
H  H51  1  0.23100511  0.83555067  0.62723933  1  0.616586  0.00066  0.318725  0.396537  0.000417  0.881347  0.0
H  H52  1  0.21241805  0.85777232  0.54926784  1  0.662371  -0.000174  0.291914  0.385023  -6.6e-05  0.957922  0.0
H  H53  1  0.64881974  0.02960349  0.55680902  1  0.614518  -0.000245  0.304615  0.388432  0.000602  0.90774  0.001
H  H54  1  0.60188209  0.06734381  0.75762152  1  0.071424  0.000178  0.103032  0.106081  7e-05  1.001481  0.0
H  H55  1  0.37313201  0.96831100  0.74424306  1  0.075148  0.000316  0.100712  0.100878  0.00017  1.015602  0.0
H  H56  1  0.22682281  0.00623177  0.84014172  1  0.073083  0.000107  0.099584  0.103602  4e-05  1.019396  0.0
H  H57  1  0.74700605  0.02674492  0.66364039  1  0.071981  5.2e-05  0.104484  0.105878  -2.9e-05  1.011247  0.0
H  H58  1  0.48640276  0.85248605  0.95905137  1  0.070953  4.2e-05  0.10338  0.110175  2.7e-05  1.010282  0.0
H  H59  1  0.44076377  0.34354083  0.92798583  1  0.080051  0.000119  0.105515  0.108224  3.4e-05  1.005001  0.0
H  H60  1  0.71721028  0.93294030  0.86983181  1  0.101462  1e-05  0.101478  0.106397  4e-06  1.0134  0.0
H  H61  1  0.43170747  0.24095681  0.90171066  1  0.064681  0.000114  0.10064  0.102046  3.1e-05  1.008652  0.0
H  H62  1  0.08949377  0.27241137  0.98982624  1  0.100837  0.000102  0.106477  0.112952  2.5e-05  1.006751  0.0
H  H63  1  0.93779670  0.15179039  0.83162519  1  0.076919  7e-06  0.103403  0.113776  1e-06  0.992975  0.0
H  H64  1  0.07817401  0.16774936  0.96623009  1  0.054282  0.000151  0.097953  0.100997  4.7e-05  1.022868  0.0
H  H65  1  0.17179927  0.62715172  0.82626835  1  0.61466  -0.000369  0.313873  0.396224  -0.000369  0.890337  0.0
H  H66  1  0.36583843  0.59872111  0.87135716  1  0.655018  -0.000231  0.289568  0.379438  -0.000139  0.968338  0.0
H  H67  1  0.69512925  0.66481100  0.87300443  1  0.619284  0.00066  0.318559  0.396974  0.000419  0.879726  0.0
H  H68  1  0.62025907  0.64222709  0.95095937  1  0.65537  -0.00014  0.291606  0.384605  -6.6e-05  0.958304  0.0
H  H69  1  0.23511984  0.47064110  0.94297223  1  0.620248  -0.000228  0.305011  0.38965  0.00061  0.906236  0.001
C  C70  1  0.42593575  0.54564084  0.25478646  1  -0.114609  0.000282  -0.089125  -0.13845  8.2e-05  3.982651  0.0
C  C71  1  0.05615292  0.48986215  0.24754868  1  -0.076323  0.001322  -0.084681  -0.082665  0.00055  3.976513  0.001
C  C72  1  0.06212209  0.51175586  0.30071477  1  0.007454  0.000354  -0.089918  -0.1366  9.9e-05  3.970679  0.0
C  C73  1  0.23708998  0.49401004  0.19869315  1  -0.032024  0.008674  -0.024492  -0.049273  0.005076  3.981598  0.007
C  C74  1  0.42097345  0.52301086  0.20226810  1  -0.020434  0.001247  -0.084763  -0.085993  0.00067  3.988639  0.001
C  C75  1  0.56518131  0.47653851  0.52603004  1  0.038447  -6e-06  0.000428  0.005027  -1.9e-05  3.935477  0.0
C  C76  1  0.62640727  0.39994147  0.46325386  1  -0.100764  0.000103  -0.091813  -0.128805  6.2e-05  4.017058  0.0
C  C77  1  0.17622593  0.80540366  0.43520529  1  -0.03569  0.002517  -0.083905  -0.085927  0.001319  3.986655  0.001
C  C78  1  0.50180097  0.44477119  0.41353443  1  -0.030961  7.2e-05  -0.093661  -0.130333  3.9e-05  4.024166  0.0
C  C79  1  0.23635123  0.46773308  0.14346194  1  1.554858  0.003134  0.217669  0.59832  0.001668  4.164136  0.002
C  C80  1  0.40213007  0.50795975  0.41686777  1  0.000247  0.00014  -0.009248  0.02272  7.6e-05  4.008974  0.0
C  C81  1  0.25274141  0.74804145  0.42052822  1  -0.052039  -5.8e-05  -0.091729  -0.141541  -0.00024  3.990147  0.0
C  C82  1  0.24870729  0.53891525  0.30547355  1  -0.038823  0.000687  -0.000173  0.084881  0.000354  3.99681  0.0
C  C83  1  0.87616311  0.87211481  0.48212663  1  1.542352  0.001164  0.220623  0.596557  -8.1e-05  4.149295  0.0
C  C84  1  0.66200918  0.41390586  0.52122164  1  -0.053152  0.0002  -0.008018  0.024144  0.000107  4.003595  0.0
C  C85  1  0.81614114  0.76498386  0.46988041  1  -0.029855  0.002695  -0.082115  -0.083201  0.001481  3.964329  0.002
C  C86  1  0.17402142  0.61521176  0.37225363  1  -0.053971  0.000198  -0.090147  -0.184225  0.000113  3.990463  0.0
C  C87  1  0.95777893  0.81379750  0.46088653  1  -0.016577  0.009424  -0.021088  -0.045581  0.005696  3.981985  0.007
C  C88  1  0.89400147  0.70702436  0.45616532  1  -0.035626  7.2e-05  -0.092706  -0.140448  -0.000132  3.981933  0.0
C  C89  1  0.11413821  0.69744324  0.43240070  1  -0.036608  0.002341  -0.003378  0.078058  0.001267  4.007084  0.001
C  C90  1  0.27133476  0.55484408  0.36588774  1  -0.026219  5.3e-05  -0.005344  0.026851  1.7e-05  3.988284  0.0
C  C91  1  0.20792846  0.63194917  0.42696795  1  0.020058  3.5e-05  -0.004588  0.03068  -1.6e-05  3.984832  0.0
C  C92  1  0.22877265  0.95433772  0.24546287  1  -0.001317  0.000279  -0.089263  -0.137882  9.2e-05  3.982226  0.0
C  C93  1  0.79561791  0.00974108  0.25253925  1  -0.056092  0.001302  -0.084125  -0.081254  0.000532  3.976374  0.001
C  C94  1  0.87697384  0.98774895  0.19949067  1  -0.070538  0.00034  -0.090352  -0.13767  8.5e-05  3.971029  0.0
C  C95  1  0.93167361  0.00575765  0.30141620  1  -0.015703  0.008615  -0.02472  -0.050732  0.005061  3.983944  0.007
C  C96  1  0.14827107  0.97698556  0.29792623  1  -0.086814  0.001327  -0.084098  -0.084578  0.000707  3.987407  0.001
C  C97  1  0.56721526  0.02355078  0.97387918  1  0.009575  -6e-06  0.00096  0.005541  -1.8e-05  3.935674  0.0
C  C98  1  0.49067020  0.10002513  0.03678999  1  -0.161968  9.3e-05  -0.091936  -0.129065  5.5e-05  4.018026  0.0
C  C99  1  0.41827867  0.69436937  0.06498135  1  -0.051419  0.002501  -0.084648  -0.087575  0.001308  3.986736  0.001
C  C100  1  0.36222628  0.05501162  0.08672481  1  -0.023202  7.5e-05  -0.093707  -0.131405  4.3e-05  4.02506  0.0
C  C101  1  0.84899875  0.03200357  0.35662288  1  1.539471  0.003139  0.218373  0.599055  0.001688  4.163913  0.002
C  C102  1  0.32886873  0.99181064  0.08340855  1  0.019679  0.000143  -0.008843  0.023445  7.8e-05  4.00874  0.0
C  C103  1  0.42311461  0.75173304  0.07962988  1  -0.033216  -8.5e-05  -0.090416  -0.13851  -0.000267  3.987172  0.0
C  C104  1  0.09561374  0.96071590  0.19486186  1  0.010279  0.000692  -0.000532  0.084027  0.000363  3.997913  0.0
C  C105  1  0.23127032  0.62763221  0.01821316  1  1.538716  0.001166  0.221748  0.597547  -8e-05  4.147896  0.0
C  C106  1  0.59671427  0.08623230  0.97862094  1  0.002466  0.000192  -0.008256  0.024258  0.000103  4.003732  0.0
C  C107  1  0.05207444  0.73464058  0.03064617  1  -0.014999  0.002728  -0.081698  -0.082855  0.001512  3.964486  0.002
C  C108  1  0.16432861  0.88433165  0.12829618  1  0.006009  0.000198  -0.090772  -0.184171  0.000115  3.992411  0.0
C  C109  1  0.23351184  0.68589757  0.03949749  1  -0.050218  0.009441  -0.021679  -0.045354  0.005683  3.98196  0.007
C  C110  1  0.05854072  0.79260566  0.04434412  1  -0.079042  8.2e-05  -0.092916  -0.141727  -0.000128  3.983351  0.0
C  C111  1  0.24562288  0.80222036  0.06798542  1  0.037265  0.002359  -0.004409  0.077359  0.001283  4.007845  0.001
C  C112  1  0.19473927  0.94479486  0.13451144  1  -0.039134  4.1e-05  -0.004669  0.027837  1.1e-05  3.990156  0.0
C  C113  1  0.26847986  0.86773353  0.07340755  1  -0.051137  4e-05  -0.004961  0.029261  -1.6e-05  3.987701  0.0
C  C114  1  0.57400679  0.45436328  0.74522072  1  -0.11464  0.000281  -0.088983  -0.138125  8.2e-05  3.982397  0.0
C  C115  1  0.94383947  0.51011396  0.75246875  1  -0.076255  0.001323  -0.084778  -0.082773  0.000551  3.976705  0.001
C  C116  1  0.93787386  0.48820940  0.69930968  1  0.011112  0.000352  -0.089784  -0.136469  9.9e-05  3.970644  0.0
C  C117  1  0.76289322  0.50598427  0.80132050  1  -0.032842  0.008671  -0.024504  -0.049356  0.005073  3.981656  0.007
C  C118  1  0.57899332  0.47699380  0.79773831  1  -0.020633  0.00125  -0.084825  -0.086137  0.000672  3.988425  0.001
C  C119  1  0.43479337  0.52345691  0.47398123  1  -0.035185  -6e-06  0.00061  0.00515  -1.9e-05  3.935673  0.0
C  C120  1  0.37357432  0.60005269  0.53675239  1  -0.101034  0.000103  -0.091819  -0.128861  6.2e-05  4.017378  0.0
C  C121  1  0.82378806  0.19459097  0.56480176  1  -0.035023  0.002517  -0.083866  -0.085757  0.001319  3.987144  0.001
C  C122  1  0.49816874  0.55522447  0.58647179  1  -0.030965  7.2e-05  -0.093632  -0.130237  3.9e-05  4.024497  0.0
C  C123  1  0.76362763  0.53226448  0.85654650  1  1.555105  0.003136  0.217814  0.598823  0.001673  4.163777  0.002
C  C124  1  0.59784332  0.49203467  0.58314344  1  0.000115  0.00014  -0.009273  0.02252  7.6e-05  4.008821  0.0
C  C125  1  0.74727244  0.25194371  0.57948834  1  -0.052822  -5.8e-05  -0.091979  -0.141754  -0.00024  3.990521  0.0
C  C126  1  0.75125885  0.46106659  0.69454953  1  -0.038449  0.00069  -0.000245  0.084734  0.000355  3.997173  0.0
C  C127  1  0.12383994  0.12787843  0.51787809  1  1.542423  0.00117  0.220507  0.596389  -7.9e-05  4.149501  0.0
C  C128  1  0.33796363  0.58609028  0.47878522  1  -0.052734  0.0002  -0.008131  0.024158  0.000107  4.003847  0.0
C  C129  1  0.18385831  0.23501534  0.53011481  1  -0.029746  0.002694  -0.082093  -0.08332  0.001481  3.964611  0.002
C  C130  1  0.82595537  0.38477719  0.62775705  1  -0.053982  0.000198  -0.090112  -0.184133  0.000113  3.990263  0.0
C  C131  1  0.04222476  0.18619874  0.53911803  1  -0.016746  0.009425  -0.021108  -0.045542  0.005696  3.982133  0.007
C  C132  1  0.10599908  0.29297150  0.54383669  1  -0.035658  7.2e-05  -0.092669  -0.140363  -0.000132  3.981604  0.0
C  C133  1  0.88585753  0.30255245  0.56760486  1  -0.036434  0.002341  -0.003344  0.078186  0.001267  4.006733  0.001
C  C134  1  0.72861267  0.44514513  0.63412786  1  -0.026058  5.3e-05  -0.005352  0.027012  1.7e-05  3.98765  0.0
C  C135  1  0.79205886  0.36804241  0.57303992  1  0.021114  3.5e-05  -0.004711  0.030479  -1.6e-05  3.984757  0.0
C  C136  1  0.77123713  0.04566469  0.75452794  1  -0.001898  0.000279  -0.089206  -0.137884  9.2e-05  3.982575  0.0
C  C137  1  0.20441629  0.99028610  0.74743598  1  -0.055598  0.001301  -0.083974  -0.081168  0.000532  3.976309  0.001
C  C138  1  0.12308050  0.01226643  0.80049076  1  -0.070413  0.000341  -0.090348  -0.137766  8.5e-05  3.97069  0.0
C  C139  1  0.06833090  0.99425091  0.69857168  1  -0.016116  0.008612  -0.024747  -0.050749  0.005059  3.984056  0.007
C  C140  1  0.85172645  0.02301456  0.70207063  1  -0.086505  0.001325  -0.084137  -0.084651  0.000706  3.987905  0.001
C  C141  1  0.43278958  0.97645685  0.02611748  1  -0.029117  -6e-06  0.000886  0.005542  -1.8e-05  3.93581  0.0
C  C142  1  0.50933216  0.89998502  0.96319601  1  -0.162539  9.3e-05  -0.091878  -0.128968  5.5e-05  4.017716  0.0
C  C143  1  0.58172133  0.30563807  0.93500901  1  -0.051412  0.002502  -0.084717  -0.087632  0.001309  3.987073  0.001
C  C144  1  0.63775911  0.94501062  0.91325946  1  -0.023085  7.5e-05  -0.093915  -0.1318  4.3e-05  4.025331  0.0
C  C145  1  0.15100493  0.96799270  0.64338120  1  1.539047  0.003142  0.218356  0.59893  0.001692  4.164182  0.002
C  C146  1  0.67113278  0.00820215  0.91658500  1  0.020242  0.000143  -0.008729  0.023832  7.8e-05  4.008322  0.0
C  C147  1  0.57690465  0.24827525  0.92036358  1  -0.034097  -8.5e-05  -0.090458  -0.138591  -0.000268  3.987112  0.0
C  C148  1  0.90441477  0.03928890  0.80512118  1  0.010587  0.00069  -0.000335  0.084479  0.000362  3.997193  0.0
C  C149  1  0.76872758  0.37237178  0.98178652  1  1.538289  0.00117  0.221685  0.597424  -7.6e-05  4.14803  0.0
C  C150  1  0.40331599  0.91377715  0.02136928  1  0.002569  0.000192  -0.008217  0.024327  0.000103  4.003953  0.0
C  C151  1  0.94791564  0.26537240  0.96935392  1  -0.014296  0.00273  -0.081894  -0.083049  0.001514  3.964921  0.002
C  C152  1  0.83569658  0.11567837  0.87169265  1  0.006337  0.000198  -0.090753  -0.183889  0.000115  3.992369  0.0
C  C153  1  0.76648335  0.31410968  0.96049691  1  -0.050708  0.00944  -0.021664  -0.045222  0.005683  3.982152  0.007
C  C154  1  0.94148723  0.20740594  0.95565343  1  -0.078653  8.2e-05  -0.092752  -0.141696  -0.000128  3.983299  0.0
C  C155  1  0.75442937  0.19779153  0.93200628  1  0.036778  0.002362  -0.004199  0.0778  0.001284  4.007163  0.001
C  C156  1  0.80530410  0.05521429  0.86547457  1  -0.039542  4.1e-05  -0.004918  0.027412  1.1e-05  3.989478  0.0
C  C157  1  0.73156677  0.13227570  0.92658723  1  -0.050104  4e-05  -0.00492  0.029012  -1.6e-05  3.987449  0.0
O  O158  1  0.27278545  0.13200349  0.36316127  1  -1.214705  0.052201  -0.572335  -0.734602  0.028458  2.020289  0.044
O  O159  1  0.32166450  0.98943808  0.47855469  1  -1.13383  0.218557  -0.554879  -0.860929  0.121896  2.418528  0.199
O  O160  1  0.41939308  0.46093762  0.10894987  1  -1.195536  0.047228  -0.317206  -0.605859  0.025049  2.422942  0.041
O  O161  1  0.67895860  0.15988926  0.41550604  1  -1.229995  0.0505  -0.567903  -0.735815  0.027406  2.055791  0.043
O  O162  1  0.05497393  0.45336515  0.13410518  1  -1.155488  0.067242  -0.312221  -0.574495  0.036446  2.361511  0.062
O  O163  1  0.67186005  0.88874377  0.48520039  1  -1.144608  0.063354  -0.306755  -0.531427  0.034238  2.332252  0.058
O  O164  1  0.01860518  0.90060595  0.49723656  1  -1.173276  0.062514  -0.306053  -0.579469  0.0339  2.379954  0.057
O  O165  1  0.76687293  0.36780673  0.13649659  1  -1.222707  0.052377  -0.572409  -0.734718  0.028578  2.019461  0.044
O  O166  1  0.78949761  0.51050029  0.02152602  1  -1.139476  0.218572  -0.555288  -0.862439  0.121984  2.418331  0.199
O  O167  1  0.99033077  0.03907545  0.39113676  1  -1.196977  0.047178  -0.31812  -0.606977  0.024997  2.426294  0.041
O  O168  1  0.25328028  0.33997506  0.08410831  1  -1.228097  0.050524  -0.566848  -0.73552  0.027407  2.05387  0.043
O  O169  1  0.64380642  0.04609496  0.36600102  1  -1.144911  0.067423  -0.31183  -0.573862  0.036469  2.360918  0.062
O  O170  1  0.04660247  0.61091501  0.01527969  1  -1.142637  0.06325  -0.306663  -0.531611  0.034122  2.332483  0.058
O  O171  1  0.41715905  0.59924415  0.00294068  1  -1.165635  0.062638  -0.306988  -0.579962  0.033951  2.380845  0.057
O  O172  1  0.72722460  0.86798826  0.63684322  1  -1.214878  0.052193  -0.572265  -0.734326  0.028453  2.020294  0.044
O  O173  1  0.67837101  0.01055536  0.52144575  1  -1.133742  0.218555  -0.554847  -0.861004  0.121895  2.418482  0.199
O  O174  1  0.58058010  0.53907231  0.89105109  1  -1.19592  0.047228  -0.317306  -0.60614  0.025047  2.423032  0.041
O  O175  1  0.32105777  0.84010303  0.58449751  1  -1.230136  0.050503  -0.567878  -0.73582  0.027408  2.055705  0.043
O  O176  1  0.94502322  0.54663610  0.86588893  1  -1.155413  0.06726  -0.312193  -0.574594  0.036455  2.36123  0.062
O  O177  1  0.32814043  0.11125229  0.51479779  1  -1.144409  0.063348  -0.30668  -0.531308  0.03423  2.332344  0.058
O  O178  1  0.98141341  0.09938449  0.50276380  1  -1.173668  0.062516  -0.305999  -0.579452  0.033905  2.380185  0.057
O  O179  1  0.23311220  0.63219644  0.86349923  1  -1.222817  0.052369  -0.572396  -0.734821  0.028574  2.019293  0.044
O  O180  1  0.21048038  0.48950483  0.97847081  1  -1.139539  0.218573  -0.55524  -0.86249  0.121985  2.418418  0.199
O  O181  1  0.00970177  0.96092211  0.60886139  1  -1.196609  0.047167  -0.318158  -0.606866  0.02499  2.426345  0.041
O  O182  1  0.74669541  0.66002215  0.91588676  1  -1.22822  0.050525  -0.567018  -0.735721  0.027409  2.053659  0.043
O  O183  1  0.35619743  0.95390570  0.63399490  1  -1.144949  0.067424  -0.311891  -0.573906  0.03647  2.36088  0.062
O  O184  1  0.95338242  0.38909886  0.98471230  1  -1.14251  0.063237  -0.306588  -0.531498  0.034114  2.332692  0.058
O  O185  1  0.58281411  0.40075084  0.99705858  1  -1.165295  0.062645  -0.306958  -0.579996  0.033955  2.380738  0.057
