# generated using pymatgen
data_CdFeP2H28C26Br2O3
_symmetry_space_group_name_H-M   'P 1'
_cell_length_a   11.16810273
_cell_length_b   11.35041953
_cell_length_c   13.08103429
_cell_angle_alpha   70.43085457
_cell_angle_beta   78.87589325
_cell_angle_gamma   61.10173181
_symmetry_Int_Tables_number   1
_chemical_formula_structural   CdFeP2H28C26Br2O3
_chemical_formula_sum   'Cd2 Fe2 P4 H56 C52 Br4 O6'
_cell_volume   1366.88350989
_cell_formula_units_Z   2
loop_
 _symmetry_equiv_pos_site_id
 _symmetry_equiv_pos_as_xyz
  1  'x, y, z'
loop_
 _atom_site_type_symbol
 _atom_site_label
 _atom_site_symmetry_multiplicity
 _atom_site_fract_x
 _atom_site_fract_y
 _atom_site_fract_z
 _atom_site_occupancy
 _atom_site_hle17_bader_spin_density
 _atom_site_hle17_ddec_charge
 _atom_site_hle17_ddec_spin_density
 _atom_site_hle17_ddec_sum_bond_order
 _atom_site_hle17_magmom
 _atom_site_hse06_10hf_bader_spin_density
 _atom_site_hse06_10hf_ddec_charge
 _atom_site_hse06_10hf_ddec_spin_density
 _atom_site_hse06_10hf_ddec_sum_bond_order
 _atom_site_hse06_10hf_magmom
 _atom_site_hse06_bader_spin_density
 _atom_site_hse06_ddec_charge
 _atom_site_hse06_ddec_spin_density
 _atom_site_hse06_ddec_sum_bond_order
 _atom_site_hse06_magmom
 _atom_site_pbe_bader_spin_density
 _atom_site_pbe_cm5_charge
 _atom_site_pbe_ddec_charge
 _atom_site_pbe_ddec_spin_density
 _atom_site_pbe_ddec_sum_bond_order
 _atom_site_pbe_magmom
Cd  Cd0  1  0.47858324  0.48907869  0.85388675  1  0  0.77068  0  2.054705  0  0  0.61312  0  2.530528  0  0  0.653802  0  2.493208  0  0  0.503151  0.586212  0  2.554335  0
Cd  Cd1  1  0.52141647  0.51092089  0.14611218  1  0  0.770662  0  2.054749  0  0  0.613104  0  2.5306  0  0  0.653791  0  2.493277  0  0  0.503157  0.586195  0  2.554406  0
Fe  Fe2  1  0.20491866  0.63397984  0.55607293  1  0  0.115873  0  3.601772  0  0  0.22246  0  4.006225  0  0  0.22782  0  3.993078  0  0  0.53677  0.225741  0  4.008861  0
Fe  Fe3  1  0.79508152  0.36601659  0.44392759  1  0  0.115719  0  3.601924  0  0  0.22253  0  4.006409  0  0  0.227843  0  3.993229  0  0  0.536804  0.225717  0  4.009049  0
P  P4  1  0.26279185  0.46109169  0.36533551  1  0  1.381482  0  4.704978  0  0  1.220392  0  5.200009  0  0  1.274412  0  5.159104  0  0  0.401708  1.183225  0  5.227361  0
P  P5  1  0.73720422  0.53890789  0.63466708  1  0  1.381506  0  4.704797  0  0  1.220408  0  5.199827  0  0  1.274428  0  5.15894  0  0  0.40179  1.183241  0  5.227174  0
P  P6  1  0.72927181  0.28039611  0.23929991  1  0  0.316264  0  3.576671  0  0  0.286969  0  3.982027  0  0  0.293551  0  3.986415  0  0  0.045683  0.280665  0  3.979833  0
P  P7  1  0.27072788  0.71960557  0.76069765  1  0  0.316261  0  3.576672  0  0  0.28697  0  3.982051  0  0  0.293554  0  3.986442  0  0  0.045679  0.280663  0  3.97986  0
H  H8  1  0.98596130  0.63162217  0.48364351  1  0  0.125426  0  0.936225  0  0  0.142444  0  0.986895  0  0  0.145473  0  0.985729  0  0  0.114453  0.140299  0  0.988002  0
H  H9  1  0.01403889  0.36837845  0.51636116  1  0  0.125436  0  0.93616  0  0  0.142436  0  0.986864  0  0  0.145482  0  0.985675  0  0  0.114464  0.14029  0  0.987972  0
H  H10  1  0.99153089  0.60014604  0.69722739  1  0  0.118682  0  0.949382  0  0  0.133269  0  1.005047  0  0  0.13604  0  1.004132  0  0  0.110589  0.131308  0  1.005773  0
H  H11  1  0.00847203  0.39985248  0.30277514  1  0  0.118683  0  0.949367  0  0  0.133253  0  1.005047  0  0  0.136021  0  1.004133  0  0  0.11059  0.131291  0  1.005773  0
H  H12  1  0.25507835  0.42677957  0.75936577  1  0  0.09918  0  0.983784  0  0  0.108941  0  1.051557  0  0  0.112045  0  1.049688  0  0  0.095286  0.106887  0  1.052651  0
H  H13  1  0.74492046  0.57321791  0.24063315  1  0  0.099181  0  0.983778  0  0  0.108958  0  1.05154  0  0  0.112061  0  1.049671  0  0  0.095297  0.1069  0  1.052637  0
H  H14  1  0.40929120  0.35395179  0.58744125  1  0  0.121583  0  0.945314  0  0  0.139689  0  0.996526  0  0  0.142205  0  0.995885  0  0  0.113648  0.137926  0  0.997066  0
H  H15  1  0.59070763  0.64604360  0.41255981  1  0  0.121562  0  0.945306  0  0  0.139649  0  0.99655  0  0  0.142166  0  0.99591  0  0  0.113642  0.137886  0  0.997088  0
H  H16  1  0.45810393  0.62608154  0.56056680  1  0  0.134551  0  0.980748  0  0  0.148838  0  1.03341  0  0  0.151975  0  1.032143  0  0  0.109823  0.146473  0  1.034641  0
H  H17  1  0.54189851  0.37392013  0.43943337  1  0  0.13456  0  0.980737  0  0  0.148854  0  1.033403  0  0  0.15199  0  1.032134  0  0  0.109824  0.14649  0  1.034632  0
H  H18  1  0.34172586  0.72460878  0.36440103  1  0  0.118298  0  0.969779  0  0  0.128488  0  1.033579  0  0  0.131885  0  1.031914  0  0  0.098978  0.125994  0  1.034691  0
H  H19  1  0.65827661  0.27538870  0.63559881  1  0  0.118288  0  0.969769  0  0  0.128463  0  1.033585  0  0  0.131857  0  1.031927  0  0  0.09895  0.125968  0  1.034695  0
H  H20  1  0.06981735  0.88387665  0.39317273  1  0  0.104389  0  0.965213  0  0  0.118449  0  1.024221  0  0  0.121382  0  1.022741  0  0  0.104167  0.11634  0  1.025418  0
H  H21  1  0.93018511  0.11612083  0.60682558  1  0  0.1044  0  0.965251  0  0  0.118446  0  1.024286  0  0  0.121373  0  1.022805  0  0  0.104161  0.116338  0  1.02548  0
H  H22  1  0.01822381  0.88412062  0.60408915  1  0  0.113713  0  0.968041  0  0  0.12864  0  1.025382  0  0  0.131195  0  1.025119  0  0  0.106819  0.126843  0  1.025646  0
H  H23  1  0.98177589  0.11588106  0.39590917  1  0  0.113696  0  0.968074  0  0  0.128652  0  1.025385  0  0  0.131206  0  1.025122  0  0  0.106818  0.126855  0  1.025647  0
H  H24  1  0.64495808  0.22439093  0.07084587  1  0  0.076475  0  0.992522  0  0  0.082036  0  1.067632  0  0  0.084638  0  1.066345  0  0  0.084901  0.079982  0  1.068864  0
H  H25  1  0.35503707  0.77560866  0.92915459  1  0  0.076511  0  0.992554  0  0  0.082094  0  1.067637  0  0  0.084698  0  1.066345  0  0  0.084924  0.080038  0  1.068871  0
H  H26  1  0.59532361  0.03557279  0.06976370  1  0  0.089178  0  0.964428  0  0  0.096283  0  1.030605  0  0  0.099459  0  1.029076  0  0  0.091874  0.094003  0  1.031566  0
H  H27  1  0.40467109  0.96442784  0.93023882  1  0  0.089229  0  0.964391  0  0  0.096314  0  1.030587  0  0  0.099499  0  1.029051  0  0  0.091898  0.094034  0  1.031547  0
H  H28  1  0.62111269  0.83882017  0.23673735  1  0  0.085838  0  0.990809  0  0  0.094652  0  1.057008  0  0  0.097219  0  1.055899  0  0  0.087555  0.09283  0  1.057768  0
H  H29  1  0.37888475  0.16117836  0.76326532  1  0  0.085778  0  0.990884  0  0  0.094632  0  1.057045  0  0  0.097198  0  1.055935  0  0  0.087554  0.09281  0  1.057804  0
H  H30  1  0.69973095  0.83144426  0.40652403  1  0  0.095084  0  0.964672  0  0  0.104713  0  1.025225  0  0  0.107868  0  1.024029  0  0  0.098134  0.10238  0  1.026362  0
H  H31  1  0.30027334  0.16855322  0.59347704  1  0  0.095099  0  0.964751  0  0  0.104727  0  1.025296  0  0  0.10788  0  1.024103  0  0  0.098154  0.102396  0  1.026434  0
H  H32  1  0.74774453  0.02249104  0.40835304  1  0  0.090065  0  0.975925  0  0  0.103985  0  1.03333  0  0  0.106241  0  1.03359  0  0  0.098345  0.102362  0  1.033319  0
H  H33  1  0.25226066  0.97750854  0.59164650  1  0  0.090051  0  0.975954  0  0  0.103987  0  1.033343  0  0  0.106243  0  1.033605  0  0  0.098339  0.102364  0  1.033334  0
H  H34  1  0.86336867  0.45856374  0.12694770  1  0  0.08401  0  0.966106  0  0  0.097777  0  1.027099  0  0  0.099966  0  1.02607  0  0  0.099335  0.096406  0  1.027551  0
H  H35  1  0.13663012  0.54143585  0.87305138  1  0  0.084026  0  0.966088  0  0  0.09781  0  1.027059  0  0  0.1  0  1.026031  0  0  0.099345  0.096436  0  1.027514  0
H  H36  1  0.10142463  0.40491901  0.05606946  1  0  0.09018  0  0.966084  0  0  0.099938  0  1.029498  0  0  0.10256  0  1.028688  0  0  0.097268  0.097952  0  1.030246  0
H  H37  1  0.89857507  0.59508476  0.94393055  1  0  0.090176  0  0.966122  0  0  0.099943  0  1.029521  0  0  0.102564  0  1.028712  0  0  0.097262  0.097958  0  1.030269  0
H  H38  1  0.27021472  0.16057823  0.05697426  1  0  0.091655  0  0.941421  0  0  0.101689  0  1.000602  0  0  0.104821  0  0.99892  0  0  0.103081  0.099379  0  1.001792  0
H  H39  1  0.72978728  0.83942448  0.94302873  1  0  0.091639  0  0.941386  0  0  0.101654  0  1.000593  0  0  0.104786  0  0.998912  0  0  0.103082  0.099344  0  1.001784  0
H  H40  1  0.20156389  0.96873434  0.13126398  1  0  0.088715  0  0.984311  0  0  0.096714  0  1.050238  0  0  0.099772  0  1.048881  0  0  0.088364  0.095225  0  1.050184  0
H  H41  1  0.79843902  0.03126628  0.86873717  1  0  0.088728  0  0.984293  0  0  0.096725  0  1.050224  0  0  0.099782  0  1.048867  0  0  0.088373  0.095233  0  1.050172  0
H  H42  1  0.96379379  0.02156641  0.20630313  1  0  0.080361  0  0.984837  0  0  0.091398  0  1.049689  0  0  0.09342  0  1.049785  0  0  0.097759  0.090025  0  1.04959  0
H  H43  1  0.03620819  0.97843213  0.79369266  1  0  0.080337  0  0.984903  0  0  0.09138  0  1.049756  0  0  0.093391  0  1.049861  0  0  0.097751  0.090009  0  1.049657  0
H  H44  1  0.41873909  0.21549416  0.28209906  1  0  0.049344  0  0.952899  0  0  0.062125  0  1.020052  0  0  0.06123  0  1.022293  0  0  0.096403  0.062714  0  1.018539  0
H  H45  1  0.58125604  0.78450961  0.71790324  1  0  0.049295  0  0.952874  0  0  0.062069  0  1.020049  0  0  0.061169  0  1.022291  0  0  0.096374  0.062658  0  1.018534  0
H  H46  1  0.24906788  0.30248608  0.23587456  1  0  0.045831  0  0.951263  0  0  0.056478  0  1.023543  0  0  0.056918  0  1.022598  0  0  0.093149  0.055964  0  1.024407  0
H  H47  1  0.75093046  0.69751454  0.76412659  1  0  0.045867  0  0.951279  0  0  0.05652  0  1.023541  0  0  0.05696  0  1.022586  0  0  0.093176  0.056005  0  1.024404  0
H  H48  1  0.36631981  0.03432996  0.42668512  1  0  0.106085  0  0.946494  0  0  0.12709  0  1.006261  0  0  0.128284  0  1.006796  0  0  0.090067  0.126259  0  1.005837  0
H  H49  1  0.63367715  0.96567172  0.57331366  1  0  0.106085  0  0.946399  0  0  0.127088  0  1.006177  0  0  0.128278  0  1.006717  0  0  0.090075  0.126242  0  1.005767  0
H  H50  1  0.32920921  0.04322082  0.29747852  1  0  0.111207  0  0.948894  0  0  0.131362  0  1.011626  0  0  0.131535  0  1.013962  0  0  0.092339  0.1314  0  1.009296  0
H  H51  1  0.67078730  0.95678190  0.70252309  1  0  0.111249  0  0.9489  0  0  0.131419  0  1.011593  0  0  0.131593  0  1.013928  0  0  0.092357  0.131449  0  1.009264  0
H  H52  1  0.19318435  0.12415084  0.38548488  1  0  0.103977  0  0.945206  0  0  0.12764  0  1.002229  0  0  0.128633  0  1.002932  0  0  0.089309  0.126841  0  1.001791  0
H  H53  1  0.80681581  0.87584978  0.61451520  1  0  0.103978  0  0.945204  0  0  0.127627  0  1.002243  0  0  0.128621  0  1.002946  0  0  0.089307  0.126824  0  1.001805  0
H  H54  1  0.20631516  0.71053698  0.19736336  1  0  0.040943  0  0.958218  0  0  0.050456  0  1.032976  0  0  0.050986  0  1.031937  0  0  0.090988  0.049755  0  1.034094  0
H  H55  1  0.79368638  0.28946051  0.80263435  1  0  0.040934  0  0.958268  0  0  0.050445  0  1.033011  0  0  0.050972  0  1.031976  0  0  0.091001  0.049743  0  1.034124  0
H  H56  1  0.06513787  0.77066073  0.29007988  1  0  0.035547  0  0.940833  0  0  0.050927  0  1.006146  0  0  0.050808  0  1.005992  0  0  0.096685  0.050934  0  1.006297  0
H  H57  1  0.93486365  0.22934094  0.70991661  1  0  0.035526  0  0.940856  0  0  0.050922  0  1.006147  0  0  0.050804  0  1.005991  0  0  0.096653  0.050922  0  1.006305  0
H  H58  1  0.05640636  0.70112844  0.08419271  1  0  0.108099  0  0.974803  0  0  0.12457  0  1.042685  0  0  0.125692  0  1.043904  0  0  0.078042  0.123601  0  1.042003  0
H  H59  1  0.94359701  0.29886905  0.91580469  1  0  0.108067  0  0.974841  0  0  0.124591  0  1.042654  0  0  0.125713  0  1.043873  0  0  0.078054  0.123623  0  1.041972  0
H  H60  1  0.98240676  0.87220110  0.10071688  1  0  0.105506  0  0.945836  0  0  0.127388  0  1.00541  0  0  0.127689  0  1.007109  0  0  0.089877  0.127102  0  1.004322  0
H  H61  1  0.01759478  0.12779849  0.89928098  1  0  0.105515  0  0.945828  0  0  0.127383  0  1.00543  0  0  0.127683  0  1.007131  0  0  0.089877  0.127094  0  1.004346  0
H  H62  1  0.91538169  0.75436727  0.17875588  1  0  0.109161  0  0.954462  0  0  0.130084  0  1.013388  0  0  0.130883  0  1.015074  0  0  0.086794  0.1294  0  1.012398  0
H  H63  1  0.08461892  0.24563231  0.82124137  1  0  0.109119  0  0.954482  0  0  0.130037  0  1.013417  0  0  0.130835  0  1.015105  0  0  0.086776  0.129363  0  1.01242  0
C  C64  1  0.21265749  0.48732959  0.49616643  1  0  -0.305592  0  3.815085  0  0  -0.277938  0  4.088947  0  0  -0.290435  0  4.106073  0  0  -0.090634  -0.270436  0  4.077969  0
C  C65  1  0.78734083  0.51267105  0.50383013  1  0  -0.305559  0  3.815204  0  0  -0.277925  0  4.089077  0  0  -0.290425  0  4.106215  0  0  -0.090672  -0.270405  0  4.078054  0
C  C66  1  0.07516254  0.56834863  0.53332927  1  0  -0.084908  0  3.703719  0  0  -0.127248  0  3.98503  0  0  -0.126931  0  3.999123  0  0  -0.144718  -0.128038  0  3.976169  0
C  C67  1  0.92483626  0.43165304  0.46667149  1  0  -0.084889  0  3.703702  0  0  -0.127237  0  3.985044  0  0  -0.126928  0  3.999126  0  0  -0.144718  -0.128017  0  3.976161  0
C  C68  1  0.07825309  0.55094080  0.64618251  1  0  -0.081518  0  3.686411  0  0  -0.114107  0  3.96501  0  0  -0.115924  0  3.97991  0  0  -0.145052  -0.113393  0  3.955484  0
C  C69  1  0.92174433  0.44905983  0.35381803  1  0  -0.081531  0  3.686541  0  0  -0.114131  0  3.965188  0  0  -0.115944  0  3.980086  0  0  -0.145053  -0.11341  0  3.955648  0
C  C70  1  0.21616273  0.46021261  0.67935129  1  0  -0.100646  0  3.718566  0  0  -0.127816  0  3.992561  0  0  -0.132188  0  4.010652  0  0  -0.145562  -0.126046  0  3.981265  0
C  C71  1  0.78383744  0.53978802  0.32064879  1  0  -0.100636  0  3.718655  0  0  -0.127832  0  3.992659  0  0  -0.132198  0  4.010743  0  0  -0.14556  -0.126049  0  3.981345  0
C  C72  1  0.29981787  0.42139056  0.58754089  1  0  -0.086105  0  3.700554  0  0  -0.123868  0  3.970755  0  0  -0.124585  0  3.987334  0  0  -0.141634  -0.123807  0  3.960165  0
C  C73  1  0.70018140  0.57860588  0.41245826  1  0  -0.086031  0  3.700517  0  0  -0.123808  0  3.970759  0  0  -0.124523  0  3.987336  0  0  -0.141627  -0.123734  0  3.960144  0
C  C74  1  0.75425681  0.25096688  0.37926554  1  0  -0.126157  0  3.757268  0  0  -0.106717  0  4.029884  0  0  -0.112859  0  4.05006  0  0  -0.090507  -0.103114  0  4.017149  0
C  C75  1  0.24574425  0.74903793  0.62073470  1  0  -0.126193  0  3.757195  0  0  -0.106734  0  4.029789  0  0  -0.112879  0  4.049973  0  0  -0.090475  -0.103144  0  4.017071  0
C  C76  1  0.35162926  0.69635739  0.54159308  1  0  -0.119967  0  3.667704  0  0  -0.152584  0  3.933193  0  0  -0.154981  0  3.949695  0  0  -0.149747  -0.151578  0  3.922639  0
C  C77  1  0.64837136  0.30364428  0.45840662  1  0  -0.119927  0  3.667689  0  0  -0.152581  0  3.933208  0  0  -0.154964  0  3.949696  0  0  -0.149751  -0.151564  0  3.922636  0
C  C78  1  0.28960727  0.74835220  0.43963031  1  0  -0.090578  0  3.693805  0  0  -0.117103  0  3.9616  0  0  -0.120919  0  3.979573  0  0  -0.144824  -0.114752  0  3.948829  0
C  C79  1  0.71039473  0.25164633  0.56036854  1  0  -0.090587  0  3.693815  0  0  -0.117118  0  3.961639  0  0  -0.12093  0  3.979604  0  0  -0.144821  -0.114753  0  3.948848  0
C  C80  1  0.14567147  0.83221746  0.45478992  1  0  -0.108549  0  3.728314  0  0  -0.135394  0  4.000408  0  0  -0.138742  0  4.017667  0  0  -0.150843  -0.133594  0  3.988519  0
C  C81  1  0.85433235  0.16778108  0.54520710  1  0  -0.108548  0  3.728399  0  0  -0.135411  0  4.00053  0  0  -0.138745  0  4.017775  0  0  -0.150835  -0.133597  0  3.988622  0
C  C82  1  0.11769872  0.83279190  0.56613424  1  0  -0.129008  0  3.717382  0  0  -0.164471  0  3.990805  0  0  -0.16622  0  4.007295  0  0  -0.153225  -0.163749  0  3.979821  0
C  C83  1  0.88230234  0.16721083  0.43386279  1  0  -0.128998  0  3.717465  0  0  -0.164517  0  3.990934  0  0  -0.16626  0  4.007411  0  0  -0.153184  -0.163784  0  3.979935  0
C  C84  1  0.70047102  0.13541201  0.24004138  1  0  -0.103733  0  3.780699  0  0  -0.068187  0  4.018504  0  0  -0.073212  0  4.044243  0  0  -0.030562  -0.06469  0  4.001323  0
C  C85  1  0.29952776  0.86458967  0.75995634  1  0  -0.103816  0  3.780842  0  0  -0.068297  0  4.01871  0  0  -0.073329  0  4.044458  0  0  -0.03064  -0.0648  0  4.001527  0
C  C86  1  0.65775496  0.13828762  0.14457975  1  0  -0.078697  0  3.759077  0  0  -0.095076  0  3.999688  0  0  -0.096451  0  4.022238  0  0  -0.088004  -0.094046  0  3.984283  0
C  C87  1  0.34224248  0.86170882  0.85541894  1  0  -0.078735  0  3.759202  0  0  -0.095101  0  3.999764  0  0  -0.096477  0  4.022323  0  0  -0.088002  -0.094069  0  3.984357  0
C  C88  1  0.62984767  0.03131780  0.14403243  1  0  -0.066644  0  3.753365  0  0  -0.075942  0  3.993723  0  0  -0.07927  0  4.015859  0  0  -0.089077  -0.073411  0  3.978499  0
C  C89  1  0.37014700  0.96868493  0.85596719  1  0  -0.066687  0  3.753462  0  0  -0.075966  0  3.993835  0  0  -0.079304  0  4.015966  0  0  -0.089069  -0.073438  0  3.978614  0
C  C90  1  0.64446034  0.92108617  0.23807194  1  0  -0.060909  0  3.752204  0  0  -0.071718  0  3.989795  0  0  -0.072138  0  4.010748  0  0  -0.086987  -0.071544  0  3.97592  0
C  C91  1  0.35553664  0.07891341  0.76193127  1  0  -0.060814  0  3.752574  0  0  -0.071669  0  3.99017  0  0  -0.072087  0  4.011124  0  0  -0.086984  -0.071494  0  3.976293  0
C  C92  1  0.68769336  0.91736688  0.33295455  1  0  -0.069877  0  3.749824  0  0  -0.077064  0  3.990604  0  0  -0.0799  0  4.011462  0  0  -0.089912  -0.075522  0  3.97728  0
C  C93  1  0.31230769  0.08264003  0.66704661  1  0  -0.069912  0  3.749757  0  0  -0.077095  0  3.990552  0  0  -0.079931  0  4.011406  0  0  -0.089942  -0.075558  0  3.977233  0
C  C94  1  0.71536710  0.02440983  0.33416683  1  0  -0.085418  0  3.752296  0  0  -0.104205  0  3.991856  0  0  -0.10504  0  4.013084  0  0  -0.09106  -0.103988  0  3.978103  0
C  C95  1  0.28463444  0.97558975  0.66583332  1  0  -0.085336  0  3.752066  0  0  -0.104124  0  3.991608  0  0  -0.104957  0  4.012835  0  0  -0.091024  -0.10391  0  3.977859  0
C  C96  1  0.89901446  0.24271993  0.17466556  1  0  -0.087383  0  3.750492  0  0  -0.050437  0  3.985935  0  0  -0.055662  0  4.012366  0  0  -0.022756  -0.046993  0  3.968235  0
C  C97  1  0.10098661  0.75728070  0.82533207  1  0  -0.087363  0  3.750532  0  0  -0.050433  0  3.985993  0  0  -0.055661  0  4.012426  0  0  -0.02269  -0.046985  0  3.96829  0
C  C98  1  0.93773235  0.35075122  0.12979441  1  0  -0.072706  0  3.757166  0  0  -0.094548  0  4.003781  0  0  -0.095183  0  4.025277  0  0  -0.08504  -0.093989  0  3.989024  0
C  C99  1  0.06226918  0.64924836  0.87020498  1  0  -0.072734  0  3.757024  0  0  -0.094584  0  4.003638  0  0  -0.095225  0  4.025143  0  0  -0.085079  -0.094025  0  3.988882  0
C  C100  1  0.07113896  0.32085434  0.08865391  1  0  -0.077429  0  3.755375  0  0  -0.085788  0  3.998165  0  0  -0.088668  0  4.019565  0  0  -0.088775  -0.083929  0  3.983668  0
C  C101  1  0.92885982  0.67914943  0.91134625  1  0  -0.07745  0  3.755381  0  0  -0.085818  0  3.998161  0  0  -0.088698  0  4.019561  0  0  -0.088758  -0.083958  0  3.983665  0
C  C102  1  0.16615188  0.18335807  0.08949438  1  0  -0.050133  0  3.741356  0  0  -0.060337  0  3.979328  0  0  -0.060942  0  4.000035  0  0  -0.07972  -0.059514  0  3.965188  0
C  C103  1  0.83385057  0.81664359  0.91050731  1  0  -0.050119  0  3.741372  0  0  -0.0603  0  3.979341  0  0  -0.060905  0  4.00005  0  0  -0.079765  -0.059477  0  3.9652  0
C  C104  1  0.12721843  0.07583331  0.13115070  1  0  -0.068321  0  3.758331  0  0  -0.075839  0  3.995991  0  0  -0.078994  0  4.018062  0  0  -0.088401  -0.074111  0  3.980683  0
C  C105  1  0.87278401  0.92416836  0.86884946  1  0  -0.068303  0  3.7583  0  0  -0.075825  0  3.99595  0  0  -0.078981  0  4.018021  0  0  -0.088377  -0.07409  0  3.980641  0
C  C106  1  0.99439475  0.10533619  0.17374790  1  0  -0.079741  0  3.749636  0  0  -0.097116  0  3.987109  0  0  -0.098157  0  4.009204  0  0  -0.085839  -0.096409  0  3.972148  0
C  C107  1  0.00560861  0.89466339  0.82624889  1  0  -0.079704  0  3.749773  0  0  -0.097074  0  3.987233  0  0  -0.098106  0  4.009331  0  0  -0.085849  -0.096376  0  3.972276  0
C  C108  1  0.31251286  0.23564855  0.30698932  1  0  0.186051  0  3.576381  0  0  0.129359  0  3.846132  0  0  0.139209  0  3.85053  0  0  -0.063003  0.122664  0  3.843077  0
C  C109  1  0.68748367  0.76434997  0.69301503  1  0  0.186057  0  3.576329  0  0  0.129368  0  3.84606  0  0  0.139231  0  3.850444  0  0  -0.063021  0.122677  0  3.842999  0
C  C110  1  0.29937786  0.10163938  0.35765753  1  0  -0.317207  0  3.698498  0  0  -0.394606  0  3.945818  0  0  -0.39815  0  3.956411  0  0  -0.245672  -0.391755  0  3.937929  0
C  C111  1  0.70062003  0.89836020  0.64234476  1  0  -0.31726  0  3.698401  0  0  -0.39465  0  3.945715  0  0  -0.398196  0  3.956305  0  0  -0.245698  -0.391789  0  3.937834  0
C  C112  1  0.10870508  0.70910194  0.23100066  1  0  0.192043  0  3.588167  0  0  0.137079  0  3.853981  0  0  0.146803  0  3.858658  0  0  -0.062318  0.130486  0  3.850844  0
C  C113  1  0.89129692  0.29089659  0.76899820  1  0  0.191969  0  3.588327  0  0  0.137013  0  3.854151  0  0  0.146738  0  3.858833  0  0  -0.062344  0.130437  0  3.850991  0
C  C114  1  0.00987306  0.76159443  0.14360029  1  0  -0.322  0  3.699441  0  0  -0.397563  0  3.943176  0  0  -0.401021  0  3.95328  0  0  -0.252296  -0.394881  0  3.936201  0
C  C115  1  0.99012893  0.23840411  0.85639703  1  0  -0.32191  0  3.699535  0  0  -0.397501  0  3.943255  0  0  -0.400958  0  3.953358  0  0  -0.252275  -0.394824  0  3.936269  0
Br  Br116  1  0.53095992  0.24284004  0.84855495  1  0  -0.522336  0  0.917658  0  0  -0.457651  0  1.186942  0  0  -0.475026  0  1.165456  0  0  -0.274031  -0.445409  0  1.199726  0
Br  Br117  1  0.46903889  0.75715745  0.15144626  1  0  -0.522335  0  0.917704  0  0  -0.457644  0  1.18698  0  0  -0.475016  0  1.165494  0  0  -0.274034  -0.445401  0  1.199764  0
Br  Br118  1  0.33761563  0.48859828  0.05811598  1  0  -0.502094  0  1.138347  0  0  -0.436933  0  1.459932  0  0  -0.45789  0  1.439427  0  0  -0.235559  -0.421767  0  1.473337  0
Br  Br119  1  0.66238316  0.51140130  0.94188387  1  0  -0.502095  0  1.138332  0  0  -0.436947  0  1.459928  0  0  -0.457909  0  1.439422  0  0  -0.235566  -0.421789  0  1.473346  0
O  O120  1  0.39343141  0.46792445  0.31946670  1  0  -0.791433  0  2.008852  0  0  -0.710944  0  2.276487  0  0  -0.737948  0  2.257352  0  0  -0.358906  -0.691773  0  2.288872  0
O  O121  1  0.60656513  0.53207199  0.68053597  1  0  -0.791516  0  2.008808  0  0  -0.710988  0  2.276431  0  0  -0.737948  0  2.257211  0  0  -0.358943  -0.691815  0  2.288816  0
O  O122  1  0.26586595  0.31290369  0.38872917  1  0  -0.500132  0  2.226156  0  0  -0.409965  0  2.474855  0  0  -0.432224  0  2.466461  0  0  -0.209384  -0.394608  0  2.480406  0
O  O123  1  0.73412967  0.68709484  0.61127228  1  0  -0.500086  0  2.226144  0  0  -0.409928  0  2.474852  0  0  -0.432194  0  2.466454  0  0  -0.209372  -0.394576  0  2.480411  0
O  O124  1  0.13525750  0.56488676  0.29027785  1  0  -0.496224  0  2.252953  0  0  -0.404278  0  2.498999  0  0  -0.426764  0  2.492902  0  0  -0.207347  -0.388717  0  2.503034  0
O  O125  1  0.86474268  0.43511176  0.70972513  1  0  -0.496148  0  2.252937  0  0  -0.404231  0  2.499  0  0  -0.426723  0  2.492907  0  0  -0.20733  -0.388679  0  2.503032  0
