# generated using pymatgen
data_CuH10C12N3ClO
_symmetry_space_group_name_H-M   'P 1'
_cell_length_a   7.33228945
_cell_length_b   12.00888502
_cell_length_c   15.33120501
_cell_angle_alpha   90.00118562
_cell_angle_beta   89.99924304
_cell_angle_gamma   105.32454063
_symmetry_Int_Tables_number   1
_chemical_formula_structural   CuH10C12N3ClO
_chemical_formula_sum   'Cu4 H40 C48 N12 Cl4 O4'
_cell_volume   1301.95427811
_cell_formula_units_Z   4
loop_
 _symmetry_equiv_pos_site_id
 _symmetry_equiv_pos_as_xyz
  1  'x, y, z'
loop_
 _atom_site_type_symbol
 _atom_site_label
 _atom_site_symmetry_multiplicity
 _atom_site_fract_x
 _atom_site_fract_y
 _atom_site_fract_z
 _atom_site_occupancy
 _atom_site_hle17_ddec_charge
 _atom_site_hle17_ddec_spin_density
 _atom_site_hle17_ddec_sum_bond_order
 _atom_site_hle17_magmom
 _atom_site_hse06_10hf_ddec_charge
 _atom_site_hse06_10hf_ddec_spin_density
 _atom_site_hse06_10hf_ddec_sum_bond_order
 _atom_site_hse06_10hf_magmom
 _atom_site_hse06_ddec_charge
 _atom_site_hse06_ddec_spin_density
 _atom_site_hse06_ddec_sum_bond_order
 _atom_site_hse06_magmom
 _atom_site_pbe_cm5_charge
 _atom_site_pbe_ddec_charge
 _atom_site_pbe_ddec_spin_density
 _atom_site_pbe_ddec_sum_bond_order
 _atom_site_pbe_magmom
Cu  Cu0  1  0.58416429  0.45031337  0.33833641  1  0.768643  0.67755  1.985012  0.464  0.753811  0.77284  2.395177  0.583  0.841678  0.857522  2.320217  0.671  0.666852  0.703743  0.710215  2.444903  0.525
Cu  Cu1  1  0.08418248  0.45031978  0.16167098  1  0.768541  -0.677563  1.985065  -0.464  0.753745  -0.77284  2.395214  -0.583  0.841587  -0.857524  2.320223  -0.671  0.666839  0.703674  -0.710208  2.444922  -0.525
Cu  Cu2  1  0.41583415  0.54968871  0.66166853  1  0.768521  -0.677539  1.985107  -0.464  0.753595  -0.772831  2.395391  -0.583  0.841524  -0.857523  2.320294  -0.671  0.666794  0.703578  -0.710207  2.445035  -0.525
Cu  Cu3  1  0.91582512  0.54968141  0.83832744  1  0.768582  0.677573  1.985255  0.464  0.753638  0.772844  2.395507  0.583  0.841608  0.857531  2.320456  0.671  0.666824  0.703602  0.71022  2.445206  0.525
H  H4  1  0.38224243  0.23559051  0.22794940  1  0.083037  0.000823  0.963236  0.001  0.092051  0.000893  1.025639  0.001  0.093526  0.000669  1.024853  0.001  0.109176  0.090798  0.001067  1.026324  0.002
H  H5  1  0.88224573  0.23560751  0.27205448  1  0.082935  -0.000822  0.96331  -0.001  0.091995  -0.000893  1.025654  -0.001  0.093499  -0.00067  1.024836  -0.001  0.109143  0.090729  -0.001066  1.026381  -0.002
H  H6  1  0.61775412  0.76440726  0.77204837  1  0.08294  -0.000821  0.963466  -0.001  0.091998  -0.000893  1.025828  -0.001  0.093507  -0.00067  1.024993  -0.001  0.109148  0.090743  -0.001067  1.026521  -0.002
H  H7  1  0.11776717  0.76439022  0.72794068  1  0.082953  0.000822  0.963377  0.001  0.091983  0.000893  1.025767  0.001  0.093527  0.00067  1.024901  0.001  0.109149  0.090722  0.001067  1.026486  0.002
H  H8  1  0.35379619  0.02221277  0.24120767  1  0.099662  0.000477  0.962249  0.0  0.112454  0.000538  1.018687  0.001  0.115514  0.000409  1.018542  0.0  0.102944  0.110208  0.000637  1.019044  0.001
H  H9  1  0.85378122  0.02222776  0.25879950  1  0.099641  -0.000477  0.962165  0.0  0.112418  -0.000539  1.018634  -0.001  0.115478  -0.000409  1.018484  0.0  0.102944  0.110173  -0.000638  1.01899  -0.001
H  H10  1  0.64621966  0.97778236  0.75879336  1  0.09967  -0.000477  0.96225  0.0  0.112431  -0.000539  1.018725  -0.001  0.11549  -0.000409  1.018579  0.0  0.10294  0.110188  -0.000638  1.019077  -0.001
H  H11  1  0.14622895  0.97776997  0.74119631  1  0.099638  0.000476  0.962241  0.0  0.112379  0.000539  1.018745  0.001  0.115432  0.000409  1.018598  0.0  0.10293  0.110134  0.000638  1.019105  0.001
H  H12  1  0.50667498  0.95361117  0.37098916  1  0.088167  7.9e-05  0.950105  0.0  0.102991  -8.8e-05  1.004121  0.0  0.10572  -7.9e-05  1.00129  0.0  0.106943  0.100889  -9.2e-05  1.006308  0.0
H  H13  1  0.00665649  0.95361599  0.12901575  1  0.088093  -8e-05  0.949932  0.0  0.102927  8.9e-05  1.003982  0.0  0.105651  7.9e-05  1.001151  0.0  0.106911  0.100824  9.2e-05  1.006168  0.0
H  H14  1  0.49332755  0.04639091  0.62901839  1  0.088178  -8e-05  0.950002  0.0  0.103007  8.9e-05  1.004025  0.0  0.105735  7.9e-05  1.001196  0.0  0.106952  0.100904  9.1e-05  1.006212  0.0
H  H15  1  0.99333559  0.04638092  0.87097223  1  0.088081  8e-05  0.949964  0.0  0.102925  -8.8e-05  1.003987  0.0  0.105648  -7.9e-05  1.001159  0.0  0.106939  0.100826  -9.2e-05  1.006171  0.0
H  H16  1  0.67036786  0.09736023  0.48226718  1  0.111716  0.00046  0.960139  0.0  0.122237  0.000564  1.020771  0.001  0.125559  0.000409  1.020024  0.0  0.108077  0.119813  0.000695  1.02156  0.001
H  H17  1  0.17035346  0.09735543  0.01773658  1  0.111698  -0.00046  0.959892  0.0  0.122157  -0.000564  1.020611  -0.001  0.12547  -0.000409  1.019869  0.0  0.108028  0.119734  -0.000695  1.021399  -0.001
H  H18  1  0.32961832  0.90264188  0.51774168  1  0.111676  -0.00046  0.960081  0.0  0.122155  -0.000564  1.020764  -0.001  0.125466  -0.000409  1.020027  0.0  0.10804  0.119737  -0.000695  1.021555  -0.001
H  H19  1  0.82961462  0.90264584  0.98225141  1  0.111639  0.000461  0.959875  0.0  0.122115  0.000564  1.020566  0.001  0.125423  0.000409  1.019837  0.0  0.108008  0.119697  0.000695  1.021355  0.001
H  H20  1  0.76056082  0.30614309  0.52549672  1  0.297302  0.002018  0.845774  0.002  0.294208  0.001905  0.883518  0.002  0.299535  0.00141  0.881031  0.001  0.348635  0.29024  0.002279  0.8855  0.002
H  H21  1  0.26057184  0.30613895  0.97450683  1  0.297276  -0.002018  0.845747  -0.002  0.294216  -0.001904  0.883482  -0.002  0.299543  -0.00141  0.881  -0.001  0.348681  0.290248  -0.002279  0.885463  -0.002
H  H22  1  0.23942498  0.69385815  0.47450627  1  0.297291  -0.002018  0.84581  -0.002  0.294211  -0.001904  0.883548  -0.002  0.299539  -0.00141  0.881062  -0.001  0.348664  0.290241  -0.002279  0.885529  -0.002
H  H23  1  0.73940949  0.69386144  0.02548115  1  0.29726  0.002019  0.845835  0.002  0.29416  0.001905  0.883651  0.002  0.299484  0.001411  0.881174  0.001  0.348667  0.290191  0.002279  0.885628  0.002
H  H24  1  0.82361143  0.49438308  0.57178727  1  0.094282  0.005614  0.941404  0.007  0.106547  0.004372  1.005497  0.005  0.109112  0.00332  0.999905  0.004  0.114422  0.104434  0.005066  1.00976  0.006
H  H25  1  0.32360345  0.49437958  0.92821562  1  0.094329  -0.005615  0.941472  -0.007  0.106596  -0.004373  1.005551  -0.005  0.109158  -0.003321  0.999961  -0.004  0.114423  0.104482  -0.005067  1.009812  -0.006
H  H26  1  0.17638633  0.50561123  0.42821833  1  0.094379  -0.005611  0.941477  -0.007  0.106639  -0.00437  1.005556  -0.005  0.109202  -0.003319  0.999967  -0.004  0.114436  0.104525  -0.005063  1.009817  -0.006
H  H27  1  0.67639892  0.50561903  0.07177954  1  0.094453  0.005607  0.941426  0.007  0.106701  0.004367  1.005521  0.005  0.109265  0.003317  0.999927  0.004  0.114482  0.104584  0.00506  1.009783  0.006
H  H28  1  0.91581387  0.68042987  0.61808161  1  0.091681  0.000304  0.995445  0.001  0.098964  0.000203  1.067206  0.0  0.1013  0.000127  1.065557  0.0  0.086051  0.097356  0.000275  1.068243  0.0
H  H29  1  0.41576495  0.68042360  0.88190993  1  0.091696  -0.000304  0.99551  -0.001  0.098965  -0.000202  1.067296  0.0  0.101307  -0.000128  1.065637  0.0  0.086052  0.097354  -0.000275  1.06833  0.0
H  H30  1  0.08420373  0.31956613  0.38192920  1  0.091783  -0.000305  0.995549  -0.001  0.099069  -0.000202  1.067288  0.0  0.101408  -0.000128  1.065633  0.0  0.086082  0.09746  -0.000275  1.068324  0.0
H  H31  1  0.58421176  0.31957247  0.11807675  1  0.09178  0.000304  0.995573  0.001  0.099059  0.000203  1.067336  0.0  0.101398  0.000128  1.065679  0.0  0.086103  0.097447  0.000275  1.068371  0.0
H  H32  1  0.94960483  0.89176083  0.60322787  1  0.077844  -0.000111  0.98161  0.0  0.085893  3.7e-05  1.051631  0.0  0.087899  2.7e-05  1.052992  0.0  0.087011  0.08455  4.6e-05  1.050679  0.0
H  H33  1  0.44955084  0.89175320  0.89676162  1  0.077836  0.00011  0.981893  0.0  0.085898  -3.7e-05  1.051897  0.0  0.087913  -2.7e-05  1.053227  0.0  0.086974  0.084543  -4.6e-05  1.05097  0.0
H  H34  1  0.05040845  0.10823777  0.39678099  1  0.077928  0.000111  0.981581  0.0  0.085991  -3.7e-05  1.051576  0.0  0.087991  -2.7e-05  1.052953  0.0  0.087073  0.084644  -4.6e-05  1.050622  0.0
H  H35  1  0.55041769  0.10824289  0.10321919  1  0.077932  -0.000111  0.98159  0.0  0.085984  3.7e-05  1.051593  0.0  0.087982  2.7e-05  1.052975  0.0  0.087084  0.084638  4.6e-05  1.05064  0.0
H  H36  1  0.83606195  0.96633086  0.46693624  1  0.071181  0.000761  0.988599  0.001  0.082868  0.000336  1.053586  0.001  0.084461  0.000194  1.052618  0.0  0.090623  0.081832  0.000473  1.054126  0.001
H  H37  1  0.33604550  0.96633162  0.03306272  1  0.071234  -0.000761  0.988552  -0.001  0.082896  -0.000337  1.053565  -0.001  0.084486  -0.000195  1.0526  0.0  0.090629  0.081862  -0.000474  1.054102  -0.001
H  H38  1  0.16393407  0.03366259  0.53307784  1  0.071175  -0.000763  0.988514  -0.001  0.082872  -0.000337  1.053493  -0.001  0.084467  -0.000195  1.052522  0.0  0.090624  0.081835  -0.000474  1.054033  -0.001
H  H39  1  0.66394673  0.03366874  0.96692331  1  0.071144  0.000761  0.988601  0.001  0.082857  0.000337  1.053554  0.001  0.084447  0.000194  1.052588  0.0  0.090672  0.081821  0.000474  1.054091  0.001
H  H40  1  0.68236553  0.82934513  0.34948566  1  0.100654  -0.000462  0.955321  -0.001  0.113161  -1.2e-05  1.012938  0.0  0.117035  -3.2e-05  1.010583  0.0  0.095848  0.110445  3.1e-05  1.014667  0.0
H  H41  1  0.18238456  0.82935905  0.15052584  1  0.100671  0.000462  0.95523  0.001  0.113173  1.3e-05  1.012852  0.0  0.11705  3.2e-05  1.010494  0.0  0.095843  0.110456  -3.1e-05  1.014582  0.0
H  H42  1  0.31761838  0.17065179  0.65053558  1  0.100711  0.000463  0.955368  0.001  0.113211  1.3e-05  1.012977  0.0  0.117087  3.1e-05  1.010621  0.0  0.095912  0.110495  -3e-05  1.014706  0.0
H  H43  1  0.81763545  0.17064558  0.84946671  1  0.100674  -0.000461  0.955327  -0.001  0.113158  -1.2e-05  1.012954  0.0  0.117036  -3.2e-05  1.010593  0.0  0.095883  0.110443  3.1e-05  1.014684  0.0
C  C44  1  0.44264439  0.19936873  0.28256823  1  0.158195  -0.005355  3.704393  -0.006  0.130058  -0.000645  3.956163  -0.002  0.14153  -0.001399  3.975601  -0.003  0.048594  0.122863  -3.8e-05  3.943435  -0.001
C  C45  1  0.94264291  0.19938096  0.21743922  1  0.157997  0.005352  3.704308  0.006  0.129825  0.000644  3.956134  0.002  0.141268  0.001398  3.975566  0.003  0.048476  0.122628  3.7e-05  3.943399  0.001
C  C46  1  0.55736231  0.80062729  0.71743867  1  0.158104  0.005348  3.704754  0.006  0.129892  0.000644  3.956546  0.002  0.141342  0.001398  3.975983  0.003  0.048455  0.122699  3.7e-05  3.94382  0.001
C  C47  1  0.05735947  0.80061766  0.78255659  1  0.158137  -0.005353  3.704313  -0.006  0.129959  -0.000643  3.956123  -0.002  0.141386  -0.0014  3.975545  -0.003  0.048553  0.122759  -3.7e-05  3.943397  -0.001
C  C48  1  0.42863521  0.08242431  0.29045191  1  -0.167129  0.006463  3.771548  0.007  -0.179545  0.003207  4.021544  0.004  -0.189948  0.003181  4.042513  0.004  -0.104048  -0.172871  0.003142  4.007472  0.004
C  C49  1  0.92862348  0.08244069  0.20955637  1  -0.166724  -0.006462  3.771263  -0.007  -0.179122  -0.003206  4.021261  -0.004  -0.189525  -0.00318  4.042244  -0.004  -0.103794  -0.172451  -0.003141  4.007185  -0.004
C  C50  1  0.57137602  0.91756652  0.70955695  1  -0.166791  -0.00646  3.771406  -0.007  -0.179166  -0.003206  4.021356  -0.004  -0.189571  -0.003181  4.042347  -0.004  -0.103785  -0.172492  -0.003141  4.007278  -0.004
C  C51  1  0.07138154  0.91756397  0.79043944  1  -0.166807  0.006465  3.771287  0.007  -0.179153  0.003207  4.021268  0.004  -0.189551  0.003182  4.042255  0.004  -0.103789  -0.172482  0.003142  4.007197  0.004
C  C52  1  0.51302848  0.04475794  0.36294660  1  0.003802  -0.005836  3.767564  -0.005  -0.012757  -0.00206  4.011391  -0.002  -0.00392  -0.002236  4.025939  -0.002  -0.074029  -0.018413  -0.001911  4.001513  -0.002
C  C53  1  0.01301161  0.04476382  0.13706325  1  0.00371  0.005839  3.767385  0.005  -0.012873  0.00206  4.011218  0.002  -0.004029  0.002236  4.025762  0.002  -0.074115  -0.018529  0.00191  4.001334  0.002
C  C54  1  0.48697798  0.95524067  0.63706487  1  0.003508  0.005839  3.767331  0.005  -0.01305  0.002059  4.011161  0.002  -0.004216  0.002236  4.02571  0.002  -0.074192  -0.018705  0.001911  4.001283  0.002
C  C55  1  0.98698236  0.95523741  0.86292799  1  0.003648  -0.005837  3.767563  -0.005  -0.012931  -0.002059  4.011381  -0.002  -0.00409  -0.002236  4.025929  -0.002  -0.074219  -0.01859  -0.00191  4.001499  -0.002
C  C56  1  0.60421257  0.12366939  0.42505946  1  -0.222786  0.006335  3.723907  0.006  -0.23731  0.00272  3.977607  0.003  -0.248565  0.00272  3.996509  0.003  -0.093767  -0.230178  0.002678  3.965035  0.003
C  C57  1  0.10419808  0.12366772  0.07494974  1  -0.222775  -0.006336  3.723728  -0.006  -0.23725  -0.00272  3.977426  -0.003  -0.248485  -0.002719  3.996292  -0.003  -0.093713  -0.230119  -0.002678  3.964854  -0.003
C  C58  1  0.39578337  0.87633010  0.57495005  1  -0.22268  -0.006338  3.723596  -0.006  -0.237157  -0.00272  3.977342  -0.003  -0.248397  -0.00272  3.99623  -0.003  -0.093699  -0.230034  -0.002678  3.96478  -0.003
C  C59  1  0.89579120  0.87633525  0.92504086  1  -0.22257  0.006334  3.723523  0.006  -0.237066  0.002718  3.977238  0.003  -0.248302  0.00272  3.996107  0.003  -0.093643  -0.229951  0.002678  3.964686  0.003
C  C60  1  0.60848001  0.24059536  0.41328114  1  0.390084  -0.003078  3.818389  -0.004  0.36164  0.000612  4.08048  0.0  0.382528  -0.000358  4.095233  -0.001  0.230735  0.348032  0.001351  4.07036  0.001
C  C61  1  0.10848085  0.24059826  0.08672403  1  0.390033  0.003078  3.818186  0.004  0.36168  -0.000611  4.080199  0.0  0.382566  0.000359  4.094944  0.001  0.23077  0.348069  -0.00135  4.070083  -0.001
C  C62  1  0.39151753  0.75940154  0.58673033  1  0.390091  0.003082  3.817974  0.004  0.361593  -0.00061  4.080149  0.0  0.382482  0.000359  4.0949  0.001  0.230681  0.347985  -0.00135  4.070038  -0.001
C  C63  1  0.89151123  0.75939865  0.91326917  1  0.389837  -0.003077  3.817947  -0.004  0.361524  0.000612  4.079979  0.0  0.382418  -0.000359  4.094729  -0.001  0.230669  0.347912  0.001351  4.069853  0.001
C  C64  1  0.76468941  0.51633343  0.51007234  1  0.096046  -0.016962  3.675362  -0.017  0.047521  -0.005354  3.956939  -0.006  0.067196  -0.006655  3.96514  -0.008  0.057548  0.034501  -0.004304  3.952426  -0.005
C  C65  1  0.26469141  0.51633141  0.98993065  1  0.096075  0.016946  3.676052  0.017  0.047513  0.005351  3.9576  0.006  0.067184  0.00665  3.965813  0.008  0.057599  0.034489  0.0043  3.953082  0.005
C  C66  1  0.23531145  0.48366173  0.48992804  1  0.096034  0.016965  3.675456  0.017  0.047516  0.005355  3.956955  0.006  0.067183  0.006656  3.96517  0.008  0.057558  0.034497  0.004305  3.952442  0.005
C  C67  1  0.73530725  0.48366808  0.01007495  1  0.096204  -0.016967  3.675283  -0.017  0.047637  -0.005356  3.956758  -0.006  0.067316  -0.006659  3.964955  -0.008  0.057546  0.034613  -0.004306  3.952245  -0.005
C  C68  1  0.77929551  0.63584315  0.49410320  1  -0.110464  0.00951  3.806664  0.011  -0.101436  0.003708  4.067378  0.005  -0.118667  0.002684  4.095578  0.004  -0.043328  -0.090383  0.004507  4.048746  0.006
C  C69  1  0.27929923  0.63583544  0.00589410  1  -0.110449  -0.009494  3.806937  -0.011  -0.101462  -0.003708  4.067538  -0.005  -0.118694  -0.002683  4.095748  -0.004  -0.0434  -0.090409  -0.004506  4.048899  -0.006
C  C70  1  0.22070505  0.36416066  0.50590370  1  -0.110517  -0.009505  3.807084  -0.011  -0.101452  -0.003715  4.067727  -0.005  -0.118683  -0.002686  4.095932  -0.004  -0.0434  -0.090401  -0.004505  4.049097  -0.006
C  C71  1  0.72071086  0.36416835  0.99409780  1  -0.110595  0.009492  3.807105  0.011  -0.101549  0.003709  4.06775  0.005  -0.118776  0.002682  4.095954  0.004  -0.043392  -0.090495  0.004502  4.049112  0.006
C  C72  1  0.86691840  0.71549550  0.55945914  1  -0.087199  -0.007076  3.779687  -0.007  -0.117357  -0.001478  4.048185  -0.002  -0.113304  -0.001724  4.070937  -0.002  -0.102529  -0.119756  -0.0012  4.03267  -0.001
C  C73  1  0.36688594  0.71548976  0.94053460  1  -0.087163  0.007061  3.77969  0.007  -0.11733  0.001477  4.048218  0.002  -0.113267  0.001723  4.07095  0.002  -0.102543  -0.119726  0.0012  4.032686  0.001
C  C74  1  0.13309570  0.28451433  0.44055102  1  -0.087269  0.00708  3.779885  0.007  -0.117458  0.00148  4.0484  0.002  -0.113395  0.001725  4.071133  0.002  -0.102486  -0.119857  0.0012  4.03289  0.001
C  C75  1  0.63310311  0.28451580  0.05945207  1  -0.087277  -0.007071  3.779586  -0.007  -0.117457  -0.00148  4.048102  -0.002  -0.113394  -0.001725  4.070838  -0.002  -0.102506  -0.119858  -0.001201  4.03259  -0.001
C  C76  1  0.88728259  0.83276587  0.55080446  1  -0.136192  0.006042  3.841522  0.006  -0.15433  0.000124  4.106906  0.0  -0.16402  0.000247  4.133229  0.0  -0.130928  -0.147696  -1.5e-05  4.088598  0.0
C  C77  1  0.38725673  0.83276638  0.94918907  1  -0.136306  -0.006019  3.841723  -0.006  -0.154468  -0.000122  4.107081  0.0  -0.164156  -0.000245  4.133422  0.0  -0.130924  -0.147835  1.8e-05  4.088756  0.0
C  C78  1  0.11272289  0.16723360  0.44920179  1  -0.136267  -0.006046  3.841495  -0.006  -0.154421  -0.000121  4.1069  0.0  -0.164116  -0.000245  4.13323  0.0  -0.130971  -0.147784  1.6e-05  4.088587  0.0
C  C79  1  0.61272839  0.16722709  0.05079500  1  -0.136317  0.00603  3.841431  0.006  -0.154455  0.000122  4.106836  0.0  -0.164152  0.000246  4.133162  0.0  -0.131003  -0.14782  -1.7e-05  4.088525  0.0
C  C80  1  0.82027083  0.87405006  0.47452269  1  -0.045825  -0.007551  3.833044  -0.007  -0.060564  -0.000788  4.085294  0.0  -0.055813  -0.001307  4.106435  -0.001  -0.103349  -0.06337  -0.000361  4.070333  0.0
C  C81  1  0.32025896  0.87405150  0.02547359  1  -0.045706  0.007536  3.833205  0.007  -0.060425  0.000789  4.08545  0.0  -0.055675  0.001306  4.106601  0.001  -0.103334  -0.063233  0.00036  4.070481  0.0
C  C82  1  0.17972156  0.12595377  0.52548812  1  -0.045746  0.007555  3.833054  0.007  -0.060492  0.000789  4.085332  0.0  -0.055744  0.001306  4.106485  0.001  -0.10334  -0.063296  0.00036  4.070367  0.0
C  C83  1  0.67972956  0.12594974  0.97451440  1  -0.045665  -0.007539  3.833592  -0.007  -0.060433  -0.000788  4.085857  0.0  -0.055682  -0.001307  4.10701  -0.001  -0.103383  -0.063239  -0.00036  4.070885  0.0
C  C84  1  0.73458177  0.79900418  0.40915700  1  -0.220095  0.019871  3.74645  0.02  -0.24064  0.007932  3.999908  0.009  -0.250875  0.005633  4.017959  0.007  -0.124694  -0.233694  0.009564  3.987117  0.011
C  C85  1  0.23459822  0.79901492  0.09084322  1  -0.220071  -0.019854  3.746555  -0.02  -0.240681  -0.007934  3.999917  -0.009  -0.250918  -0.005633  4.01798  -0.007  -0.124676  -0.233734  -0.009563  3.987116  -0.011
C  C86  1  0.26541356  0.20099705  0.59085511  1  -0.220178  -0.019879  3.746172  -0.02  -0.240706  -0.007941  3.99965  -0.009  -0.250943  -0.005635  4.017709  -0.007  -0.124788  -0.23376  -0.009566  3.986862  -0.011
C  C87  1  0.76541309  0.20098541  0.90914868  1  -0.220116  0.019861  3.746311  0.02  -0.240661  0.007935  3.999745  0.009  -0.250894  0.005633  4.017807  0.007  -0.12477  -0.233715  0.009564  3.98695  0.011
C  C88  1  0.70656945  0.67731771  0.41674066  1  0.349997  -0.006738  3.833767  -0.011  0.342083  0.000828  4.095093  -0.002  0.366798  -0.00025  4.109398  -0.002  0.088085  0.326023  0.001822  4.084602  -0.001
C  C89  1  0.20658942  0.67732049  0.08326433  1  0.349569  0.006733  3.83401  0.011  0.341899  -0.000824  4.095025  0.002  0.366608  0.000251  4.109343  0.002  0.088083  0.325839  -0.001821  4.084526  0.001
C  C90  1  0.29342717  0.32268956  0.58326624  1  0.349853  0.006745  3.833608  0.011  0.341902  -0.000817  4.094983  0.002  0.366614  0.000253  4.109289  0.002  0.087984  0.325843  -0.00182  4.0845  0.001
C  C91  1  0.79342453  0.32268588  0.91673148  1  0.349834  -0.006743  3.833411  -0.011  0.341991  0.000821  4.094643  -0.002  0.366691  -0.000255  4.108971  -0.002  0.088053  0.325929  0.001818  4.084156  -0.001
N  N92  1  0.53221986  0.27735354  0.34199180  1  -0.401082  0.064035  3.321839  0.077  -0.350248  0.05202  3.610707  0.067  -0.384239  0.045055  3.629654  0.061  -0.358133  -0.33044  0.055237  3.600111  0.068
N  N93  1  0.03221819  0.27736422  0.15801318  1  -0.400994  -0.064041  3.321458  -0.077  -0.350224  -0.052024  3.610401  -0.067  -0.384195  -0.045057  3.629332  -0.061  -0.358235  -0.330415  -0.055239  3.599802  -0.068
N  N94  1  0.46778502  0.72264766  0.65801706  1  -0.401036  -0.064035  3.321672  -0.077  -0.350136  -0.052022  3.610549  -0.067  -0.384148  -0.045054  3.629518  -0.061  -0.358067  -0.330341  -0.055236  3.599953  -0.068
N  N95  1  0.96777934  0.72263268  0.84198002  1  -0.40101  0.064044  3.321614  0.077  -0.350165  0.052025  3.610464  0.067  -0.384195  0.045061  3.629473  0.061  -0.358173  -0.330363  0.055242  3.599873  0.068
N  N96  1  0.68742695  0.32349798  0.47305505  1  -0.270457  0.003069  3.395715  0.002  -0.222303  0.002732  3.637442  0.002  -0.239712  0.001991  3.655193  0.001  -0.29533  -0.210008  0.003216  3.62548  0.002
N  N97  1  0.18742846  0.32350202  0.02695157  1  -0.270275  -0.003062  3.395316  -0.002  -0.222237  -0.002729  3.637042  -0.002  -0.23966  -0.001988  3.654806  -0.001  -0.295313  -0.209939  -0.003213  3.625078  -0.002
N  N98  1  0.31256824  0.67649979  0.52694859  1  -0.270322  -0.003069  3.395622  -0.002  -0.222183  -0.002733  3.637339  -0.002  -0.239596  -0.001992  3.655097  -0.001  -0.295253  -0.209884  -0.003217  3.62538  -0.002
N  N99  1  0.81255916  0.67649403  0.97304620  1  -0.269981  0.003066  3.395507  0.002  -0.222049  0.002733  3.637358  0.002  -0.239462  0.001991  3.655122  0.001  -0.295228  -0.209749  0.003215  3.625382  0.002
N  N100  1  0.68876189  0.43472018  0.45488385  1  -0.161703  0.070385  3.368936  0.086  -0.12792  0.056545  3.682827  0.075  -0.152158  0.050667  3.701516  0.07  -0.265591  -0.114822  0.058575  3.672833  0.075
N  N101  1  0.18877161  0.43473156  0.04512193  1  -0.161876  -0.070374  3.36896  -0.086  -0.127987  -0.056539  3.682817  -0.075  -0.152214  -0.050661  3.701486  -0.07  -0.265645  -0.114889  -0.058572  3.672817  -0.075
N  N102  1  0.31123700  0.56527671  0.54512370  1  -0.16192  -0.07038  3.368824  -0.086  -0.128073  -0.056539  3.682699  -0.075  -0.152314  -0.050664  3.701368  -0.07  -0.265676  -0.114985  -0.058568  3.672703  -0.075
N  N103  1  0.81123841  0.56527827  0.95486931  1  -0.162342  0.070376  3.368955  0.086  -0.128321  0.056536  3.682794  0.074  -0.152575  0.050666  3.701484  0.07  -0.265773  -0.11523  0.058567  3.672801  0.075
Cl  Cl104  1  0.45047720  0.46091906  0.20777383  1  -0.538917  0.108381  1.072291  0.121  -0.541693  0.07122  1.377648  0.083  -0.570211  0.056526  1.346489  0.068  -0.307312  -0.523985  0.08006  1.399792  0.092
Cl  Cl105  1  0.95048452  0.46093395  0.29223516  1  -0.538894  -0.108403  1.072322  -0.121  -0.541682  -0.071227  1.377635  -0.083  -0.570183  -0.05653  1.34645  -0.068  -0.307266  -0.523988  -0.080067  1.39981  -0.092
Cl  Cl106  1  0.54953607  0.53907953  0.79223046  1  -0.538864  -0.108394  1.072335  -0.121  -0.541613  -0.071225  1.377706  -0.083  -0.570163  -0.056528  1.346523  -0.068  -0.307274  -0.523923  -0.080069  1.39984  -0.092
Cl  Cl107  1  0.04953262  0.53906723  0.70776457  1  -0.538825  0.108409  1.072343  0.121  -0.541593  0.071232  1.37771  0.083  -0.57017  0.056533  1.346567  0.068  -0.307243  -0.523913  0.080074  1.399886  0.092
O  O108  1  0.61378540  0.61283943  0.35447072  1  -0.520422  0.120377  2.099402  0.152  -0.50039  0.073986  2.379177  0.103  -0.547971  0.055936  2.376923  0.082  -0.338517  -0.470088  0.084314  2.380776  0.113
O  O109  1  0.11382631  0.61285318  0.14554625  1  -0.520112  -0.120376  2.099332  -0.152  -0.500169  -0.073994  2.379006  -0.103  -0.547743  -0.055941  2.376748  -0.083  -0.338458  -0.469866  -0.084326  2.380591  -0.113
O  O110  1  0.38621251  0.38715833  0.64554009  1  -0.520267  -0.120381  2.099234  -0.152  -0.500177  -0.073997  2.379005  -0.103  -0.547762  -0.055944  2.376735  -0.083  -0.338391  -0.469886  -0.084325  2.38059  -0.113
O  O111  1  0.88620301  0.38715402  0.85445152  1  -0.520286  0.120373  2.099154  0.152  -0.500223  0.073991  2.378878  0.103  -0.547818  0.055943  2.376633  0.083  -0.338426  -0.46993  0.084324  2.380479  0.113
