# generated using pymatgen
data_CuH14C11I2BrN4
_symmetry_space_group_name_H-M   'P 1'
_cell_length_a   4.16792063
_cell_length_b   13.98343740
_cell_length_c   15.43763796
_cell_angle_alpha   89.99997979
_cell_angle_beta   90.00022930
_cell_angle_gamma   90.00020330
_symmetry_Int_Tables_number   1
_chemical_formula_structural   CuH14C11I2BrN4
_chemical_formula_sum   'Cu2 H28 C22 I4 Br2 N8'
_cell_volume   899.73421132
_cell_formula_units_Z   2
loop_
 _symmetry_equiv_pos_site_id
 _symmetry_equiv_pos_as_xyz
  1  'x, y, z'
loop_
 _atom_site_type_symbol
 _atom_site_label
 _atom_site_symmetry_multiplicity
 _atom_site_fract_x
 _atom_site_fract_y
 _atom_site_fract_z
 _atom_site_occupancy
 _atom_site_hle17_bader_spin_density
 _atom_site_hle17_ddec_charge
 _atom_site_hle17_ddec_spin_density
 _atom_site_hle17_ddec_sum_bond_order
 _atom_site_hle17_magmom
 _atom_site_hse06_10hf_bader_spin_density
 _atom_site_hse06_10hf_ddec_charge
 _atom_site_hse06_10hf_ddec_spin_density
 _atom_site_hse06_10hf_ddec_sum_bond_order
 _atom_site_hse06_10hf_magmom
 _atom_site_hse06_bader_spin_density
 _atom_site_hse06_ddec_charge
 _atom_site_hse06_ddec_spin_density
 _atom_site_hse06_ddec_sum_bond_order
 _atom_site_hse06_magmom
 _atom_site_pbe_bader_spin_density
 _atom_site_pbe_cm5_charge
 _atom_site_pbe_ddec_charge
 _atom_site_pbe_ddec_spin_density
 _atom_site_pbe_ddec_sum_bond_order
 _atom_site_pbe_magmom
Cu  Cu0  1  0.42161341  0.89114429  0.99999829  1  0  0.382157  0  1.945128  0  0  0.269272  0  2.448012  0  0  0.273923  0  2.401328  0  0  0.366425  0.26891  0  2.477902  0
Cu  Cu1  1  0.57839496  0.39114224  0.49999968  1  0  0.382229  0  1.945096  0  0  0.269346  0  2.448003  0  0  0.274007  0  2.4013  0  0  0.366468  0.268981  0  2.477911  0
H  H2  1  0.18269254  0.92531975  0.19215436  1  0  0.114181  0  0.980416  0  0  0.126935  0  1.058071  0  0  0.130323  0  1.05526  0  0  0.083092  0.124388  0  1.060241  0
H  H3  1  0.81731868  0.42531641  0.30784347  1  0  0.114245  0  0.980314  0  0  0.127006  0  1.057955  0  0  0.130394  0  1.055144  0  0  0.083117  0.124455  0  1.060133  0
H  H4  1  0.18268494  0.92531677  0.80784116  1  0  0.114278  0  0.980287  0  0  0.12704  0  1.057933  0  0  0.130428  0  1.055121  0  0  0.083128  0.124488  0  1.060103  0
H  H5  1  0.81732623  0.42531776  0.69216004  1  0  0.114239  0  0.980373  0  0  0.127034  0  1.057988  0  0  0.130421  0  1.055177  0  0  0.083136  0.124477  0  1.060172  0
H  H6  1  0.15780510  0.85356054  0.28876952  1  0  0.11209  0  0.94569  0  0  0.134912  0  1.002031  0  0  0.136341  0  1.001356  0  0  0.087961  0.133944  0  1.002427  0
H  H7  1  0.84220049  0.35355941  0.21122768  1  0  0.112061  0  0.945673  0  0  0.134924  0  1.001978  0  0  0.136358  0  1.001299  0  0  0.087979  0.133953  0  1.002373  0
H  H8  1  0.15779852  0.85355759  0.71122664  1  0  0.112112  0  0.9456  0  0  0.134993  0  1.001883  0  0  0.136429  0  1.0012  0  0  0.088009  0.134019  0  1.002277  0
H  H9  1  0.84220222  0.35355714  0.78877458  1  0  0.1121  0  0.945606  0  0  0.134987  0  1.001881  0  0  0.136422  0  1.0012  0  0  0.087992  0.134018  0  1.002278  0
H  H10  1  0.85499867  0.84726849  0.20860480  1  0  0.12632  0  0.959981  0  0  0.146229  0  1.020529  0  0  0.147583  0  1.021402  0  0  0.092662  0.145235  0  1.019954  0
H  H11  1  0.14500685  0.34726442  0.29139240  1  0  0.126348  0  0.959985  0  0  0.146256  0  1.020534  0  0  0.147609  0  1.021409  0  0  0.092679  0.145261  0  1.019959  0
H  H12  1  0.85499084  0.84726551  0.79139020  1  0  0.126357  0  0.960006  0  0  0.14627  0  1.020549  0  0  0.147623  0  1.021423  0  0  0.092693  0.145275  0  1.01997  0
H  H13  1  0.14501463  0.34726291  0.70861102  1  0  0.126404  0  0.959931  0  0  0.14629  0  1.020513  0  0  0.147644  0  1.021387  0  0  0.092694  0.145296  0  1.019939  0
H  H14  1  0.57979454  0.49908214  0.18840277  1  0  0.124046  0  0.972434  0  0  0.1465  0  1.030672  0  0  0.148287  0  1.030364  0  0  0.094804  0.145157  0  1.030964  0
H  H15  1  0.42021033  0.99908069  0.31159892  1  0  0.124144  0  0.972438  0  0  0.146606  0  1.030657  0  0  0.148397  0  1.030343  0  0  0.094853  0.145266  0  1.03095  0
H  H16  1  0.57978939  0.49908059  0.81159850  1  0  0.124075  0  0.972404  0  0  0.146506  0  1.030668  0  0  0.148295  0  1.030359  0  0  0.09482  0.145169  0  1.030961  0
H  H17  1  0.42019623  0.99908133  0.68840332  1  0  0.124126  0  0.972401  0  0  0.146598  0  1.030621  0  0  0.148386  0  1.030312  0  0  0.094839  0.145256  0  1.030908  0
H  H18  1  0.91448398  0.53608254  0.12619201  1  0  0.118199  0  0.951117  0  0  0.139278  0  1.011436  0  0  0.141013  0  1.011226  0  0  0.092817  0.138007  0  1.011611  0
H  H19  1  0.08552274  0.03607837  0.37380852  1  0  0.118243  0  0.951109  0  0  0.139324  0  1.011413  0  0  0.141055  0  1.011209  0  0  0.092849  0.138053  0  1.011589  0
H  H20  1  0.91447733  0.53608310  0.87380833  1  0  0.118185  0  0.951125  0  0  0.139266  0  1.011441  0  0  0.141  0  1.011233  0  0  0.092812  0.137997  0  1.011615  0
H  H21  1  0.08551015  0.03608404  0.62619428  1  0  0.118228  0  0.951116  0  0  0.139316  0  1.011424  0  0  0.141048  0  1.011218  0  0  0.092829  0.138043  0  1.011598  0
H  H22  1  0.55150145  0.50194053  0.07356719  1  0  0.109125  0  0.94293  0  0  0.13005  0  1.002788  0  0  0.132281  0  1.001071  0  0  0.091416  0.128434  0  1.004034  0
H  H23  1  0.44850728  0.00194031  0.42643272  1  0  0.109143  0  0.942983  0  0  0.130072  0  1.002829  0  0  0.132306  0  1.001108  0  0  0.091432  0.128453  0  1.004077  0
H  H24  1  0.55150034  0.50193964  0.92643341  1  0  0.109117  0  0.942966  0  0  0.130044  0  1.002815  0  0  0.132276  0  1.001095  0  0  0.091416  0.128428  0  1.004062  0
H  H25  1  0.44848434  0.00194243  0.57356921  1  0  0.109167  0  0.943029  0  0  0.13012  0  1.00284  0  0  0.132354  0  1.001121  0  0  0.091469  0.128502  0  1.004085  0
H  H26  1  0.93870027  0.76694406  0.99999924  1  0  0.089011  0  0.959871  0  0  0.084965  0  1.05451  0  0  0.090088  0  1.047479  0  0  0.123569  0.08107  0  1.05959  0
H  H27  1  0.06130426  0.26694288  0.49999876  1  0  0.089056  0  0.959839  0  0  0.08501  0  1.054468  0  0  0.090132  0  1.047435  0  0  0.123592  0.08112  0  1.059551  0
H  H28  1  0.92061617  0.63865157  0.99999990  1  0  0.09542  0  0.904204  0  0  0.111421  0  0.962633  0  0  0.111234  0  0.963203  0  0  0.136972  0.111466  0  0.962375  0
H  H29  1  0.07939168  0.13864897  0.50000009  1  0  0.095415  0  0.90421  0  0  0.111415  0  0.962647  0  0  0.111227  0  0.963217  0  0  0.136967  0.111465  0  0.962385  0
C  C30  1  0.11424572  0.85552714  0.21867328  1  0  -0.355652  0  3.723072  0  0  -0.433955  0  3.958596  0  0  -0.437421  0  3.965072  0  0  -0.2462  -0.431335  0  3.954045  0
C  C31  1  0.88575989  0.35552460  0.28132327  1  0  -0.355714  0  3.722952  0  0  -0.434034  0  3.958538  0  0  -0.4375  0  3.965008  0  0  -0.246254  -0.431409  0  3.953993  0
C  C32  1  0.11424014  0.85552417  0.78132218  1  0  -0.355855  0  3.722943  0  0  -0.434193  0  3.95853  0  0  -0.437658  0  3.964993  0  0  -0.246311  -0.43157  0  3.953983  0
C  C33  1  0.88576302  0.35552308  0.71867904  1  0  -0.355867  0  3.722916  0  0  -0.434223  0  3.958489  0  0  -0.43769  0  3.964956  0  0  -0.246292  -0.431589  0  3.953964  0
C  C34  1  0.29546722  0.77801770  0.17503265  1  0  0.254408  0  3.749014  0  0  0.24689  0  4.020307  0  0  0.257246  0  4.036756  0  0  0.09185  0.240109  0  4.009084  0
C  C35  1  0.70453510  0.27801637  0.32496587  1  0  0.254513  0  3.748616  0  0  0.246934  0  4.020026  0  0  0.257285  0  4.036484  0  0  0.091905  0.240164  0  4.008785  0
C  C36  1  0.29545987  0.77801613  0.82496433  1  0  0.254627  0  3.748553  0  0  0.247045  0  4.019986  0  0  0.257397  0  4.036441  0  0  0.091913  0.240269  0  4.008745  0
C  C37  1  0.70453280  0.27801701  0.67503497  1  0  0.25461  0  3.748481  0  0  0.247004  0  4.019925  0  0  0.257356  0  4.036381  0  0  0.091895  0.240231  0  4.008695  0
C  C38  1  0.34755279  0.68241390  0.20253431  1  0  -0.243758  0  3.693872  0  0  -0.228577  0  3.978744  0  0  -0.237127  0  4.00288  0  0  -0.094638  -0.223164  0  3.962468  0
C  C39  1  0.65243883  0.18241253  0.29746294  1  0  -0.243802  0  3.693784  0  0  -0.228591  0  3.978672  0  0  -0.237139  0  4.00281  0  0  -0.094663  -0.223182  0  3.962392  0
C  C40  1  0.34754504  0.68241235  0.79746470  1  0  -0.243778  0  3.693601  0  0  -0.228546  0  3.978481  0  0  -0.237096  0  4.00262  0  0  -0.094598  -0.223127  0  3.962194  0
C  C41  1  0.65243692  0.18241173  0.70253786  1  0  -0.243863  0  3.693809  0  0  -0.228649  0  3.978703  0  0  -0.237198  0  4.002841  0  0  -0.094681  -0.223243  0  3.962425  0
C  C42  1  0.53123120  0.63851351  0.13829791  1  0  0.182401  0  3.762938  0  0  0.161318  0  4.045178  0  0  0.171612  0  4.065198  0  0  0.08151  0.154707  0  4.031309  0
C  C43  1  0.46876951  0.13851190  0.36170000  1  0  0.182378  0  3.762962  0  0  0.161287  0  4.045206  0  0  0.17158  0  4.065229  0  0  0.08149  0.154685  0  4.031331  0
C  C44  1  0.53122437  0.63851193  0.86170197  1  0  0.182375  0  3.762931  0  0  0.161263  0  4.045198  0  0  0.171556  0  4.065221  0  0  0.081457  0.154655  0  4.031329  0
C  C45  1  0.46875949  0.13851185  0.63830320  1  0  0.182501  0  3.762898  0  0  0.161421  0  4.045142  0  0  0.171715  0  4.065166  0  0  0.081576  0.154818  0  4.03126  0
C  C46  1  0.65125685  0.53895293  0.13049045  1  0  -0.356058  0  3.765093  0  0  -0.433903  0  4.006644  0  0  -0.436561  0  4.012472  0  0  -0.239999  -0.431817  0  4.00248  0
C  C47  1  0.34874751  0.03894834  0.36950879  1  0  -0.356264  0  3.76521  0  0  -0.434119  0  4.006743  0  0  -0.436779  0  4.012569  0  0  -0.240132  -0.432034  0  4.002581  0
C  C48  1  0.65125253  0.53895064  0.86951089  1  0  -0.356067  0  3.765046  0  0  -0.433883  0  4.006611  0  0  -0.436543  0  4.012441  0  0  -0.240016  -0.431803  0  4.002453  0
C  C49  1  0.34873018  0.03895043  0.63049172  1  0  -0.356267  0  3.765258  0  0  -0.434163  0  4.006789  0  0  -0.436823  0  4.012616  0  0  -0.24014  -0.432079  0  4.002619  0
C  C50  1  0.77829618  0.70433133  0.99999916  1  0  0.081615  0  3.638125  0  0  0.000197  0  3.892572  0  0  0.009597  0  3.899322  0  0  0.059213  -0.006142  0  3.888546  0
C  C51  1  0.22171003  0.20433247  0.49999951  1  0  0.081497  0  3.637987  0  0  5.7e-05  0  3.892476  0  0  0.009464  0  3.899217  0  0  0.05914  -0.0063  0  3.888477  0
I  I52  1  0.20840474  0.61926409  0.31947441  1  0  0.034622  0  1.534896  0  0  0.020546  0  1.860213  0  0  0.021467  0  1.849298  0  0  0.09015  0.01928  0  1.868487  0
I  I53  1  0.79158855  0.11926292  0.18052221  1  0  0.034668  0  1.534871  0  0  0.020591  0  1.860189  0  0  0.021515  0  1.849272  0  0  0.090182  0.019323  0  1.868466  0
I  I54  1  0.20840252  0.61925901  0.68052317  1  0  0.034651  0  1.534785  0  0  0.020569  0  1.86011  0  0  0.021493  0  1.849192  0  0  0.090172  0.019297  0  1.868383  0
I  I55  1  0.79157872  0.11926279  0.81948071  1  0  0.034677  0  1.53487  0  0  0.020595  0  1.8602  0  0  0.021517  0  1.849286  0  0  0.090175  0.019323  0  1.868474  0
Br  Br56  1  0.93478112  0.98725899  0.99999921  1  0  -0.470005  0  1.420374  0  0  -0.398016  0  1.853742  0  0  -0.416172  0  1.814113  0  0  -0.265769  -0.384895  0  1.880704  0
Br  Br57  1  0.06523076  0.48725781  0.49999873  1  0  -0.470031  0  1.420372  0  0  -0.39804  0  1.853722  0  0  -0.4162  0  1.814092  0  0  -0.265771  -0.384911  0  1.880696  0
N  N58  1  0.44401326  0.79273735  0.09864022  1  0  -0.285838  0  3.143844  0  0  -0.246057  0  3.451905  0  0  -0.252135  0  3.455726  0  0  -0.270647  -0.242589  0  3.449231  0
N  N59  1  0.55599643  0.29273511  0.40135765  1  0  -0.286012  0  3.143825  0  0  -0.246265  0  3.451987  0  0  -0.25234  0  3.455807  0  0  -0.270776  -0.242806  0  3.449326  0
N  N60  1  0.44401179  0.79273647  0.90135628  1  0  -0.285962  0  3.143588  0  0  -0.246254  0  3.451801  0  0  -0.252328  0  3.455618  0  0  -0.270768  -0.242793  0  3.44914  0
N  N61  1  0.55599544  0.29273650  0.59864237  1  0  -0.285976  0  3.143648  0  0  -0.246193  0  3.451783  0  0  -0.252268  0  3.455603  0  0  -0.270728  -0.242731  0  3.449124  0
N  N62  1  0.58603787  0.70775833  0.07764487  1  0  -0.023223  0  3.54356  0  0  0.055888  0  3.771673  0  0  0.042723  0  3.798351  0  0  -0.164999  0.064417  0  3.753881  0
N  N63  1  0.41397323  0.20775664  0.42235367  1  0  -0.023036  0  3.543487  0  0  0.056114  0  3.771542  0  0  0.042946  0  3.798221  0  0  -0.164878  0.064642  0  3.753754  0
N  N64  1  0.58603671  0.70775744  0.92235376  1  0  -0.023169  0  3.543582  0  0  0.055988  0  3.771688  0  0  0.042822  0  3.798366  0  0  -0.164916  0.064511  0  3.753895  0
N  N65  1  0.41396714  0.20775804  0.57764751  1  0  -0.023167  0  3.543277  0  0  0.055969  0  3.771351  0  0  0.0428  0  3.79803  0  0  -0.164944  0.0645  0  3.753559  0
