# generated using pymatgen
data_CdH10C11N3O5
_symmetry_space_group_name_H-M   'P 1'
_cell_length_a   6.73822001
_cell_length_b   9.90303074
_cell_length_c   9.69197295
_cell_angle_alpha   85.08918305
_cell_angle_beta   73.99148607
_cell_angle_gamma   72.79229053
_symmetry_Int_Tables_number   1
_chemical_formula_structural   CdH10C11N3O5
_chemical_formula_sum   'Cd2 H20 C22 N6 O10'
_cell_volume   593.82205136
_cell_formula_units_Z   2
loop_
 _symmetry_equiv_pos_site_id
 _symmetry_equiv_pos_as_xyz
  1  'x, y, z'
loop_
 _atom_site_type_symbol
 _atom_site_label
 _atom_site_symmetry_multiplicity
 _atom_site_fract_x
 _atom_site_fract_y
 _atom_site_fract_z
 _atom_site_occupancy
 _atom_site_pbe_bader_spin_density
 _atom_site_pbe_cm5_charge
 _atom_site_pbe_ddec_charge
 _atom_site_pbe_ddec_spin_density
 _atom_site_pbe_ddec_sum_bond_order
 _atom_site_pbe_magmom
Cd  Cd0  1  0.03049449  0.29518761  0.42325703  1  0  0.775076  0.975011  0  2.043432  0
Cd  Cd1  1  0.96950426  0.70481119  0.57675009  1  0  0.775068  0.975018  0  2.043446  0
H  H2  1  0.70773431  0.19061570  0.31368757  1  0  0.303918  0.396479  0  0.910409  0
H  H3  1  0.29226876  0.80937995  0.68631776  1  0  0.303915  0.39645  0  0.910501  0
H  H4  1  0.93601180  0.07730931  0.73402172  1  0  0.137006  0.113834  0  0.996604  0
H  H5  1  0.06397577  0.92268585  0.26596761  1  0  0.137104  0.113988  0  0.996889  0
H  H6  1  0.89108456  0.85901000  0.91536464  1  0  0.102249  0.110927  0  0.998172  0
H  H7  1  0.10888605  0.14098014  0.08462285  1  0  0.102276  0.110919  0  0.998099  0
H  H8  1  0.54895653  0.80107105  0.43262513  1  0  0.102056  0.099522  0  1.046767  0
H  H9  1  0.45107671  0.19893899  0.56738027  1  0  0.10205  0.099487  0  1.046779  0
H  H10  1  0.97681442  0.62396587  0.03255328  1  0  0.100856  0.098305  0  1.040071  0
H  H11  1  0.02316198  0.37602585  0.96745239  1  0  0.100887  0.098372  0  1.040153  0
H  H12  1  0.37174865  0.39002502  0.04897726  1  0  0.126178  0.123831  0  0.977175  0
H  H13  1  0.62825575  0.60997710  0.95102103  1  0  0.126177  0.123847  0  0.977101  0
H  H14  1  0.31900136  0.52922354  0.92273074  1  0  0.121067  0.112173  0  0.984256  0
H  H15  1  0.68098557  0.47078484  0.07727732  1  0  0.121065  0.112113  0  0.98432  0
H  H16  1  0.63214189  0.06721046  0.05751495  1  0  0.098253  0.092402  0  1.082842  0
H  H17  1  0.36784223  0.93279313  0.94247554  1  0  0.098261  0.092424  0  1.082894  0
H  H18  1  0.62428162  0.50451376  0.66824475  1  0  0.147576  0.139265  0  0.985365  0
H  H19  1  0.37571962  0.49550503  0.33176120  1  0  0.147595  0.139253  0  0.985392  0
H  H20  1  0.79157125  0.08863494  0.43250790  1  0  0.288034  0.389647  0  0.950465  0
H  H21  1  0.20843535  0.91135962  0.56749669  1  0  0.288035  0.389655  0  0.950464  0
C  C22  1  0.83034817  0.18446568  0.75283927  1  0  0.153347  0.153573  0  3.963046  0
C  C23  1  0.16960556  0.81556008  0.24716170  1  0  0.153046  0.153262  0  3.962587  0
C  C24  1  0.81559709  0.84727036  0.02891235  1  0  -0.085929  -0.069305  0  3.956202  0
C  C25  1  0.18440360  0.15271812  0.97108584  1  0  -0.085875  -0.069016  0  3.955873  0
C  C26  1  0.39344573  0.06650307  0.33377077  1  0  0.200989  0.565967  0  4.19935  0
C  C27  1  0.60654098  0.93350953  0.66623701  1  0  0.201078  0.566035  0  4.199863  0
C  C28  1  0.62309470  0.81532947  0.31964919  1  0  -0.082442  -0.10546  0  3.957714  0
C  C29  1  0.37691831  0.18466085  0.68035425  1  0  -0.082461  -0.105581  0  3.957961  0
C  C30  1  0.86491760  0.71518642  0.09438165  1  0  -0.081592  -0.088621  0  3.966593  0
C  C31  1  0.13507312  0.28480607  0.90562889  1  0  -0.081685  -0.089005  0  3.966649  0
C  C32  1  0.77357366  0.69968758  0.24137854  1  0  -0.031204  -0.062561  0  4.022604  0
C  C33  1  0.22643365  0.30029565  0.75861646  1  0  -0.031124  -0.06237  0  4.022188  0
C  C34  1  0.56916220  0.94699741  0.25353282  1  0  -0.023291  -0.049039  0  3.992862  0
C  C35  1  0.43085436  0.05299089  0.74646582  1  0  -0.023313  -0.048855  0  3.993258  0
C  C36  1  0.84037453  0.56369735  0.31802581  1  0  0.18877  0.554531  0  4.243802  0
C  C37  1  0.15962994  0.43631307  0.68197696  1  0  0.188859  0.55476  0  4.243351  0
C  C38  1  0.44452196  0.45799006  0.96803531  1  0  -0.039995  -0.120282  0  3.868971  0
C  C39  1  0.55546830  0.54201408  0.03197233  1  0  -0.039905  -0.120169  0  3.869095  0
C  C40  1  0.67088249  0.96377377  0.10843829  1  0  -0.076694  -0.074127  0  3.924366  0
C  C41  1  0.32912217  0.03622223  0.89155216  1  0  -0.076719  -0.074282  0  3.924399  0
C  C42  1  0.67471237  0.40144459  0.71655278  1  0  0.163349  0.086236  0  3.877394  0
C  C43  1  0.32528131  0.59856494  0.28344845  1  0  0.163247  0.086083  0  3.877353  0
N  N44  1  0.69778196  0.22943638  0.87953328  1  0  -0.206166  -0.238195  0  3.11043  0
N  N45  1  0.30221485  0.77056933  0.12045098  1  0  -0.205926  -0.238014  0  3.109649  0
N  N46  1  0.60008556  0.36708111  0.85409632  1  0  -0.133102  0.173313  0  3.75379  0
N  N47  1  0.39992051  0.63292229  0.14589217  1  0  -0.133194  0.173235  0  3.753851  0
N  N48  1  0.82121594  0.28742067  0.64935416  1  0  -0.352821  -0.33777  0  3.525687  0
N  N49  1  0.17878701  0.71258786  0.35064085  1  0  -0.35274  -0.337537  0  3.525733  0
O  O50  1  0.38310321  0.19340384  0.28751175  1  0  -0.334172  -0.56961  0  2.170441  0
O  O51  1  0.61690437  0.80661431  0.71247519  1  0  -0.334274  -0.5697  0  2.170906  0
O  O52  1  0.25158650  0.04095623  0.44245415  1  0  -0.316216  -0.55469  0  2.223887  0
O  O53  1  0.74842786  0.95902353  0.55754983  1  0  -0.316301  -0.554781  0  2.223868  0
O  O54  1  0.83403526  0.15259721  0.35136794  1  0  -0.581929  -0.767973  0  2.052779  0
O  O55  1  0.16597212  0.84739527  0.64863560  1  0  -0.581921  -0.767929  0  2.052867  0
O  O56  1  0.79943314  0.56434383  0.45468155  1  0  -0.332556  -0.596441  0  2.286117  0
O  O57  1  0.20061153  0.43564746  0.54531132  1  0  -0.332622  -0.596572  0  2.285804  0
O  O58  1  0.94212219  0.45059616  0.24422335  1  0  -0.330613  -0.550971  0  2.193068  0
O  O59  1  0.05787038  0.54940362  0.75578927  1  0  -0.330608  -0.551063  0  2.193213  0
