# generated using pymatgen
data_CdH20C29N8O9
_symmetry_space_group_name_H-M   'P 1'
_cell_length_a   8.15775897
_cell_length_b   13.67715872
_cell_length_c   16.15626480
_cell_angle_alpha   85.15418158
_cell_angle_beta   84.82645301
_cell_angle_gamma   71.81490798
_symmetry_Int_Tables_number   1
_chemical_formula_structural   CdH20C29N8O9
_chemical_formula_sum   'Cd2 H40 C58 N16 O18'
_cell_volume   1702.59649371
_cell_formula_units_Z   2
loop_
 _symmetry_equiv_pos_site_id
 _symmetry_equiv_pos_as_xyz
  1  'x, y, z'
loop_
 _atom_site_type_symbol
 _atom_site_label
 _atom_site_symmetry_multiplicity
 _atom_site_fract_x
 _atom_site_fract_y
 _atom_site_fract_z
 _atom_site_occupancy
 _atom_site_pbe_bader_charge
 _atom_site_pbe_bader_spin_density
 _atom_site_pbe_cm5_charge
 _atom_site_pbe_ddec_charge
 _atom_site_pbe_ddec_spin_density
 _atom_site_pbe_ddec_sum_bond_order
 _atom_site_pbe_magmom
Cd  Cd0  1  0.93143091  0.20365091  0.80259006  1  1.256808  0  0.776856  0.858531  0  2.221252  0
Cd  Cd1  1  0.06856429  0.79634716  0.19740843  1  1.256854  0  0.776852  0.858531  0  2.221205  0
H  H2  1  0.96251416  0.16157325  0.97614024  1  0.648202  0  0.275059  0.373531  0  0.980002  0
H  H3  1  0.03748096  0.83842781  0.02386178  1  0.648234  0  0.275071  0.373558  0  0.979976  0
H  H4  1  0.11824570  0.06919646  0.93465858  1  0.636459  0  0.283374  0.378738  0  0.967897  0
H  H5  1  0.88174847  0.93080388  0.06534168  1  0.636435  0  0.283369  0.378697  0  0.967955  0
H  H6  1  0.65515373  0.90029542  0.96326011  1  0.122864  0  0.124944  0.150242  0  0.982655  0
H  H7  1  0.34485112  0.09970559  0.03673767  1  0.122913  0  0.12498  0.150209  0  0.982662  0
H  H8  1  0.97660127  0.69525035  0.78219116  1  0.12798  0  0.114451  0.130212  0  1.046896  0
H  H9  1  0.02337879  0.30474567  0.21780520  1  0.12713  0  0.114484  0.130297  0  1.046812  0
H  H10  1  0.73106059  0.57403200  0.99696482  1  0.062044  0  0.110517  0.123841  0  1.014279  0
H  H11  1  0.26892544  0.42597230  0.00303378  1  0.061995  0  0.11051  0.123818  0  1.014309  0
H  H12  1  0.82753741  0.00091601  0.91607126  1  0.197706  0  0.134199  0.111589  0  1.038854  0
H  H13  1  0.17247391  0.99908184  0.08392698  1  0.197682  0  0.134225  0.111609  0  1.038787  0
H  H14  1  0.98335366  0.01670497  0.65970882  1  0.177269  0  0.121431  0.124257  0  1.014511  0
H  H15  1  0.01663586  0.98329469  0.34029051  1  0.177234  0  0.121421  0.124256  0  1.014433  0
H  H16  1  0.92233545  0.83085824  0.69795707  1  0.14212  0  0.122626  0.121456  0  1.030296  0
H  H17  1  0.07765262  0.16914449  0.30204276  1  0.142144  0  0.122657  0.121485  0  1.030227  0
H  H18  1  0.73526771  0.45142173  0.89341201  1  0.130015  0  0.133941  0.095441  0  1.005722  0
H  H19  1  0.26471394  0.54858352  0.10658058  1  0.129595  0  0.133897  0.095396  0  1.005894  0
H  H20  1  0.21222371  0.33820286  0.75597126  1  0.144878  0  0.12252  0.120702  0  1.018535  0
H  H21  1  0.78776910  0.66178989  0.24402709  1  0.145003  0  0.122573  0.12069  0  1.018541  0
H  H22  1  0.17029264  0.53973410  0.79267853  1  0.157706  0  0.123429  0.131164  0  1.026826  0
H  H23  1  0.82970072  0.46026014  0.20732092  1  0.157855  0  0.123403  0.131113  0  1.026863  0
H  H24  1  0.37524689  0.69132766  0.03444003  1  0.159988  0  0.131239  0.101899  0  1.02243  0
H  H25  1  0.62475517  0.30867178  0.96556172  1  0.160301  0  0.131245  0.101919  0  1.02249  0
H  H26  1  0.44091017  0.82918568  0.24795879  1  0.12268  0  0.122954  0.123436  0  0.991534  0
H  H27  1  0.55909189  0.17081376  0.75204295  1  0.122707  0  0.122933  0.123417  0  0.991619  0
H  H28  1  0.70731640  0.83281424  0.12769113  1  0.181699  0  0.126153  0.142072  0  1.046038  0
H  H29  1  0.29267783  0.16719374  0.87230988  1  0.18185  0  0.12613  0.142059  0  1.0461  0
H  H30  1  0.01470219  0.27254229  0.50244499  1  0.154135  0  0.116453  0.123996  0  0.976913  0
H  H31  1  0.98529645  0.72745115  0.49755299  1  0.154067  0  0.116556  0.124107  0  0.977079  0
H  H32  1  0.19126816  0.26733901  0.36777304  1  0.050375  0  0.104074  0.105483  0  1.001266  0
H  H33  1  0.80873595  0.73264822  0.63222565  1  0.050478  0  0.104124  0.105555  0  1.001229  0
H  H34  1  0.47422554  0.10942284  0.62593687  1  0.084336  0  0.112018  0.116806  0  1.037561  0
H  H35  1  0.52578144  0.89058186  0.37406613  1  0.084491  0  0.112017  0.11684  0  1.037567  0
H  H36  1  0.42997277  0.04575922  0.31722551  1  0.086107  0  0.104362  0.10927  0  1.034204  0
H  H37  1  0.57002031  0.95425108  0.68277480  1  0.086246  0  0.104393  0.109295  0  1.03419  0
H  H38  1  0.56672256  0.01706872  0.17309902  1  0.09846  0  0.108354  0.10807  0  1.007965  0
H  H39  1  0.43328144  0.98293449  0.82690423  1  0.098429  0  0.108323  0.108  0  1.00802  0
H  H40  1  0.76469784  0.27054232  0.18536500  1  0.119008  0  0.106272  0.110724  0  1.043986  0
H  H41  1  0.23529746  0.72946274  0.81462747  1  0.119093  0  0.106269  0.110675  0  1.044013  0
C  C42  1  0.71470518  0.82339532  0.94114814  1  0.086391  0  -0.07264  -0.2274  0  3.890474  0
C  C43  1  0.28529487  0.17660804  0.05885037  1  0.08638  0  -0.072608  -0.227241  0  3.890476  0
C  C44  1  0.82245055  0.80673909  0.86808106  1  0.330223  0  0.113654  0.224027  0  4.009673  0
C  C45  1  0.17754603  0.19326124  0.13191783  1  0.330057  0  0.113635  0.223867  0  4.009774  0
C  C46  1  0.89209140  0.70790122  0.83896262  1  0.039759  0  -0.089057  -0.259543  0  3.913029  0
C  C47  1  0.10789974  0.29209765  0.16103666  1  0.040606  0  -0.089054  -0.259513  0  3.912805  0
C  C48  1  0.85589617  0.62484750  0.88433959  1  0.298938  0  0.100421  0.208247  0  4.040343  0
C  C49  1  0.14409621  0.37515370  0.11565700  1  0.299266  0  0.100387  0.208137  0  4.040265  0
C  C50  1  0.75142330  0.63907967  0.95852746  1  -0.018763  0  -0.096075  -0.277047  0  3.958935  0
C  C51  1  0.24857041  0.36092148  0.04147092  1  -0.018693  0  -0.096121  -0.27702  0  3.958821  0
C  C52  1  0.68106190  0.73896321  0.98542171  1  0.375489  0  0.10787  0.219421  0  4.006958  0
C  C53  1  0.31893760  0.26103630  0.01457831  1  0.375389  0  0.10779  0.219269  0  4.007054  0
C  C54  1  0.86130511  0.98086136  0.85152824  1  0.952651  0  0.143104  0.101621  0  3.87972  0
C  C55  1  0.13869114  0.01914208  0.14846861  1  0.952178  0  0.142963  0.101466  0  3.87966  0
C  C56  1  0.94316759  0.98552533  0.71913406  1  0.441816  0  0.005794  -0.0064  0  3.966848  0
C  C57  1  0.05682597  0.01447354  0.28086386  1  0.441862  0  0.005745  -0.006435  0  3.966816  0
C  C58  1  0.91345874  0.89275292  0.73715161  1  0.236145  0  0.001849  -0.093479  0  3.898337  0
C  C59  1  0.08653438  0.10724440  0.26284766  1  0.236183  0  0.001849  -0.093451  0  3.8982  0
C  C60  1  0.86131886  0.44529963  0.86250068  1  0.956937  0  0.140853  0.094106  0  3.919141  0
C  C61  1  0.13867179  0.55470241  0.13749348  1  0.957322  0  0.141028  0.094339  0  3.918828  0
C  C62  1  0.10716207  0.39186992  0.79038704  1  0.44682  0  0.005702  -0.011446  0  3.98199  0
C  C63  1  0.89283353  0.60812439  0.20960734  1  0.446793  0  0.005686  -0.011315  0  3.982148  0
C  C64  1  0.08903511  0.49077865  0.80878374  1  0.241921  0  0.000351  -0.101313  0  3.891565  0
C  C65  1  0.91096086  0.50922021  0.19121281  1  0.24189  0  0.000395  -0.101288  0  3.891552  0
C  C66  1  0.43138221  0.72325976  0.07972267  1  0.946585  0  0.133216  0.089241  0  3.93914  0
C  C67  1  0.56862084  0.27674273  0.92027883  1  0.945727  0  0.133223  0.089261  0  3.93913  0
C  C68  1  0.46615561  0.80056657  0.18610728  1  0.358455  0  -0.000745  -0.025499  0  4.001979  0
C  C69  1  0.53384307  0.19943216  0.81389408  1  0.358671  0  -0.000697  -0.025392  0  4.002008  0
C  C70  1  0.59707574  0.80472962  0.12788945  1  0.319824  0  0.006427  -0.089106  0  3.882116  0
C  C71  1  0.40292155  0.19527450  0.87211102  1  0.319509  0  0.006434  -0.089132  0  3.882095  0
C  C72  1  0.13147693  0.19402879  0.65544392  1  1.536751  0  0.187184  0.551722  0  4.240956  0
C  C73  1  0.86853484  0.80596591  0.34455883  1  1.536775  0  0.187273  0.551958  0  4.241049  0
C  C74  1  0.23351376  0.19129175  0.57309756  1  0.027945  0  -0.009496  -0.01021  0  3.951544  0
C  C75  1  0.76648784  0.80870850  0.42690230  1  0.027946  0  -0.009492  -0.010221  0  3.95143  0
C  C76  1  0.15418084  0.23554703  0.49971376  1  0.016009  0  -0.056872  -0.041742  0  3.897501  0
C  C77  1  0.84582654  0.76444392  0.50028824  1  0.016354  0  -0.057005  -0.041893  0  3.897695  0
C  C78  1  0.25316741  0.23188211  0.42456508  1  0.028078  0  -0.07874  -0.113916  0  3.946348  0
C  C79  1  0.74683951  0.76811495  0.57543717  1  0.027474  0  -0.078822  -0.114088  0  3.946429  0
C  C80  1  0.43262291  0.18385967  0.41911852  1  -0.040962  0  0.013139  0.049469  0  3.977694  0
C  C81  1  0.56738188  0.81614434  0.58088278  1  -0.040943  0  0.013248  0.049698  0  3.977706  0
C  C82  1  0.50868087  0.13911291  0.49351795  1  0.209972  0  0.077652  0.019584  0  3.913782  0
C  C83  1  0.49132895  0.86088865  0.50648757  1  0.209948  0  0.077638  0.019603  0  3.913739  0
C  C84  1  0.41151677  0.14344487  0.56929482  1  0.011036  0  -0.071633  -0.129698  0  3.953828  0
C  C85  1  0.58849297  0.85655907  0.43070621  1  0.011005  0  -0.071641  -0.129785  0  3.95382  0
C  C86  1  0.52272562  0.17228459  0.33448111  1  0.031013  0  0.010837  0.04813  0  3.969348  0
C  C87  1  0.47727200  0.82772174  0.66552353  1  0.030978  0  0.010793  0.047989  0  3.969561  0
C  C88  1  0.50430472  0.09472323  0.28810362  1  0.017217  0  -0.083511  -0.123913  0  3.935608  0
C  C89  1  0.49570343  0.90527914  0.71190070  1  0.017011  0  -0.083447  -0.123781  0  3.935714  0
C  C90  1  0.57923696  0.07936233  0.20730819  1  -0.046034  0  -0.066142  -0.042087  0  3.921857  0
C  C91  1  0.42077438  0.92063614  0.79269806  1  -0.046168  0  -0.066187  -0.042185  0  3.922042  0
C  C92  1  0.67145934  0.14353211  0.16915632  1  0.071433  0  -0.018584  -0.033697  0  3.961294  0
C  C93  1  0.32854117  0.85647043  0.83084407  1  0.071521  0  -0.018614  -0.033704  0  3.961455  0
C  C94  1  0.69163794  0.22106471  0.21439572  1  -0.030694  0  -0.078853  -0.136194  0  3.982353  0
C  C95  1  0.30836917  0.77893698  0.78560498  1  -0.03174  0  -0.078779  -0.135989  0  3.982272  0
C  C96  1  0.62004025  0.23425328  0.29570992  1  0.173633  0  0.075873  0.015736  0  3.934406  0
C  C97  1  0.37997378  0.76574444  0.70429313  1  0.174713  0  0.075838  0.015657  0  3.934732  0
C  C98  1  0.75450893  0.12893796  0.08162475  1  1.600624  0  0.198012  0.562963  0  4.251005  0
C  C99  1  0.24549954  0.87105835  0.91837622  1  1.600369  0  0.197987  0.562873  0  4.250961  0
N  N100  1  0.91129076  0.03886416  0.79073411  1  -1.228707  0  -0.350822  -0.293472  0  3.517936  0
N  N101  1  0.08870091  0.96113857  0.20926304  1  -1.228255  0  -0.350705  -0.293422  0  3.517798  0
N  N102  1  0.86063818  0.89010544  0.82151096  1  -1.262615  0  -0.225263  -0.002832  0  3.776526  0
N  N103  1  0.13935725  0.10989488  0.17848986  1  -1.262609  0  -0.225213  -0.002694  0  3.776402  0
N  N104  1  0.96454613  0.36459539  0.82409291  1  -1.197667  0  -0.342277  -0.273017  0  3.487109  0
N  N105  1  0.03543350  0.63540674  0.17590432  1  -1.197576  0  -0.342361  -0.273194  0  3.486992  0
N  N106  1  0.93178113  0.52461010  0.85499521  1  -1.243459  0  -0.226083  0.004645  0  3.791491  0
N  N107  1  0.06821261  0.47538572  0.14500165  1  -1.243842  0  -0.226121  0.004624  0  3.791525  0
N  N108  1  0.36269246  0.75071229  0.15515310  1  -1.19988  0  -0.360205  -0.310538  0  3.510235  0
N  N109  1  0.63731192  0.24928483  0.84484804  1  -1.199409  0  -0.360221  -0.31061  0  3.51018  0
N  N110  1  0.57433192  0.75461960  0.06067902  1  -1.268677  0  -0.227848  0.000799  0  3.787424  0
N  N111  1  0.42567112  0.24538289  0.93932248  1  -1.268682  0  -0.227826  0.000824  0  3.787344  0
N  N112  1  0.69467473  0.08504876  0.49453627  1  0.369473  0  0.060343  0.525846  0  4.188662  0
N  N113  1  0.30533212  0.91495365  0.50546688  1  0.369251  0  0.060322  0.525784  0  4.188734  0
N  N114  1  0.65603976  0.31220576  0.34179356  1  0.369808  0  0.058674  0.526121  0  4.199483  0
N  N115  1  0.34396895  0.68779514  0.65820710  1  0.369058  0  0.058576  0.526119  0  4.19956  0
O  O116  1  0.96679815  0.22708807  0.65626526  1  -1.121925  0  -0.34196  -0.551208  0  2.124207  0
O  O117  1  0.03320819  0.77290220  0.34373312  1  -1.122143  0  -0.342028  -0.551307  0  2.124517  0
O  O118  1  0.21453901  0.16336918  0.72079037  1  -1.173324  0  -0.334942  -0.563946  0  2.164531  0
O  O119  1  0.78546165  0.83663331  0.27921311  1  -1.17314  0  -0.334981  -0.564067  0  2.164435  0
O  O120  1  0.74875911  0.05174966  0.04473016  1  -1.202438  0  -0.337213  -0.584067  0  2.181638  0
O  O121  1  0.25124917  0.94824969  0.95527187  1  -1.202303  0  -0.337162  -0.583982  0  2.181373  0
O  O122  1  0.82504599  0.19658111  0.05176355  1  -1.189775  0  -0.333116  -0.5734  0  2.203181  0
O  O123  1  0.17496164  0.80341443  0.94823813  1  -1.189794  0  -0.333125  -0.573401  0  2.203216  0
O  O124  1  0.74498747  0.02109259  0.55335154  1  -0.461873  0  -0.125009  -0.341858  0  1.977561  0
O  O125  1  0.25502146  0.97890526  0.44664869  1  -0.461763  0  -0.125011  -0.341863  0  1.977626  0
O  O126  1  0.79169268  0.10603340  0.43675492  1  -0.463806  0  -0.123003  -0.330829  0  1.966012  0
O  O127  1  0.20831308  0.89397662  0.56325090  1  -0.463534  0  -0.123007  -0.330786  0  1.966087  0
O  O128  1  0.56346430  0.34298525  0.40504238  1  -0.424429  0  -0.115397  -0.307307  0  1.912731  0
O  O129  1  0.43657714  0.65699970  0.59496865  1  -0.42372  0  -0.115344  -0.307278  0  1.912721  0
O  O130  1  0.78112159  0.34304541  0.31480232  1  -0.506524  0  -0.154085  -0.377303  0  1.955418  0
O  O131  1  0.21887098  0.65697042  0.68518962  1  -0.506336  0  -0.154043  -0.377303  0  1.955343  0
O  O132  1  0.05346362  0.14401075  0.92765151  1  -1.274272  0  -0.596612  -0.770662  0  2.133652  0
O  O133  1  0.94652767  0.85599041  0.07234824  1  -1.274289  0  -0.596624  -0.770666  0  2.133736  0
