# generated using pymatgen
data_Na2H8C6S2O11
_symmetry_space_group_name_H-M   'P 1'
_cell_length_a   7.00278928
_cell_length_b   9.22568039
_cell_length_c   10.47598310
_cell_angle_alpha   68.46482091
_cell_angle_beta   76.89291199
_cell_angle_gamma   67.81455148
_symmetry_Int_Tables_number   1
_chemical_formula_structural   Na2H8C6S2O11
_chemical_formula_sum   'Na4 H16 C12 S4 O22'
_cell_volume   579.88949834
_cell_formula_units_Z   2
loop_
 _symmetry_equiv_pos_site_id
 _symmetry_equiv_pos_as_xyz
  1  'x, y, z'
loop_
 _atom_site_type_symbol
 _atom_site_label
 _atom_site_symmetry_multiplicity
 _atom_site_fract_x
 _atom_site_fract_y
 _atom_site_fract_z
 _atom_site_occupancy
 _atom_site_hle17_bader_spin_density
 _atom_site_hle17_ddec_charge
 _atom_site_hle17_ddec_spin_density
 _atom_site_hle17_ddec_sum_bond_order
 _atom_site_hle17_magmom
 _atom_site_hse06_10hf_bader_spin_density
 _atom_site_hse06_10hf_ddec_charge
 _atom_site_hse06_10hf_ddec_spin_density
 _atom_site_hse06_10hf_ddec_sum_bond_order
 _atom_site_hse06_10hf_magmom
 _atom_site_hse06_bader_spin_density
 _atom_site_hse06_ddec_charge
 _atom_site_hse06_ddec_spin_density
 _atom_site_hse06_ddec_sum_bond_order
 _atom_site_hse06_magmom
 _atom_site_pbe_bader_spin_density
 _atom_site_pbe_cm5_charge
 _atom_site_pbe_ddec_charge
 _atom_site_pbe_ddec_spin_density
 _atom_site_pbe_ddec_sum_bond_order
 _atom_site_pbe_magmom
Na  Na0  1  0.78259109  0.04840557  0.32677035  1  0  0.905083  0  0.413994  0  0  0.870285  0  0.564297  0  0  0.878091  0  0.544954  0  0  0.732076  0.864379  0  0.578437  0
Na  Na1  1  0.21740664  0.95159375  0.67323115  1  0  0.905091  0  0.413975  0  0  0.870305  0  0.56428  0  0  0.878102  0  0.544931  0  0  0.732087  0.864396  0  0.578413  0
Na  Na2  1  0.60429392  0.77853181  0.23284550  1  0  0.918983  0  0.333474  0  0  0.878757  0  0.474817  0  0  0.888295  0  0.45495  0  0  0.669726  0.871656  0  0.489285  0
Na  Na3  1  0.39570919  0.22146871  0.76715382  1  0  0.918973  0  0.333475  0  0  0.878739  0  0.474835  0  0  0.888275  0  0.454967  0  0  0.669727  0.871648  0  0.489301  0
H  H4  1  0.14000989  0.43825860  0.34157392  1  0  0.091682  0  0.996205  0  0  0.102783  0  1.059517  0  0  0.106442  0  1.055565  0  0  0.111646  0.100208  0  1.062344  0
H  H5  1  0.85999078  0.56174070  0.65842713  1  0  0.091689  0  0.996191  0  0  0.102783  0  1.059518  0  0  0.106443  0  1.055563  0  0  0.111636  0.100212  0  1.062345  0
H  H6  1  0.23822344  0.10367847  0.07801812  1  0  0.410176  0  0.833473  0  0  0.383491  0  0.90714  0  0  0.393625  0  0.895019  0  0  0.327433  0.375411  0  0.917107  0
H  H7  1  0.76177429  0.89632086  0.92198241  1  0  0.410185  0  0.833575  0  0  0.383531  0  0.907178  0  0  0.393663  0  0.895056  0  0  0.327457  0.375454  0  0.917135  0
H  H8  1  0.28501895  0.58323375  0.74738185  1  0  0.406974  0  0.875377  0  0  0.381739  0  0.943878  0  0  0.392197  0  0.932521  0  0  0.308808  0.374323  0  0.951919  0
H  H9  1  0.71498318  0.41676555  0.25261801  1  0  0.407068  0  0.875219  0  0  0.381807  0  0.943783  0  0  0.39227  0  0.93241  0  0  0.30881  0.374389  0  0.951822  0
H  H10  1  0.25997528  0.81929987  0.95004702  1  0  0.393927  0  0.870477  0  0  0.369283  0  0.940117  0  0  0.379812  0  0.928474  0  0  0.316248  0.361725  0  0.948334  0
H  H11  1  0.74002783  0.18069698  0.04995253  1  0  0.393911  0  0.87045  0  0  0.36928  0  0.94007  0  0  0.379813  0  0.928424  0  0  0.316234  0.361723  0  0.948287  0
H  H12  1  0.58402364  0.30474325  0.46014127  1  0  0.426593  0  0.875904  0  0  0.398382  0  0.934798  0  0  0.408969  0  0.919412  0  0  0.296104  0.390892  0  0.94568  0
H  H13  1  0.41597456  0.69525854  0.53985745  1  0  0.426551  0  0.875981  0  0  0.398355  0  0.93485  0  0  0.408941  0  0.919466  0  0  0.296101  0.390868  0  0.945727  0
H  H14  1  0.82698730  0.24789609  0.46280355  1  0  0.442197  0  0.824021  0  0  0.411927  0  0.899453  0  0  0.420979  0  0.886063  0  0  0.313918  0.405381  0  0.909178  0
H  H15  1  0.17301234  0.75210570  0.53719208  1  0  0.442261  0  0.823939  0  0  0.41199  0  0.899366  0  0  0.421044  0  0.88597  0  0  0.313941  0.405445  0  0.909089  0
H  H16  1  0.71307951  0.52297546  0.53211760  1  0  0.4359  0  0.852859  0  0  0.409802  0  0.909116  0  0  0.418646  0  0.896114  0  0  0.304571  0.403326  0  0.918712  0
H  H17  1  0.28692559  0.47702381  0.46788373  1  0  0.43603  0  0.852637  0  0  0.409864  0  0.909042  0  0  0.418713  0  0.896027  0  0  0.304607  0.403375  0  0.918652  0
H  H18  1  0.72368453  0.70376764  0.49165088  1  0  0.427345  0  0.864198  0  0  0.398096  0  0.929534  0  0  0.407206  0  0.916  0  0  0.305418  0.391446  0  0.93944  0
H  H19  1  0.27631661  0.29623412  0.50834835  1  0  0.427373  0  0.864124  0  0  0.398086  0  0.929512  0  0  0.407195  0  0.915979  0  0  0.305437  0.391443  0  0.939404  0
C  C20  1  0.18940200  0.59387548  0.13648289  1  0  -0.260243  0  3.788161  0  0  -0.243752  0  4.054065  0  0  -0.254077  0  4.072719  0  0  -0.045088  -0.237198  0  4.041705  0
C  C21  1  0.81059915  0.40612260  0.86351656  1  0  -0.260297  0  3.788254  0  0  -0.243755  0  4.054078  0  0  -0.254085  0  4.072736  0  0  -0.045069  -0.237208  0  4.041739  0
C  C22  1  0.18048341  0.44621908  0.23377983  1  0  -0.036518  0  3.84556  0  0  -0.085547  0  4.114893  0  0  -0.077667  0  4.129044  0  0  -0.093382  -0.089946  0  4.104766  0
C  C23  1  0.81952068  0.55377898  0.76622012  1  0  -0.036524  0  3.845505  0  0  -0.085559  0  4.114817  0  0  -0.077677  0  4.128973  0  0  -0.093388  -0.089956  0  4.104695  0
C  C24  1  0.22087767  0.30846568  0.19478313  1  0  -0.267957  0  3.805324  0  0  -0.250624  0  4.071906  0  0  -0.261187  0  4.090375  0  0  -0.04705  -0.243294  0  4.05883  0
C  C25  1  0.77912153  0.69153363  0.80521814  1  0  -0.267903  0  3.805205  0  0  -0.250593  0  4.071818  0  0  -0.261163  0  4.090276  0  0  -0.047009  -0.243266  0  4.058743  0
C  C26  1  0.25354091  0.32109108  0.05421422  1  0  0.263602  0  3.779732  0  0  0.237211  0  4.053601  0  0  0.250479  0  4.067364  0  0  0.084688  0.227852  0  4.044502  0
C  C27  1  0.74645583  0.67890703  0.94578590  1  0  0.263606  0  3.779688  0  0  0.237261  0  4.053547  0  0  0.250528  0  4.06731  0  0  0.084667  0.227901  0  4.044453  0
C  C28  1  0.26303262  0.47100400  0.95361244  1  0  0.122814  0  3.769098  0  0  0.110623  0  4.040918  0  0  0.111508  0  4.059684  0  0  0.065839  0.109318  0  4.029024  0
C  C29  1  0.73696364  0.52899534  0.04638832  1  0  0.122821  0  3.769101  0  0  0.110583  0  4.040963  0  0  0.111469  0  4.059733  0  0  0.065843  0.10928  0  4.029068  0
C  C30  1  0.23736953  0.60698341  0.99538241  1  0  0.251303  0  3.800941  0  0  0.22911  0  4.071102  0  0  0.241527  0  4.086559  0  0  0.083502  0.22026  0  4.061211  0
C  C31  1  0.76263115  0.39301589  0.00461959  1  0  0.251324  0  3.800972  0  0  0.229143  0  4.071117  0  0  0.241561  0  4.086576  0  0  0.083507  0.22029  0  4.061235  0
S  S32  1  0.14677937  0.75775941  0.20038435  1  0  1.351108  0  5.608021  0  0  1.255904  0  6.126075  0  0  1.303169  0  6.101294  0  0  0.515272  1.222846  0  6.142944  0
S  S33  1  0.85321837  0.24224359  0.79961787  1  0  1.351036  0  5.608027  0  0  1.255853  0  6.126045  0  0  1.303126  0  6.101262  0  0  0.515258  1.222785  0  6.142933  0
S  S34  1  0.24982875  0.11749643  0.32466566  1  0  1.351204  0  5.681957  0  0  1.262131  0  6.192365  0  0  1.309101  0  6.167005  0  0  0.513937  1.230079  0  6.208548  0
S  S35  1  0.75017093  0.88250534  0.67533474  1  0  1.351172  0  5.681854  0  0  1.262103  0  6.192276  0  0  1.309085  0  6.166892  0  0  0.513938  1.230066  0  6.208442  0
O  O36  1  0.28063245  0.19467229  0.00709067  1  0  -0.529326  0  2.159765  0  0  -0.485434  0  2.394752  0  0  -0.500313  0  2.381671  0  0  -0.38393  -0.474688  0  2.404807  0
O  O37  1  0.71936475  0.80533196  0.99290645  1  0  -0.529388  0  2.159814  0  0  -0.485509  0  2.394743  0  0  -0.500411  0  2.381717  0  0  -0.383976  -0.474756  0  2.404769  0
O  O38  1  0.30337851  0.47232466  0.82030852  1  0  -0.545399  0  2.194108  0  0  -0.500029  0  2.42757  0  0  -0.517576  0  2.420174  0  0  -0.401468  -0.487409  0  2.432847  0
O  O39  1  0.69661971  0.52767343  0.17969329  1  0  -0.545442  0  2.193971  0  0  -0.500058  0  2.427429  0  0  -0.517606  0  2.42003  0  0  -0.401457  -0.487436  0  2.432699  0
O  O40  1  0.25870843  0.74727977  0.89797154  1  0  -0.530692  0  2.142866  0  0  -0.487109  0  2.372417  0  0  -0.503461  0  2.362593  0  0  -0.389873  -0.475272  0  2.37916  0
O  O41  1  0.74129764  0.25271705  0.10202947  1  0  -0.530702  0  2.142878  0  0  -0.487114  0  2.372412  0  0  -0.503474  0  2.362592  0  0  -0.38985  -0.475282  0  2.379163  0
O  O42  1  0.92177425  0.84089234  0.21679018  1  0  -0.730826  0  1.94282  0  0  -0.690162  0  2.209028  0  0  -0.708742  0  2.192209  0  0  -0.434555  -0.676873  0  2.220872  0
O  O43  1  0.07822546  0.15910942  0.78321214  1  0  -0.730839  0  1.942795  0  0  -0.690185  0  2.209015  0  0  -0.708762  0  2.192186  0  0  -0.434546  -0.676885  0  2.220857  0
O  O44  1  0.23914127  0.68218628  0.33231397  1  0  -0.700657  0  1.96793  0  0  -0.647903  0  2.21736  0  0  -0.668312  0  2.202145  0  0  -0.339968  -0.633667  0  2.228231  0
O  O45  1  0.76085984  0.31781550  0.66768144  1  0  -0.700582  0  1.967791  0  0  -0.647858  0  2.217191  0  0  -0.668263  0  2.201967  0  0  -0.339938  -0.633621  0  2.228073  0
O  O46  1  0.25749600  0.86486588  0.09292336  1  0  -0.691669  0  1.963342  0  0  -0.636386  0  2.205291  0  0  -0.655638  0  2.188963  0  0  -0.333693  -0.621947  0  2.216703  0
O  O47  1  0.74249972  0.13513471  0.90707327  1  0  -0.691558  0  1.963294  0  0  -0.636349  0  2.205311  0  0  -0.655611  0  2.188989  0  0  -0.333713  -0.621903  0  2.216723  0
O  O48  1  0.18441334  0.15631815  0.45611080  1  0  -0.72139  0  1.979254  0  0  -0.665667  0  2.227687  0  0  -0.68466  0  2.210086  0  0  -0.383981  -0.652697  0  2.23994  0
O  O49  1  0.81558732  0.84368116  0.54388929  1  0  -0.721361  0  1.979167  0  0  -0.665642  0  2.22762  0  0  -0.684641  0  2.210015  0  0  -0.383965  -0.652681  0  2.239876  0
O  O50  1  0.47103726  0.01839819  0.31149940  1  0  -0.754881  0  1.937056  0  0  -0.712662  0  2.199676  0  0  -0.730608  0  2.181485  0  0  -0.447824  -0.699633  0  2.211514  0
O  O51  1  0.52896094  0.98159992  0.68849955  1  0  -0.754875  0  1.937048  0  0  -0.712663  0  2.199676  0  0  -0.730608  0  2.181476  0  0  -0.447817  -0.699637  0  2.21151  0
O  O52  1  0.11871463  0.04294683  0.29756162  1  0  -0.71941  0  2.040051  0  0  -0.681918  0  2.313908  0  0  -0.70093  0  2.297649  0  0  -0.404087  -0.668652  0  2.325389  0
O  O53  1  0.88127822  0.95705374  0.70244213  1  0  -0.719426  0  2.040121  0  0  -0.681933  0  2.313966  0  0  -0.70094  0  2.297694  0  0  -0.40412  -0.668669  0  2.325438  0
O  O54  1  0.72049204  0.27219454  0.40450132  1  0  -0.862195  0  1.842707  0  0  -0.81421  0  2.026863  0  0  -0.831481  0  1.995839  0  0  -0.62744  -0.801901  0  2.048666  0
O  O55  1  0.27951744  0.72780471  0.59549743  1  0  -0.862166  0  1.842735  0  0  -0.814182  0  2.026817  0  0  -0.831456  0  1.995815  0  0  -0.627443  -0.801879  0  2.048615  0
O  O56  1  0.66339875  0.63648419  0.46871140  1  0  -0.847817  0  1.825967  0  0  -0.798197  0  1.987681  0  0  -0.815456  0  1.958428  0  0  -0.616885  -0.785999  0  2.008912  0
O  O57  1  0.33660682  0.36352123  0.53128788  1  0  -0.847938  0  1.825681  0  0  -0.798209  0  1.987612  0  0  -0.815472  0  1.958357  0  0  -0.616921  -0.78602  0  2.008906  0
