# generated using pymatgen
data_CdH3C2BrN4
_symmetry_space_group_name_H-M   'P 1'
_cell_length_a   6.49974051
_cell_length_b   7.99283864
_cell_length_c   10.48603779
_cell_angle_alpha   90.00017845
_cell_angle_beta   90.00007254
_cell_angle_gamma   90.00030503
_symmetry_Int_Tables_number   1
_chemical_formula_structural   CdH3C2BrN4
_chemical_formula_sum   'Cd4 H12 C8 Br4 N16'
_cell_volume   544.76410293
_cell_formula_units_Z   4
loop_
 _symmetry_equiv_pos_site_id
 _symmetry_equiv_pos_as_xyz
  1  'x, y, z'
loop_
 _atom_site_type_symbol
 _atom_site_label
 _atom_site_symmetry_multiplicity
 _atom_site_fract_x
 _atom_site_fract_y
 _atom_site_fract_z
 _atom_site_occupancy
 _atom_site_hle17_bader_spin_density
 _atom_site_hle17_ddec_charge
 _atom_site_hle17_ddec_spin_density
 _atom_site_hle17_ddec_sum_bond_order
 _atom_site_hle17_magmom
 _atom_site_hse06_10hf_bader_spin_density
 _atom_site_hse06_10hf_ddec_charge
 _atom_site_hse06_10hf_ddec_spin_density
 _atom_site_hse06_10hf_ddec_sum_bond_order
 _atom_site_hse06_10hf_magmom
 _atom_site_hse06_bader_spin_density
 _atom_site_hse06_ddec_charge
 _atom_site_hse06_ddec_spin_density
 _atom_site_hse06_ddec_sum_bond_order
 _atom_site_hse06_magmom
 _atom_site_pbe_bader_spin_density
 _atom_site_pbe_cm5_charge
 _atom_site_pbe_ddec_charge
 _atom_site_pbe_ddec_spin_density
 _atom_site_pbe_ddec_sum_bond_order
 _atom_site_pbe_magmom
Cd  Cd0  1  0.99335043  0.68871395  0.75616859  1  0  0.930015  0  1.91963  0  0  0.744722  0  2.372871  0  0  0.79209  0  2.334944  0  0  0.674495  0.710915  0  2.398814  0
Cd  Cd1  1  0.50665230  0.31128777  0.25616881  1  0  0.929975  0  1.919661  0  0  0.744677  0  2.372932  0  0  0.792044  0  2.335006  0  0  0.674488  0.71087  0  2.398879  0
Cd  Cd2  1  0.00664937  0.18871172  0.74383314  1  0  0.92999  0  1.919708  0  0  0.744698  0  2.372962  0  0  0.792068  0  2.335033  0  0  0.67447  0.710892  0  2.398903  0
Cd  Cd3  1  0.49335187  0.81128780  0.24383395  1  0  0.929983  0  1.919704  0  0  0.744696  0  2.37295  0  0  0.792064  0  2.335021  0  0  0.67447  0.710889  0  2.398894  0
H  H4  1  0.76360238  0.80391504  0.00924400  1  0  0.302475  0  0.915351  0  0  0.287266  0  0.983574  0  0  0.293852  0  0.978269  0  0  0.278087  0.282622  0  0.987248  0
H  H5  1  0.73639367  0.19608690  0.50924243  1  0  0.302474  0  0.915336  0  0  0.287268  0  0.983556  0  0  0.293857  0  0.97825  0  0  0.278082  0.282626  0  0.987229  0
H  H6  1  0.23639097  0.30391982  0.49075397  1  0  0.302523  0  0.915278  0  0  0.287264  0  0.983568  0  0  0.293852  0  0.978263  0  0  0.278092  0.282623  0  0.987236  0
H  H7  1  0.26360619  0.69607821  0.99075264  1  0  0.302524  0  0.915303  0  0  0.287265  0  0.983592  0  0  0.293852  0  0.978287  0  0  0.278089  0.282622  0  0.987264  0
H  H8  1  0.86905107  0.72063849  0.13993106  1  0  0.311175  0  0.905859  0  0  0.295157  0  0.974756  0  0  0.302197  0  0.968946  0  0  0.276479  0.290052  0  0.979144  0
H  H9  1  0.63094526  0.27936149  0.63993150  1  0  0.311166  0  0.905853  0  0  0.295149  0  0.974755  0  0  0.30219  0  0.968945  0  0  0.276464  0.290039  0  0.979156  0
H  H10  1  0.13094480  0.22064103  0.36006577  1  0  0.311098  0  0.905911  0  0  0.295089  0  0.974802  0  0  0.302128  0  0.968994  0  0  0.276462  0.289976  0  0.979212  0
H  H11  1  0.36905361  0.77935771  0.86006662  1  0  0.311101  0  0.905903  0  0  0.295088  0  0.974803  0  0  0.302128  0  0.968993  0  0  0.27646  0.289978  0  0.979205  0
H  H12  1  0.67633782  0.16187964  0.99141877  1  0  0.081995  0  0.965364  0  0  0.087049  0  1.038177  0  0  0.089321  0  1.035372  0  0  0.114536  0.085299  0  1.040355  0
H  H13  1  0.82366695  0.83811428  0.49142333  1  0  0.081913  0  0.965607  0  0  0.086977  0  1.038433  0  0  0.089248  0  1.035626  0  0  0.11451  0.085231  0  1.040608  0
H  H14  1  0.32366334  0.66189049  0.50858004  1  0  0.082  0  0.965519  0  0  0.087063  0  1.038359  0  0  0.089333  0  1.035556  0  0  0.114556  0.085316  0  1.040533  0
H  H15  1  0.17633586  0.33811432  0.00858426  1  0  0.081923  0  0.965319  0  0  0.086986  0  1.038179  0  0  0.089259  0  1.035372  0  0  0.114538  0.08524  0  1.040353  0
C  C16  1  0.71432900  0.29338868  0.98187863  1  0  0.213541  0  3.762827  0  0  0.15535  0  4.041942  0  0  0.169799  0  4.055289  0  0  0.123384  0.145879  0  4.032603  0
C  C17  1  0.78567883  0.70662522  0.48188572  1  0  0.213586  0  3.762603  0  0  0.155349  0  4.041709  0  0  0.169801  0  4.055046  0  0  0.123364  0.145875  0  4.032373  0
C  C18  1  0.28566843  0.79338439  0.51811571  1  0  0.21352  0  3.762829  0  0  0.155275  0  4.041951  0  0  0.169722  0  4.055299  0  0  0.123315  0.145803  0  4.032611  0
C  C19  1  0.21433541  0.20660294  0.01812252  1  0  0.213698  0  3.762918  0  0  0.155472  0  4.042036  0  0  0.169919  0  4.055385  0  0  0.123396  0.146002  0  4.032693  0
C  C20  1  0.75117491  0.55309926  0.01802299  1  0  0.54842  0  3.775882  0  0  0.505349  0  4.055178  0  0  0.526474  0  4.066816  0  0  0.299038  0.49093  0  4.046985  0
C  C21  1  0.74882423  0.44690022  0.51802583  1  0  0.548427  0  3.776081  0  0  0.505525  0  4.055126  0  0  0.526653  0  4.066762  0  0  0.299105  0.491107  0  4.046933  0
C  C22  1  0.24882139  0.05310531  0.48197439  1  0  0.548307  0  3.776343  0  0  0.505413  0  4.055386  0  0  0.526595  0  4.066949  0  0  0.299043  0.490946  0  4.047258  0
C  C23  1  0.25117574  0.94689393  0.98197555  1  0  0.548325  0  3.776152  0  0  0.505367  0  4.055299  0  0  0.526561  0  4.066847  0  0  0.299045  0.490901  0  4.047173  0
Br  Br24  1  0.30274045  0.43668929  0.72011533  1  0  -0.509286  0  0.973194  0  0  -0.447635  0  1.275224  0  0  -0.465246  0  1.25308  0  0  -0.251587  -0.435587  0  1.291224  0
Br  Br25  1  0.19726536  0.56330763  0.22011343  1  0  -0.50928  0  0.973235  0  0  -0.447642  0  1.275294  0  0  -0.465253  0  1.253149  0  0  -0.251586  -0.435592  0  1.291293  0
Br  Br26  1  0.69725638  0.93669034  0.77988507  1  0  -0.509292  0  0.973236  0  0  -0.447642  0  1.275261  0  0  -0.465254  0  1.253118  0  0  -0.251579  -0.435592  0  1.291262  0
Br  Br27  1  0.80274179  0.06331272  0.27988493  1  0  -0.509271  0  0.97324  0  0  -0.447624  0  1.275274  0  0  -0.465235  0  1.253129  0  0  -0.251576  -0.435572  0  1.291274  0
N  N28  1  0.83662378  0.52268404  0.90398299  1  0  -0.385964  0  3.176279  0  0  -0.320438  0  3.455254  0  0  -0.340669  0  3.474174  0  0  -0.275483  -0.306341  0  3.44203  0
N  N29  1  0.66337311  0.47731828  0.40398467  1  0  -0.385954  0  3.176281  0  0  -0.320499  0  3.455219  0  0  -0.340734  0  3.474143  0  0  -0.275513  -0.306403  0  3.441996  0
N  N30  1  0.16337031  0.02268813  0.59601453  1  0  -0.385996  0  3.176416  0  0  -0.320521  0  3.455323  0  0  -0.340772  0  3.474226  0  0  -0.275501  -0.306409  0  3.442112  0
N  N31  1  0.33662908  0.97731078  0.09601562  1  0  -0.386012  0  3.176349  0  0  -0.320515  0  3.455279  0  0  -0.340768  0  3.474176  0  0  -0.275483  -0.306402  0  3.442072  0
N  N32  1  0.67217750  0.41201040  0.07020934  1  0  -0.502907  0  3.13166  0  0  -0.430711  0  3.409802  0  0  -0.45517  0  3.423183  0  0  -0.364117  -0.413492  0  3.400145  0
N  N33  1  0.82782483  0.58798304  0.57021448  1  0  -0.503059  0  3.131749  0  0  -0.430879  0  3.409793  0  0  -0.455339  0  3.423171  0  0  -0.364211  -0.413655  0  3.400128  0
N  N34  1  0.32782118  0.91201800  0.42978889  1  0  -0.502954  0  3.131916  0  0  -0.430791  0  3.409975  0  0  -0.455268  0  3.423339  0  0  -0.364138  -0.413557  0  3.400332  0
N  N35  1  0.17217739  0.08798354  0.92979178  1  0  -0.502999  0  3.131901  0  0  -0.430837  0  3.410012  0  0  -0.455317  0  3.423373  0  0  -0.364175  -0.413601  0  3.400369  0
N  N36  1  0.74818153  0.71157374  0.07677368  1  0  -0.702035  0  3.091045  0  0  -0.654589  0  3.329836  0  0  -0.673429  0  3.323119  0  0  -0.602479  -0.640755  0  3.333809  0
N  N37  1  0.75181620  0.28842724  0.57677424  1  0  -0.701962  0  3.091129  0  0  -0.654581  0  3.329873  0  0  -0.673414  0  3.323137  0  0  -0.602433  -0.640749  0  3.333844  0
N  N38  1  0.25181428  0.21157831  0.42322407  1  0  -0.701911  0  3.091214  0  0  -0.654476  0  3.330002  0  0  -0.673336  0  3.323271  0  0  -0.602461  -0.64063  0  3.333983  0
N  N39  1  0.24818427  0.78841945  0.92322390  1  0  -0.701904  0  3.091104  0  0  -0.65445  0  3.329914  0  0  -0.673312  0  3.323178  0  0  -0.602445  -0.640604  0  3.333898  0
N  N40  1  0.81068371  0.35527407  0.88057451  1  0  -0.28741  0  3.231517  0  0  -0.221497  0  3.507082  0  0  -0.239201  0  3.528444  0  0  -0.272356  -0.209499  0  3.492481  0
N  N41  1  0.68931775  0.64472565  0.38057470  1  0  -0.287304  0  3.231318  0  0  -0.221387  0  3.506894  0  0  -0.239087  0  3.528252  0  0  -0.272272  -0.209391  0  3.492293  0
N  N42  1  0.18931412  0.85528105  0.61942666  1  0  -0.287286  0  3.231347  0  0  -0.22136  0  3.506913  0  0  -0.239063  0  3.528279  0  0  -0.27226  -0.209362  0  3.49231  0
N  N43  1  0.31068224  0.14471796  0.11942671  1  0  -0.287366  0  3.231487  0  0  -0.221438  0  3.507042  0  0  -0.23914  0  3.528408  0  0  -0.272314  -0.209441  0  3.492441  0
