# generated using pymatgen
data_CdH11C14SN3O
_symmetry_space_group_name_H-M   'P 1'
_cell_length_a   11.26147227
_cell_length_b   11.11796772
_cell_length_c   12.89339822
_cell_angle_alpha   115.50289294
_cell_angle_beta   108.00729864
_cell_angle_gamma   90.04149798
_symmetry_Int_Tables_number   1
_chemical_formula_structural   CdH11C14SN3O
_chemical_formula_sum   'Cd4 H44 C56 S4 N12 O4'
_cell_volume   1368.70706655
_cell_formula_units_Z   4
loop_
 _symmetry_equiv_pos_site_id
 _symmetry_equiv_pos_as_xyz
  1  'x, y, z'
loop_
 _atom_site_type_symbol
 _atom_site_label
 _atom_site_symmetry_multiplicity
 _atom_site_fract_x
 _atom_site_fract_y
 _atom_site_fract_z
 _atom_site_occupancy
 _atom_site_hle17_bader_spin_density
 _atom_site_hle17_ddec_charge
 _atom_site_hle17_ddec_spin_density
 _atom_site_hle17_ddec_sum_bond_order
 _atom_site_hle17_magmom
 _atom_site_hse06_10hf_bader_spin_density
 _atom_site_hse06_10hf_ddec_charge
 _atom_site_hse06_10hf_ddec_spin_density
 _atom_site_hse06_10hf_ddec_sum_bond_order
 _atom_site_hse06_10hf_magmom
 _atom_site_hse06_bader_spin_density
 _atom_site_hse06_ddec_charge
 _atom_site_hse06_ddec_spin_density
 _atom_site_hse06_ddec_sum_bond_order
 _atom_site_hse06_magmom
 _atom_site_pbe_bader_spin_density
 _atom_site_pbe_cm5_charge
 _atom_site_pbe_ddec_charge
 _atom_site_pbe_ddec_spin_density
 _atom_site_pbe_ddec_sum_bond_order
 _atom_site_pbe_magmom
Cd  Cd0  1  0.48928885  0.33337530  0.38718565  1  0  1.048252  0  1.906361  0  0  0.869292  0  2.367483  0  0  0.91722  0  2.323023  0  0  0.762406  0.836023  0  2.398078  0
Cd  Cd1  1  0.01043191  0.94600862  0.61265199  1  0  1.047884  0  1.907523  0  0  0.869207  0  2.368453  0  0  0.917076  0  2.323996  0  0  0.761964  0.835888  0  2.399104  0
Cd  Cd2  1  0.51071432  0.66662330  0.61281419  1  0  1.048264  0  1.906462  0  0  0.869275  0  2.367662  0  0  0.917229  0  2.323161  0  0  0.762428  0.836  0  2.398271  0
Cd  Cd3  1  0.98956162  0.05399401  0.38735067  1  0  1.047917  0  1.907482  0  0  0.86923  0  2.368427  0  0  0.917101  0  2.323971  0  0  0.761962  0.83591  0  2.399079  0
H  H4  1  0.62119077  0.51197631  0.81880161  1  0  0.100795  0  0.978569  0  0  0.111248  0  1.041974  0  0  0.114325  0  1.041461  0  0  0.095455  0.10892  0  1.042775  0
H  H5  1  0.87872057  0.69332923  0.18105284  1  0  0.101175  0  0.978307  0  0  0.111065  0  1.042375  0  0  0.114237  0  1.041764  0  0  0.095321  0.108693  0  1.043217  0
H  H6  1  0.37880732  0.48800717  0.18119109  1  0  0.100842  0  0.978553  0  0  0.111279  0  1.041951  0  0  0.114362  0  1.041436  0  0  0.095442  0.108946  0  1.042762  0
H  H7  1  0.12128072  0.30667541  0.81895036  1  0  0.101174  0  0.978305  0  0  0.111043  0  1.042407  0  0  0.114214  0  1.041794  0  0  0.0953  0.10867  0  1.043251  0
H  H8  1  0.82681038  0.50525955  0.95984150  1  0  0.069935  0  0.976784  0  0  0.084191  0  1.03721  0  0  0.086493  0  1.035089  0  0  0.092516  0.082525  0  1.038771  0
H  H9  1  0.67305086  0.54578521  0.03980579  1  0  0.070214  0  0.97717  0  0  0.084722  0  1.03728  0  0  0.087021  0  1.03517  0  0  0.092545  0.083034  0  1.038831  0
H  H10  1  0.17319004  0.49472701  0.04014989  1  0  0.069864  0  0.976753  0  0  0.084078  0  1.03724  0  0  0.08638  0  1.035122  0  0  0.092444  0.082411  0  1.038803  0
H  H11  1  0.32695152  0.45422047  0.96019654  1  0  0.07026  0  0.977044  0  0  0.08473  0  1.037202  0  0  0.087031  0  1.035093  0  0  0.092555  0.083042  0  1.038753  0
H  H12  1  0.00958255  0.44648239  0.88678797  1  0  0.077105  0  0.994378  0  0  0.089251  0  1.057256  0  0  0.091612  0  1.057242  0  0  0.089762  0.087358  0  1.05789  0
H  H13  1  0.49013633  0.55985789  0.11273293  1  0  0.077404  0  0.993573  0  0  0.089016  0  1.057227  0  0  0.09147  0  1.057078  0  0  0.089596  0.087083  0  1.057923  0
H  H14  1  0.99042032  0.55351424  0.11320871  1  0  0.077179  0  0.994398  0  0  0.089303  0  1.057282  0  0  0.091662  0  1.057282  0  0  0.08978  0.087411  0  1.057917  0
H  H15  1  0.50986249  0.44014275  0.88726652  1  0  0.077484  0  0.993494  0  0  0.089056  0  1.057203  0  0  0.091511  0  1.057053  0  0  0.089598  0.087122  0  1.057901  0
H  H16  1  0.98478316  0.39804861  0.67346614  1  0  0.091518  0  0.956891  0  0  0.10102  0  1.022823  0  0  0.103955  0  1.020679  0  0  0.096989  0.098917  0  1.024324  0
H  H17  1  0.51493811  0.72418756  0.32608972  1  0  0.091537  0  0.957692  0  0  0.100772  0  1.023832  0  0  0.103771  0  1.021582  0  0  0.096891  0.098632  0  1.02535  0
H  H18  1  0.01521800  0.60194903  0.32653047  1  0  0.091496  0  0.956892  0  0  0.101003  0  1.02282  0  0  0.103938  0  1.020673  0  0  0.096981  0.0989  0  1.02432  0
H  H19  1  0.48506164  0.27581307  0.67391075  1  0  0.091554  0  0.957621  0  0  0.100787  0  1.023771  0  0  0.103786  0  1.02152  0  0  0.096887  0.098648  0  1.02529  0
H  H20  1  0.88558567  0.40310763  0.49821639  1  0  0.049519  0  0.954303  0  0  0.060997  0  1.028251  0  0  0.063155  0  1.024594  0  0  0.096774  0.058159  0  1.032993  0
H  H21  1  0.61406347  0.90433172  0.50139313  1  0  0.049462  0  0.954352  0  0  0.061476  0  1.027658  0  0  0.063699  0  1.023914  0  0  0.097004  0.058618  0  1.03243  0
H  H22  1  0.11441719  0.59689509  0.50178106  1  0  0.049532  0  0.954279  0  0  0.06102  0  1.02821  0  0  0.063178  0  1.024554  0  0  0.096794  0.05818  0  1.032956  0
H  H23  1  0.38593550  0.09566990  0.49860906  1  0  0.0495  0  0.954421  0  0  0.061575  0  1.027661  0  0  0.063743  0  1.023964  0  0  0.097024  0.058715  0  1.032438  0
H  H24  1  0.81365014  0.37543938  0.31035654  1  0  0.071047  0  0.938065  0  0  0.086636  0  1.005941  0  0  0.087482  0  1.004842  0  0  0.098488  0.086187  0  1.006613  0
H  H25  1  0.68597860  0.06472891  0.68932581  1  0  0.070917  0  0.939011  0  0  0.086601  0  1.0065  0  0  0.087468  0  1.005437  0  0  0.098362  0.086162  0  1.007184  0
H  H26  1  0.18634899  0.62456333  0.68964146  1  0  0.071044  0  0.938063  0  0  0.086609  0  1.005957  0  0  0.087454  0  1.00486  0  0  0.098469  0.086152  0  1.006632  0
H  H27  1  0.31402315  0.93527876  0.31067866  1  0  0.070966  0  0.939005  0  0  0.086679  0  1.006461  0  0  0.087526  0  1.005383  0  0  0.098393  0.086239  0  1.007142  0
H  H28  1  0.71993838  0.50557011  0.31978394  1  0  0.092186  0  0.925252  0  0  0.110221  0  0.986573  0  0  0.109108  0  0.989512  0  0  0.112522  0.111152  0  0.984255  0
H  H29  1  0.78001568  0.18533043  0.67994921  1  0  0.092274  0  0.925004  0  0  0.110344  0  0.985871  0  0  0.109295  0  0.988781  0  0  0.112569  0.11123  0  0.983661  0
H  H30  1  0.28006074  0.49443257  0.68021560  1  0  0.092162  0  0.925244  0  0  0.110205  0  0.98656  0  0  0.109092  0  0.989501  0  0  0.112517  0.111135  0  0.984238  0
H  H31  1  0.21998718  0.81467221  0.32005209  1  0  0.092348  0  0.924995  0  0  0.110411  0  0.985873  0  0  0.109346  0  0.988769  0  0  0.112584  0.111296  0  0.983662  0
H  H32  1  0.73023791  0.31356946  0.08540967  1  0  0.099694  0  0.964123  0  0  0.113584  0  1.021172  0  0  0.11616  0  1.02099  0  0  0.104821  0.111679  0  1.021612  0
H  H33  1  0.76913857  0.22708424  0.91413457  1  0  0.099497  0  0.96434  0  0  0.113214  0  1.021592  0  0  0.115783  0  1.021397  0  0  0.104723  0.111332  0  1.021962  0
H  H34  1  0.26976648  0.68643714  0.91459744  1  0  0.099655  0  0.964048  0  0  0.113445  0  1.021227  0  0  0.116014  0  1.021045  0  0  0.10475  0.111539  0  1.021671  0
H  H35  1  0.23086165  0.77291335  0.08586487  1  0  0.099492  0  0.964272  0  0  0.113192  0  1.021546  0  0  0.115769  0  1.021337  0  0  0.104721  0.111311  0  1.021917  0
H  H36  1  0.56158211  0.15607738  0.88523890  1  0  0.08648  0  0.961448  0  0  0.093372  0  1.029449  0  0  0.09602  0  1.027618  0  0  0.100342  0.091593  0  1.030517  0
H  H37  1  0.93787774  0.27034906  0.11447369  1  0  0.086438  0  0.960915  0  0  0.093516  0  1.028776  0  0  0.096145  0  1.02697  0  0  0.100515  0.091763  0  1.02976  0
H  H38  1  0.43842385  0.84392727  0.11476323  1  0  0.086505  0  0.961341  0  0  0.093407  0  1.029337  0  0  0.096056  0  1.027503  0  0  0.100343  0.091627  0  1.030406  0
H  H39  1  0.06211954  0.72964749  0.88552688  1  0  0.086379  0  0.960968  0  0  0.09345  0  1.028826  0  0  0.096086  0  1.026999  0  0  0.100496  0.091698  0  1.02981  0
H  H40  1  0.36071426  0.06863973  0.89042570  1  0  0.107363  0  0.968103  0  0  0.115785  0  1.030369  0  0  0.118371  0  1.030539  0  0  0.104107  0.114  0  1.030383  0
H  H41  1  0.13884199  0.17821284  0.10948090  1  0  0.107412  0  0.968144  0  0  0.115704  0  1.030603  0  0  0.118248  0  1.03083  0  0  0.10412  0.113906  0  1.030657  0
H  H42  1  0.63929202  0.93136090  0.10957420  1  0  0.107372  0  0.968208  0  0  0.115851  0  1.030409  0  0  0.11844  0  1.030574  0  0  0.104105  0.114067  0  1.030423  0
H  H43  1  0.86115791  0.82178878  0.89052077  1  0  0.107413  0  0.96817  0  0  0.115691  0  1.030647  0  0  0.118236  0  1.030874  0  0  0.104101  0.113893  0  1.030699  0
H  H44  1  0.33528142  0.14213711  0.09616848  1  0  0.06911  0  0.948873  0  0  0.078577  0  1.0148  0  0  0.080952  0  1.01246  0  0  0.112688  0.076843  0  1.016538  0
H  H45  1  0.16436184  0.04597583  0.90384516  1  0  0.069282  0  0.949995  0  0  0.07924  0  1.015284  0  0  0.081617  0  1.012954  0  0  0.112705  0.077549  0  1.016932  0
H  H46  1  0.66471694  0.85786054  0.90382815  1  0  0.069151  0  0.9489  0  0  0.078599  0  1.014835  0  0  0.080973  0  1.012495  0  0  0.112692  0.076867  0  1.016571  0
H  H47  1  0.83564054  0.95402982  0.09615872  1  0  0.06922  0  0.95  0  0  0.079267  0  1.015205  0  0  0.081646  0  1.012874  0  0  0.112715  0.077574  0  1.01686  0
C  C48  1  0.68203510  0.45337253  0.66429805  1  0  0.350182  0  3.852341  0  0  0.332008  0  4.106607  0  0  0.34947  0  4.122497  0  0  0.084834  0.320216  0  4.094909  0
C  C49  1  0.81772671  0.78914221  0.33542497  1  0  0.349845  0  3.852239  0  0  0.331727  0  4.106286  0  0  0.349194  0  4.122142  0  0  0.084678  0.31988  0  4.094706  0
C  C50  1  0.31796623  0.54662008  0.33569590  1  0  0.350136  0  3.852375  0  0  0.331955  0  4.106687  0  0  0.349415  0  4.122573  0  0  0.084787  0.320164  0  4.094983  0
C  C51  1  0.18227304  0.21085840  0.66457628  1  0  0.34996  0  3.852278  0  0  0.331823  0  4.106301  0  0  0.349288  0  4.122155  0  0  0.084707  0.319972  0  4.094722  0
C  C52  1  0.70119448  0.48404240  0.78771296  1  0  -0.221084  0  3.750388  0  0  -0.237143  0  4.003412  0  0  -0.247042  0  4.024664  0  0  -0.121105  -0.230452  0  3.989076  0
C  C53  1  0.79858991  0.69654408  0.21199107  1  0  -0.221009  0  3.750999  0  0  -0.236688  0  4.00383  0  0  -0.246667  0  4.025046  0  0  -0.120622  -0.229987  0  3.989529  0
C  C54  1  0.29880453  0.51594717  0.21228076  1  0  -0.221251  0  3.750645  0  0  -0.237254  0  4.003587  0  0  -0.24716  0  4.024844  0  0  -0.121123  -0.230562  0  3.989249  0
C  C55  1  0.20140984  0.30345649  0.78801248  1  0  -0.221019  0  3.750996  0  0  -0.236682  0  4.003829  0  0  -0.246658  0  4.025045  0  0  -0.120621  -0.229983  0  3.989531  0
C  C56  1  0.81630212  0.48117560  0.86571468  1  0  -0.038715  0  3.829005  0  0  -0.054538  0  4.080685  0  0  -0.05058  0  4.101189  0  0  -0.097263  -0.056926  0  4.066697  0
C  C57  1  0.68347416  0.61580498  0.13387651  1  0  -0.038503  0  3.830216  0  0  -0.054405  0  4.081267  0  0  -0.050458  0  4.101806  0  0  -0.097316  -0.056724  0  4.067234  0
C  C58  1  0.18369502  0.51881398  0.13427854  1  0  -0.038509  0  3.829035  0  0  -0.054286  0  4.080674  0  0  -0.050328  0  4.101189  0  0  -0.097196  -0.056674  0  4.066683  0
C  C59  1  0.31652262  0.38420072  0.86612433  1  0  -0.0386  0  3.830102  0  0  -0.054472  0  4.081144  0  0  -0.050527  0  4.101689  0  0  -0.097371  -0.056787  0  4.067109  0
C  C60  1  0.91934565  0.44836690  0.82495740  1  0  -0.131462  0  3.839837  0  0  -0.148491  0  4.09955  0  0  -0.156171  0  4.123519  0  0  -0.122329  -0.143453  0  4.083367  0
C  C61  1  0.58035075  0.62365403  0.17456689  1  0  -0.132937  0  3.839821  0  0  -0.149705  0  4.099745  0  0  -0.157457  0  4.123715  0  0  -0.122243  -0.144644  0  4.083519  0
C  C62  1  0.08065382  0.55162571  0.17503682  1  0  -0.131596  0  3.839984  0  0  -0.148607  0  4.099673  0  0  -0.156294  0  4.123644  0  0  -0.122295  -0.14357  0  4.08349  0
C  C63  1  0.41964868  0.37635066  0.82543350  1  0  -0.133004  0  3.839749  0  0  -0.149739  0  4.099667  0  0  -0.157494  0  4.12364  0  0  -0.122255  -0.144681  0  4.083442  0
C  C64  1  0.90488998  0.42161300  0.70601060  1  0  -0.067796  0  3.760101  0  0  -0.091181  0  4.012227  0  0  -0.087073  0  4.03176  0  0  -0.088405  -0.092975  0  3.997572  0
C  C65  1  0.59481953  0.71547802  0.29355244  1  0  -0.067308  0  3.759993  0  0  -0.090235  0  4.011637  0  0  -0.08622  0  4.031166  0  0  -0.088208  -0.091896  0  3.996939  0
C  C66  1  0.09511040  0.57838566  0.29398619  1  0  -0.06773  0  3.759889  0  0  -0.091115  0  4.012016  0  0  -0.087008  0  4.031544  0  0  -0.088427  -0.092917  0  3.997377  0
C  C67  1  0.40517896  0.28452664  0.70645001  1  0  -0.067298  0  3.759986  0  0  -0.090268  0  4.011612  0  0  -0.086254  0  4.031139  0  0  -0.088203  -0.091929  0  3.996914  0
C  C68  1  0.78885640  0.42409880  0.62385560  1  0  -0.121218  0  3.788398  0  0  -0.099636  0  4.025515  0  0  -0.113151  0  4.053481  0  0  -0.039264  -0.090516  0  4.005467  0
C  C69  1  0.71086524  0.80015714  0.37577390  1  0  -0.120807  0  3.787695  0  0  -0.099521  0  4.025193  0  0  -0.112983  0  4.053074  0  0  -0.039639  -0.090435  0  4.005252  0
C  C70  1  0.21114493  0.57589382  0.37613759  1  0  -0.12124  0  3.788173  0  0  -0.099672  0  4.025342  0  0  -0.113178  0  4.053288  0  0  -0.039239  -0.090552  0  4.005298  0
C  C71  1  0.28913483  0.19983941  0.62422743  1  0  -0.120884  0  3.787756  0  0  -0.099494  0  4.025137  0  0  -0.112946  0  4.053  0  0  -0.039613  -0.090403  0  4.005193  0
C  C72  1  0.79126534  0.40908458  0.50733440  1  0  0.169514  0  3.735549  0  0  0.123457  0  3.993939  0  0  0.138526  0  4.007254  0  0  0.07253  0.113593  0  3.985065  0
C  C73  1  0.70841717  0.90136900  0.49232069  1  0  0.168765  0  3.735294  0  0  0.122499  0  3.993914  0  0  0.137506  0  4.00726  0  0  0.072126  0.112646  0  3.985043  0
C  C74  1  0.20873582  0.59091310  0.49266067  1  0  0.169615  0  3.735384  0  0  0.123562  0  3.993771  0  0  0.138629  0  4.007088  0  0  0.072575  0.113695  0  3.984894  0
C  C75  1  0.29158399  0.09862860  0.50767823  1  0  0.168631  0  3.735433  0  0  0.12228  0  3.994049  0  0  0.137327  0  4.007418  0  0  0.072024  0.112425  0  3.985181  0
C  C76  1  0.71992264  0.40290645  0.31308469  1  0  -0.048611  0  3.71515  0  0  -0.107878  0  3.966598  0  0  -0.10449  0  3.978646  0  0  -0.057254  -0.110099  0  3.958037  0
C  C77  1  0.77977424  0.08932926  0.68660613  1  0  -0.049322  0  3.71545  0  0  -0.10814  0  3.96582  0  0  -0.104899  0  3.978034  0  0  -0.057456  -0.1104  0  3.957342  0
C  C78  1  0.28007555  0.59709625  0.68691383  1  0  -0.048618  0  3.71513  0  0  -0.107833  0  3.966523  0  0  -0.104445  0  3.978576  0  0  -0.057231  -0.110044  0  3.957955  0
C  C79  1  0.22022862  0.91067335  0.31339671  1  0  -0.049598  0  3.715672  0  0  -0.108458  0  3.966117  0  0  -0.10512  0  3.978203  0  0  -0.057554  -0.110708  0  3.957619  0
C  C80  1  0.61961231  0.30855299  0.19288079  1  0  0.259017  0  3.694838  0  0  0.259879  0  3.937116  0  0  0.268694  0  3.95664  0  0  0.128991  0.254127  0  3.923462  0
C  C81  1  0.87995227  0.11507560  0.80684480  1  0  0.259611  0  3.695293  0  0  0.260676  0  3.93689  0  0  0.269514  0  3.956422  0  0  0.129501  0.254989  0  3.923183  0
C  C82  1  0.38038711  0.69145168  0.80712114  1  0  0.259082  0  3.694914  0  0  0.259905  0  3.93721  0  0  0.268719  0  3.956738  0  0  0.129023  0.254158  0  3.923547  0
C  C83  1  0.12005073  0.88492803  0.19315847  1  0  0.259634  0  3.69528  0  0  0.260629  0  3.936943  0  0  0.269442  0  3.956463  0  0  0.129494  0.254941  0  3.923233  0
C  C84  1  0.64084106  0.27249562  0.08263179  1  0  -0.173999  0  3.719693  0  0  -0.189784  0  3.961464  0  0  -0.198637  0  3.983873  0  0  -0.087289  -0.184044  0  3.946316  0
C  C85  1  0.85863245  0.18916415  0.91704966  1  0  -0.173913  0  3.720894  0  0  -0.189761  0  3.962692  0  0  -0.198613  0  3.985131  0  0  -0.087337  -0.184012  0  3.947476  0
C  C86  1  0.35916288  0.72750804  0.91736941  1  0  -0.173866  0  3.719719  0  0  -0.189544  0  3.961482  0  0  -0.198388  0  3.983891  0  0  -0.08723  -0.183808  0  3.946332  0
C  C87  1  0.14136838  0.81083745  0.08295303  1  0  -0.173879  0  3.720884  0  0  -0.189691  0  3.962675  0  0  -0.198549  0  3.985133  0  0  -0.087346  -0.183944  0  3.94746  0
C  C88  1  0.54792768  0.18633038  0.97268506  1  0  0.002187  0  3.741689  0  0  -0.015107  0  3.990019  0  0  -0.011193  0  4.009464  0  0  -0.067537  -0.017058  0  3.976515  0
C  C89  1  0.95155265  0.21322697  0.02704772  1  0  0.00248  0  3.74233  0  0  -0.014833  0  3.990334  0  0  -0.010919  0  4.009749  0  0  -0.067719  -0.01676  0  3.976779  0
C  C90  1  0.45207921  0.81367430  0.02731577  1  0  0.002161  0  3.741586  0  0  -0.015141  0  3.989923  0  0  -0.011233  0  4.009378  0  0  -0.06752  -0.017093  0  3.976417  0
C  C91  1  0.04844710  0.78677366  0.97295275  1  0  0.002497  0  3.742344  0  0  -0.014781  0  3.990291  0  0  -0.010864  0  4.009712  0  0  -0.067728  -0.016709  0  3.976737  0
C  C92  1  0.43500248  0.13698932  0.97489936  1  0  -0.123914  0  3.737044  0  0  -0.137175  0  3.986156  0  0  -0.145109  0  4.00977  0  0  -0.087675  -0.132233  0  3.97039  0
C  C93  1  0.06457839  0.16199572  0.02496529  1  0  -0.123736  0  3.737613  0  0  -0.136967  0  3.986929  0  0  -0.144861  0  4.010533  0  0  -0.087367  -0.132024  0  3.97113  0
C  C94  1  0.56500317  0.86301331  0.02510269  1  0  -0.124061  0  3.737127  0  0  -0.137398  0  3.986266  0  0  -0.145335  0  4.009885  0  0  -0.087718  -0.132453  0  3.970498  0
C  C95  1  0.93542369  0.83800791  0.97503773  1  0  -0.123731  0  3.73762  0  0  -0.136951  0  3.986925  0  0  -0.144848  0  4.010535  0  0  -0.08729  -0.132003  0  3.97112  0
C  C96  1  0.42052770  0.17761863  0.08767250  1  0  0.126365  0  3.736036  0  0  0.096206  0  3.990519  0  0  0.102941  0  4.009613  0  0  0.044278  0.091857  0  3.977541  0
C  C97  1  0.07912020  0.08984736  0.91224446  1  0  0.124811  0  3.737215  0  0  0.09429  0  3.99166  0  0  0.100996  0  4.010757  0  0  0.043114  0.089976  0  3.978602  0
C  C98  1  0.57947376  0.82238102  0.91232573  1  0  0.126334  0  3.736077  0  0  0.096205  0  3.990556  0  0  0.102943  0  4.00965  0  0  0.044245  0.091855  0  3.977579  0
C  C99  1  0.92088311  0.91015826  0.08776043  1  0  0.124904  0  3.737233  0  0  0.094308  0  3.991674  0  0  0.101014  0  4.01077  0  0  0.043086  0.089991  0  3.978616  0
C  C100  1  0.18747984  0.26587783  0.35274534  1  0  0.339614  0  3.974983  0  0  0.316509  0  4.277102  0  0  0.339273  0  4.291222  0  0  0.157853  0.301099  0  4.267049  0
C  C101  1  0.31225156  0.91297605  0.64734627  1  0  0.339754  0  3.973813  0  0  0.316746  0  4.275826  0  0  0.339505  0  4.289945  0  0  0.158152  0.301344  0  4.265822  0
C  C102  1  0.81252766  0.73413076  0.64726414  1  0  0.339528  0  3.974626  0  0  0.316426  0  4.276754  0  0  0.339193  0  4.290883  0  0  0.157785  0.301012  0  4.266704  0
C  C103  1  0.68772334  0.08701447  0.35265220  1  0  0.339785  0  3.973004  0  0  0.31678  0  4.275038  0  0  0.339546  0  4.289163  0  0  0.158249  0.301376  0  4.265034  0
S  S104  1  0.05280337  0.28658402  0.37489271  1  0  -0.36233  0  2.154698  0  0  -0.331307  0  2.491857  0  0  -0.349988  0  2.48406  0  0  -0.138152  -0.31928  0  2.49819  0
S  S105  1  0.44697785  0.91172256  0.62528932  1  0  -0.363029  0  2.152006  0  0  -0.332104  0  2.489025  0  0  -0.35086  0  2.481353  0  0  -0.138792  -0.320106  0  2.495276  0
S  S106  1  0.94719917  0.71341652  0.62511235  1  0  -0.362231  0  2.154874  0  0  -0.331198  0  2.492018  0  0  -0.349875  0  2.484224  0  0  -0.138095  -0.31918  0  2.498362  0
S  S107  1  0.55300589  0.08827711  0.37470881  1  0  -0.363043  0  2.152418  0  0  -0.332111  0  2.489419  0  0  -0.350836  0  2.481695  0  0  -0.138826  -0.320119  0  2.495678  0
N  N108  1  0.69667916  0.40664335  0.41845206  1  0  -0.346598  0  3.212198  0  0  -0.267463  0  3.480891  0  0  -0.288372  0  3.497841  0  0  -0.35711  -0.25351  0  3.469113  0
N  N109  1  0.80299336  0.98781195  0.58124986  1  0  -0.345633  0  3.210846  0  0  -0.267065  0  3.479739  0  0  -0.287957  0  3.496732  0  0  -0.356695  -0.253076  0  3.467983  0
N  N110  1  0.30331935  0.59335532  0.58154423  1  0  -0.346677  0  3.212184  0  0  -0.267542  0  3.480849  0  0  -0.288443  0  3.497779  0  0  -0.357146  -0.2536  0  3.4691  0
N  N111  1  0.19700546  0.01218866  0.41875191  1  0  -0.345483  0  3.210927  0  0  -0.266872  0  3.479742  0  0  -0.287785  0  3.496694  0  0  -0.356612  -0.252888  0  3.467983  0
N  N112  1  0.51020749  0.26190268  0.19380243  1  0  -0.368864  0  3.25056  0  0  -0.299455  0  3.508035  0  0  -0.318686  0  3.525975  0  0  -0.328675  -0.28626  0  3.495362  0
N  N113  1  0.98943475  0.06783173  0.80603523  1  0  -0.36837  0  3.250245  0  0  -0.299271  0  3.50779  0  0  -0.3185  0  3.52573  0  0  -0.328045  -0.28609  0  3.495118  0
N  N114  1  0.48979458  0.73810097  0.80619905  1  0  -0.368853  0  3.250495  0  0  -0.299441  0  3.507985  0  0  -0.318675  0  3.525928  0  0  -0.328666  -0.286247  0  3.495312  0
N  N115  1  0.01056639  0.93217193  0.19396600  1  0  -0.368356  0  3.25018  0  0  -0.299238  0  3.507766  0  0  -0.318471  0  3.525716  0  0  -0.328023  -0.286057  0  3.495093  0
N  N116  1  0.28431912  0.25053200  0.33385906  1  0  -0.550108  0  2.830418  0  0  -0.489798  0  3.107138  0  0  -0.51079  0  3.111059  0  0  -0.39834  -0.475741  0  3.104581  0
N  N117  1  0.21533599  0.91644557  0.66612074  1  0  -0.550063  0  2.830794  0  0  -0.489876  0  3.107594  0  0  -0.510886  0  3.111574  0  0  -0.398515  -0.475843  0  3.104967  0
N  N118  1  0.71567254  0.74947053  0.66614850  1  0  -0.55014  0  2.829933  0  0  -0.489837  0  3.106697  0  0  -0.510834  0  3.110626  0  0  -0.39835  -0.475775  0  3.104136  0
N  N119  1  0.78465770  0.08355203  0.33387927  1  0  -0.550111  0  2.829675  0  0  -0.489934  0  3.106519  0  0  -0.510953  0  3.110506  0  0  -0.398568  -0.475906  0  3.103904  0
O  O120  1  0.56919370  0.45670805  0.59514573  1  0  -0.654664  0  2.131425  0  0  -0.572762  0  2.404967  0  0  -0.601929  0  2.396278  0  0  -0.364598  -0.551216  0  2.409026  0
O  O121  1  0.93063477  0.86154201  0.40461768  1  0  -0.654662  0  2.131916  0  0  -0.57276  0  2.405465  0  0  -0.601834  0  2.396556  0  0  -0.364268  -0.551187  0  2.409549  0
O  O122  1  0.43080840  0.54328959  0.40485113  1  0  -0.654599  0  2.131276  0  0  -0.572727  0  2.40484  0  0  -0.601913  0  2.396196  0  0  -0.364598  -0.551179  0  2.408893  0
O  O123  1  0.06937028  0.13845654  0.59538496  1  0  -0.654656  0  2.132024  0  0  -0.572771  0  2.405607  0  0  -0.601852  0  2.3967  0  0  -0.36424  -0.551198  0  2.409683  0
