# generated using pymatgen
data_K2H3C6(NO3)3
_symmetry_space_group_name_H-M   'P 1'
_cell_length_a   7.08275022
_cell_length_b   9.40152528
_cell_length_c   9.82610270
_cell_angle_alpha   115.86969049
_cell_angle_beta   108.27649958
_cell_angle_gamma   93.80015149
_symmetry_Int_Tables_number   1
_chemical_formula_structural   K2H3C6(NO3)3
_chemical_formula_sum   'K4 H6 C12 N6 O18'
_cell_volume   543.01276150
_cell_formula_units_Z   2
loop_
 _symmetry_equiv_pos_site_id
 _symmetry_equiv_pos_as_xyz
  1  'x, y, z'
loop_
 _atom_site_type_symbol
 _atom_site_label
 _atom_site_symmetry_multiplicity
 _atom_site_fract_x
 _atom_site_fract_y
 _atom_site_fract_z
 _atom_site_occupancy
 _atom_site_pbe_bader_spin_density
 _atom_site_pbe_cm5_charge
 _atom_site_pbe_ddec_charge
 _atom_site_pbe_ddec_spin_density
 _atom_site_pbe_ddec_sum_bond_order
 _atom_site_pbe_magmom
K  K0  1  0.06609741  0.28148989  0.42885549  1  0  0.829449  0.86556  0  0.70052  0
K  K1  1  0.93391573  0.71851363  0.57114692  1  0  0.829439  0.865549  0  0.700532  0
K  K2  1  0.46740916  0.09012318  0.21570586  1  0  0.82414  0.851553  0  0.703928  0
K  K3  1  0.53260515  0.90988398  0.78429628  1  0  0.824169  0.851555  0  0.703977  0
H  H4  1  0.40558970  0.74560216  0.19829372  1  0  0.13006  0.132867  0  1.021514  0
H  H5  1  0.59441477  0.25439295  0.80170429  1  0  0.130021  0.132799  0  1.021571  0
H  H6  1  0.81778761  0.06472715  0.52079851  1  0  0.305826  0.396469  0  0.922957  0
H  H7  1  0.18221412  0.93527781  0.47920501  1  0  0.305819  0.396464  0  0.922975  0
H  H8  1  0.81641567  0.91454710  0.36565062  1  0  0.290435  0.378347  0  0.967125  0
H  H9  1  0.18358007  0.08545307  0.63435162  1  0  0.290424  0.378319  0  0.967163  0
C  C10  1  0.22063565  0.36270437  0.13587388  1  0  0.11379  0.323489  0  4.182937  0
C  C11  1  0.77935664  0.63728975  0.86412712  1  0  0.113697  0.323465  0  4.182586  0
C  C12  1  0.14714274  0.28576854  0.95964273  1  0  0.034662  -0.228259  0  3.848484  0
C  C13  1  0.85284636  0.71423418  0.04035502  1  0  0.034728  -0.228116  0  3.848503  0
C  C14  1  0.16655908  0.36138665  0.86329911  1  0  0.121507  0.325489  0  4.146667  0
C  C15  1  0.83343217  0.63861357  0.13669605  1  0  0.121388  0.325293  0  4.146753  0
C  C16  1  0.25975185  0.53701554  0.95980010  1  0  0.059989  -0.074557  0  3.889831  0
C  C17  1  0.74024414  0.46298094  0.04019659  1  0  0.060001  -0.074556  0  3.889814  0
C  C18  1  0.33208425  0.61659996  0.13009480  1  0  -0.060108  -0.121865  0  4.02924  0
C  C19  1  0.66791430  0.38339525  0.86990091  1  0  -0.060028  -0.121763  0  4.029206  0
C  C20  1  0.30783124  0.53805332  0.21604617  1  0  0.068911  -0.053009  0  3.870681  0
C  C21  1  0.69216664  0.46194436  0.78395246  1  0  0.06893  -0.052931  0  3.870711  0
N  N22  1  0.05907754  0.11500869  0.87214922  1  0  0.02713  0.580353  0  4.159695  0
N  N23  1  0.94091700  0.88498783  0.12785021  1  0  0.027112  0.58024  0  4.159615  0
N  N24  1  0.28534182  0.63209687  0.88504829  1  0  0.028062  0.55279  0  4.175587  0
N  N25  1  0.71465642  0.36790200  0.11494786  1  0  0.028048  0.552756  0  4.175624  0
N  N26  1  0.37891094  0.63423621  0.38967177  1  0  0.025975  0.553037  0  4.165692  0
N  N27  1  0.62108993  0.36576143  0.61033157  1  0  0.025903  0.552937  0  4.165689  0
O  O28  1  0.21370946  0.28723256  0.21354791  1  0  -0.464893  -0.572013  0  2.327957  0
O  O29  1  0.78628778  0.71277245  0.78644853  1  0  -0.4649  -0.572115  0  2.327598  0
O  O30  1  0.14916298  0.02287154  0.91514698  1  0  -0.181761  -0.394605  0  2.017348  0
O  O31  1  0.85083057  0.97713112  0.08485478  1  0  -0.18179  -0.394598  0  2.017186  0
O  O32  1  0.89030469  0.06051341  0.75185171  1  0  -0.194285  -0.41874  0  1.978461  0
O  O33  1  0.10969118  0.93947817  0.24814088  1  0  -0.194229  -0.418669  0  1.978421  0
O  O34  1  0.12327649  0.27960258  0.71096643  1  0  -0.378462  -0.534873  0  2.310055  0
O  O35  1  0.87671627  0.72039764  0.28903313  1  0  -0.378359  -0.53472  0  2.309975  0
O  O36  1  0.19966079  0.57490535  0.73313002  1  0  -0.228497  -0.433607  0  2.046915  0
O  O37  1  0.80034633  0.42509338  0.26686804  1  0  -0.228468  -0.433587  0  2.046805  0
O  O38  1  0.39536576  0.77587823  0.97387960  1  0  -0.249289  -0.463209  0  2.026947  0
O  O39  1  0.60463289  0.22412188  0.02611918  1  0  -0.249304  -0.463183  0  2.027001  0
O  O40  1  0.51959132  0.76113339  0.45944088  1  0  -0.221983  -0.416705  0  1.98698  0
O  O41  1  0.48041503  0.23886292  0.54055906  1  0  -0.221926  -0.416643  0  1.987071  0
O  O42  1  0.29977294  0.59307284  0.46837486  1  0  -0.181998  -0.406792  0  2.01566  0
O  O43  1  0.70023175  0.40693206  0.53162930  1  0  -0.181999  -0.406761  0  2.015423  0
O  O44  1  0.78104709  0.02197623  0.40325056  1  0  -0.698675  -0.841747  0  1.989582  0
O  O45  1  0.21895386  0.97802630  0.59675280  1  0  -0.698654  -0.84171  0  1.989568  0
