# generated using pymatgen
data_Ca2H22C11(NO6)2
_symmetry_space_group_name_H-M   'P 1'
_cell_length_a   8.55216996
_cell_length_b   10.48987101
_cell_length_c   11.60427035
_cell_angle_alpha   102.59963288
_cell_angle_beta   112.32198153
_cell_angle_gamma   105.91668121
_symmetry_Int_Tables_number   1
_chemical_formula_structural   Ca2H22C11(NO6)2
_chemical_formula_sum   'Ca4 H44 C22 N4 O24'
_cell_volume   863.18533697
_cell_formula_units_Z   2
loop_
 _symmetry_equiv_pos_site_id
 _symmetry_equiv_pos_as_xyz
  1  'x, y, z'
loop_
 _atom_site_type_symbol
 _atom_site_label
 _atom_site_symmetry_multiplicity
 _atom_site_fract_x
 _atom_site_fract_y
 _atom_site_fract_z
 _atom_site_occupancy
 _atom_site_hle17_bader_spin_density
 _atom_site_hle17_ddec_charge
 _atom_site_hle17_ddec_spin_density
 _atom_site_hle17_ddec_sum_bond_order
 _atom_site_hle17_magmom
 _atom_site_hse06_10hf_bader_spin_density
 _atom_site_hse06_10hf_ddec_charge
 _atom_site_hse06_10hf_ddec_spin_density
 _atom_site_hse06_10hf_ddec_sum_bond_order
 _atom_site_hse06_10hf_magmom
 _atom_site_hse06_bader_spin_density
 _atom_site_hse06_ddec_charge
 _atom_site_hse06_ddec_spin_density
 _atom_site_hse06_ddec_sum_bond_order
 _atom_site_hse06_magmom
 _atom_site_pbe_bader_spin_density
 _atom_site_pbe_cm5_charge
 _atom_site_pbe_ddec_charge
 _atom_site_pbe_ddec_spin_density
 _atom_site_pbe_ddec_sum_bond_order
 _atom_site_pbe_magmom
Ca  Ca0  1  0.53765657  0.41870340  0.83258379  1  0  1.453991  0  1.1614  0  0  1.300653  0  1.504737  0  0  1.345786  0  1.46634  0  0  0.865985  1.266739  0  1.531938  0
Ca  Ca1  1  0.46233862  0.58129728  0.16741854  1  0  1.453972  0  1.161311  0  0  1.300615  0  1.504771  0  0  1.345755  0  1.466368  0  0  0.865999  1.266701  0  1.531967  0
Ca  Ca2  1  0.62255949  0.88584599  0.94498096  1  0  1.547975  0  1.05503  0  0  1.417396  0  1.390874  0  0  1.460436  0  1.347458  0  0  0.881481  1.385334  0  1.421276  0
Ca  Ca3  1  0.37743220  0.11415332  0.05501506  1  0  1.547923  0  1.055025  0  0  1.417402  0  1.390771  0  0  1.460427  0  1.347377  0  0  0.881459  1.385336  0  1.421172  0
H  H4  1  0.79325877  0.58098452  0.12332327  1  0  0.42018  0  0.891039  0  0  0.386459  0  0.959547  0  0  0.397725  0  0.943457  0  0  0.302291  0.378466  0  0.970949  0
H  H5  1  0.20672620  0.41900819  0.87666897  1  0  0.420315  0  0.890882  0  0  0.38658  0  0.959389  0  0  0.397844  0  0.943301  0  0  0.30232  0.37859  0  0.970784  0
H  H6  1  0.68882600  0.42746249  0.11996471  1  0  0.423793  0  0.862185  0  0  0.395639  0  0.931918  0  0  0.405948  0  0.916679  0  0  0.317779  0.388155  0  0.942979  0
H  H7  1  0.31116331  0.57253149  0.88002884  1  0  0.423792  0  0.862272  0  0  0.395645  0  0.931942  0  0  0.405951  0  0.916703  0  0  0.317751  0.38816  0  0.943002  0
H  H8  1  0.81225911  0.39055422  0.55323054  1  0  0.076571  0  0.937903  0  0  0.089334  0  1.003206  0  0  0.091176  0  1.001816  0  0  0.100051  0.087933  0  1.004364  0
H  H9  1  0.18775776  0.60946333  0.44678643  1  0  0.076632  0  0.937912  0  0  0.089442  0  1.003137  0  0  0.091277  0  1.001759  0  0  0.100114  0.088045  0  1.004295  0
H  H10  1  0.59714463  0.40242495  0.49014936  1  0  0.061511  0  0.95896  0  0  0.07847  0  1.021203  0  0  0.078951  0  1.021244  0  0  0.104912  0.077918  0  1.021528  0
H  H11  1  0.40285983  0.59759081  0.50986073  1  0  0.061539  0  0.95893  0  0  0.07846  0  1.021249  0  0  0.078939  0  1.021291  0  0  0.104907  0.077912  0  1.021568  0
H  H12  1  0.67187809  0.18094698  0.61337328  1  0  0.069207  0  0.961142  0  0  0.087036  0  1.024982  0  0  0.087803  0  1.025089  0  0  0.092606  0.086329  0  1.025246  0
H  H13  1  0.32813277  0.81906248  0.38662339  1  0  0.06917  0  0.961139  0  0  0.086978  0  1.024989  0  0  0.087751  0  1.025088  0  0  0.092597  0.086271  0  1.025251  0
H  H14  1  0.59053639  0.16161912  0.44552270  1  0  0.077877  0  0.953277  0  0  0.098781  0  1.014473  0  0  0.099158  0  1.015091  0  0  0.1012  0.098521  0  1.014102  0
H  H15  1  0.40949111  0.83840258  0.55447957  1  0  0.077928  0  0.953227  0  0  0.098833  0  1.014387  0  0  0.099203  0  1.015028  0  0  0.101166  0.098568  0  1.01403  0
H  H16  1  0.32670855  0.22699628  0.45425772  1  0  0.064085  0  0.969623  0  0  0.080575  0  1.033595  0  0  0.080992  0  1.033777  0  0  0.107074  0.080155  0  1.033597  0
H  H17  1  0.67330031  0.77300887  0.54573591  1  0  0.06411  0  0.969591  0  0  0.080609  0  1.033538  0  0  0.081025  0  1.033718  0  0  0.107072  0.080193  0  1.033536  0
H  H18  1  0.31423738  0.05504087  0.44194312  1  0  0.047947  0  0.918315  0  0  0.063622  0  0.983673  0  0  0.064795  0  0.982421  0  0  0.093896  0.062602  0  0.984895  0
H  H19  1  0.68579870  0.94495868  0.55806396  1  0  0.047868  0  0.918442  0  0  0.06355  0  0.983788  0  0  0.064717  0  0.982537  0  0  0.09388  0.062536  0  0.985001  0
H  H20  1  0.65287452  0.60067322  0.59269866  1  0  0.097578  0  0.960046  0  0  0.110636  0  1.024247  0  0  0.112784  0  1.022735  0  0  0.118182  0.109077  0  1.025564  0
H  H21  1  0.34714408  0.39933929  0.40731949  1  0  0.097749  0  0.960014  0  0  0.110744  0  1.024219  0  0  0.112885  0  1.022717  0  0  0.118269  0.109225  0  1.025485  0
H  H22  1  0.89094806  0.67409556  0.69677255  1  0  0.108792  0  0.914485  0  0  0.121887  0  0.974998  0  0  0.124643  0  0.973025  0  0  0.113658  0.119923  0  0.976522  0
H  H23  1  0.10905424  0.32590834  0.30322353  1  0  0.108889  0  0.914497  0  0  0.121981  0  0.97498  0  0  0.124739  0  0.973003  0  0  0.113686  0.120012  0  0.976513  0
H  H24  1  0.50326454  0.05761905  0.67872727  1  0  0.107162  0  0.926381  0  0  0.122728  0  0.984818  0  0  0.12507  0  0.983217  0  0  0.126192  0.121036  0  0.986195  0
H  H25  1  0.49674977  0.94238252  0.32127652  1  0  0.10713  0  0.926576  0  0  0.122716  0  0.98499  0  0  0.125023  0  0.983434  0  0  0.126197  0.121021  0  0.986367  0
H  H26  1  0.26239097  0.96532033  0.60949922  1  0  0.100801  0  0.923491  0  0  0.111007  0  0.991429  0  0  0.113988  0  0.9888  0  0  0.1112  0.108873  0  0.993418  0
H  H27  1  0.73762811  0.03467079  0.39049254  1  0  0.100866  0  0.923475  0  0  0.11101  0  0.991514  0  0  0.113997  0  0.98887  0  0  0.111189  0.10888  0  0.993491  0
H  H28  1  0.12910646  0.16761713  0.66262057  1  0  0.10422  0  0.922962  0  0  0.119172  0  0.98289  0  0  0.121694  0  0.981053  0  0  0.119379  0.117344  0  0.984373  0
H  H29  1  0.87090887  0.83238175  0.33736052  1  0  0.104212  0  0.92293  0  0  0.119166  0  0.982883  0  0  0.121682  0  0.981035  0  0  0.119369  0.117334  0  0.984366  0
H  H30  1  0.07035787  0.09111581  0.49122433  1  0  0.078878  0  0.953639  0  0  0.091705  0  1.021112  0  0  0.093658  0  1.019685  0  0  0.10042  0.090229  0  1.022284  0
H  H31  1  0.92964323  0.90887354  0.50876954  1  0  0.078962  0  0.953641  0  0  0.091798  0  1.021099  0  0  0.093737  0  1.019669  0  0  0.100444  0.090324  0  1.022272  0
H  H32  1  0.96823482  0.57920568  0.88943636  1  0  0.107738  0  0.940992  0  0  0.11993  0  1.004109  0  0  0.122187  0  1.003123  0  0  0.122203  0.118281  0  1.005033  0
H  H33  1  0.03176064  0.42080435  0.11056782  1  0  0.107718  0  0.941018  0  0  0.119962  0  1.004064  0  0  0.122222  0  1.003091  0  0  0.122173  0.118307  0  1.004985  0
H  H34  1  0.01626679  0.50448346  0.76019132  1  0  0.083186  0  0.951183  0  0  0.094362  0  1.017798  0  0  0.097374  0  1.015045  0  0  0.108476  0.092084  0  1.020048  0
H  H35  1  0.98374182  0.49552425  0.23981913  1  0  0.083183  0  0.951347  0  0  0.094387  0  1.017937  0  0  0.097423  0  1.015165  0  0  0.108499  0.092103  0  1.020185  0
H  H36  1  0.30323698  0.59439345  0.70462643  1  0  0.429798  0  0.875434  0  0  0.395177  0  0.945799  0  0  0.407282  0  0.928101  0  0  0.297202  0.386501  0  0.958473  0
H  H37  1  0.69675057  0.40560160  0.29537121  1  0  0.429648  0  0.875662  0  0  0.395102  0  0.945938  0  0  0.407208  0  0.928238  0  0  0.297181  0.386423  0  0.958616  0
H  H38  1  0.22465811  0.71450061  0.71341013  1  0  0.445655  0  0.817309  0  0  0.420802  0  0.878804  0  0  0.429916  0  0.865187  0  0  0.318737  0.41419  0  0.888721  0
H  H39  1  0.77533571  0.28549777  0.28658624  1  0  0.445607  0  0.817376  0  0  0.420719  0  0.878898  0  0  0.429831  0  0.865282  0  0  0.318729  0.414111  0  0.888804  0
H  H40  1  0.04510908  0.01983177  0.16537317  1  0  0.433427  0  0.859696  0  0  0.405146  0  0.918528  0  0  0.41554  0  0.903241  0  0  0.305956  0.397628  0  0.929596  0
H  H41  1  0.95489740  0.98017466  0.83463219  1  0  0.433486  0  0.85961  0  0  0.405255  0  0.91838  0  0  0.415623  0  0.903119  0  0  0.306001  0.397739  0  0.929449  0
H  H42  1  0.96349679  0.85197296  0.13870041  1  0  0.426419  0  0.877089  0  0  0.392053  0  0.946586  0  0  0.403506  0  0.929658  0  0  0.298304  0.383774  0  0.958827  0
H  H43  1  0.03649628  0.14802953  0.86129657  1  0  0.426339  0  0.877202  0  0  0.391939  0  0.946739  0  0  0.40339  0  0.929815  0  0  0.298242  0.383661  0  0.958977  0
H  H44  1  0.79641128  0.19216209  0.94807791  1  0  0.415523  0  0.891006  0  0  0.384008  0  0.956261  0  0  0.395761  0  0.938968  0  0  0.292833  0.375561  0  0.968698  0
H  H45  1  0.20359056  0.80784295  0.05192259  1  0  0.415546  0  0.890966  0  0  0.384033  0  0.95622  0  0  0.395785  0  0.938928  0  0  0.292841  0.375585  0  0.968659  0
H  H46  1  0.92932101  0.11388950  0.98112323  1  0  0.402085  0  0.901433  0  0  0.374491  0  0.970491  0  0  0.38489  0  0.955066  0  0  0.299535  0.366979  0  0.981669  0
H  H47  1  0.07068037  0.88611669  0.01888168  1  0  0.402046  0  0.901497  0  0  0.374456  0  0.97054  0  0  0.384857  0  0.955113  0  0  0.299529  0.366945  0  0.981718  0
C  C48  1  0.68811596  0.37405799  0.56686185  1  0  -0.002763  0  3.605877  0  0  -0.054044  0  3.862603  0  0  -0.050987  0  3.873898  0  0  -0.070339  -0.055955  0  3.854889  0
C  C49  1  0.31188128  0.62593953  0.43313521  1  0  -0.002842  0  3.60599  0  0  -0.054196  0  3.862808  0  0  -0.05113  0  3.874103  0  0  -0.070385  -0.056111  0  3.855101  0
C  C50  1  0.59135419  0.21662446  0.53784665  1  0  -0.145735  0  3.676011  0  0  -0.196273  0  3.940986  0  0  -0.19753  0  3.954491  0  0  -0.162202  -0.195265  0  3.931568  0
C  C51  1  0.40864581  0.78337634  0.46215258  1  0  -0.145765  0  3.675971  0  0  -0.196216  0  3.940861  0  0  -0.197489  0  3.95437  0  0  -0.162162  -0.195207  0  3.931445  0
C  C52  1  0.39104309  0.16796928  0.51001219  1  0  0.007777  0  3.63293  0  0  -0.045655  0  3.895746  0  0  -0.042016  0  3.907326  0  0  -0.068017  -0.047825  0  3.887653  0
C  C53  1  0.60895570  0.83203457  0.48998732  1  0  0.007811  0  3.633023  0  0  -0.045662  0  3.895827  0  0  -0.041995  0  3.907391  0  0  -0.068039  -0.047837  0  3.887744  0
C  C54  1  0.75788391  0.61560325  0.69131972  1  0  -0.17688  0  3.678619  0  0  -0.232549  0  3.937401  0  0  -0.234104  0  3.943481  0  0  -0.064941  -0.231376  0  3.933196  0
C  C55  1  0.24212376  0.38439925  0.30869037  1  0  -0.177119  0  3.678997  0  0  -0.232763  0  3.937778  0  0  -0.234302  0  3.943844  0  0  -0.065029  -0.231607  0  3.933537  0
C  C56  1  0.72772023  0.70999943  0.79241144  1  0  0.692942  0  3.863954  0  0  0.640979  0  4.168183  0  0  0.674881  0  4.16003  0  0  0.216916  0.617768  0  4.173041  0
C  C57  1  0.27226946  0.29001538  0.20758877  1  0  0.692999  0  3.864395  0  0  0.641118  0  4.168445  0  0  0.675022  0  4.160279  0  0  0.216915  0.617906  0  4.17331  0
C  C58  1  0.37808954  0.06940893  0.67588482  1  0  -0.183221  0  3.687318  0  0  -0.236602  0  3.941655  0  0  -0.238451  0  3.948289  0  0  -0.062786  -0.235396  0  3.93724  0
C  C59  1  0.62191441  0.93059210  0.32411630  1  0  -0.183269  0  3.687524  0  0  -0.236686  0  3.941869  0  0  -0.238504  0  3.948526  0  0  -0.062808  -0.235478  0  3.937452  0
C  C60  1  0.40337758  0.09522767  0.81644978  1  0  0.704713  0  3.868553  0  0  0.654061  0  4.168531  0  0  0.68852  0  4.159673  0  0  0.224749  0.63039  0  4.173896  0
C  C61  1  0.59660517  0.90476285  0.18354149  1  0  0.704712  0  3.868634  0  0  0.654087  0  4.168526  0  0  0.688553  0  4.159655  0  0  0.224773  0.630414  0  4.173893  0
C  C62  1  0.17020592  0.18114077  0.58533763  1  0  -0.192399  0  3.676307  0  0  -0.24807  0  3.933298  0  0  -0.249572  0  3.940676  0  0  -0.077708  -0.246897  0  3.928077  0
C  C63  1  0.82979619  0.81884940  0.41464802  1  0  -0.192552  0  3.676155  0  0  -0.248276  0  3.933104  0  0  -0.249708  0  3.940418  0  0  -0.077731  -0.247095  0  3.927862  0
C  C64  1  0.15456798  0.31862355  0.56627232  1  0  0.682343  0  3.886888  0  0  0.63457  0  4.197093  0  0  0.666949  0  4.189793  0  0  0.205019  0.612594  0  4.20125  0
C  C65  1  0.84544190  0.68136046  0.43373652  1  0  0.682178  0  3.886849  0  0  0.634485  0  4.196987  0  0  0.666851  0  4.18968  0  0  0.205012  0.61252  0  4.201123  0
C  C66  1  0.89748234  0.35624596  0.83817485  1  0  0.6946  0  3.84384  0  0  0.640278  0  4.151911  0  0  0.673354  0  4.144354  0  0  0.226605  0.617869  0  4.15622  0
C  C67  1  0.10250573  0.64374710  0.16182427  1  0  0.694494  0  3.843934  0  0  0.640205  0  4.152016  0  0  0.673286  0  4.144464  0  0  0.226539  0.617789  0  4.156321  0
C  C68  1  0.91541709  0.48669526  0.79857840  1  0  -0.197978  0  3.688768  0  0  -0.248329  0  3.936427  0  0  -0.251004  0  3.944466  0  0  -0.072082  -0.246447  0  3.930978  0
C  C69  1  0.08457849  0.51330866  0.20142810  1  0  -0.197876  0  3.688852  0  0  -0.248328  0  3.936576  0  0  -0.251037  0  3.944638  0  0  -0.07208  -0.246421  0  3.931096  0
N  N70  1  0.73771272  0.47490733  0.69922983  1  0  -0.216965  0  3.224525  0  0  -0.138814  0  3.470729  0  0  -0.153138  0  3.491542  0  0  -0.356759  -0.128569  0  3.455963  0
N  N71  1  0.26228337  0.52508930  0.30077368  1  0  -0.217093  0  3.224826  0  0  -0.138876  0  3.470904  0  0  -0.153201  0  3.491716  0  0  -0.356734  -0.128637  0  3.45613  0
N  N72  1  0.35782608  0.18482540  0.62762490  1  0  -0.23539  0  3.272769  0  0  -0.156893  0  3.521384  0  0  -0.171724  0  3.542704  0  0  -0.386031  -0.146219  0  3.506084  0
N  N73  1  0.64217040  0.81517315  0.37237303  1  0  -0.235344  0  3.272757  0  0  -0.156759  0  3.521292  0  0  -0.171645  0  3.542631  0  0  -0.38602  -0.146091  0  3.505998  0
O  O74  1  0.67768696  0.66294399  0.87070436  1  0  -0.704271  0  1.974281  0  0  -0.632701  0  2.213088  0  0  -0.661731  0  2.205566  0  0  -0.380203  -0.611852  0  2.217585  0
O  O75  1  0.32230733  0.33706207  0.12930654  1  0  -0.704028  0  1.974519  0  0  -0.632668  0  2.213475  0  0  -0.661692  0  2.205946  0  0  -0.380135  -0.611824  0  2.217973  0
O  O76  1  0.74629797  0.83455510  0.79142548  1  0  -0.702365  0  1.965744  0  0  -0.6399  0  2.197355  0  0  -0.667095  0  2.187228  0  0  -0.358049  -0.62077  0  2.204022  0
O  O77  1  0.25370447  0.16545460  0.20859159  1  0  -0.702503  0  1.965557  0  0  -0.639957  0  2.197008  0  0  -0.66716  0  2.186893  0  0  -0.35808  -0.62084  0  2.203681  0
O  O78  1  0.41771809  0.21393185  0.88627262  1  0  -0.699219  0  1.966373  0  0  -0.629911  0  2.202189  0  0  -0.658213  0  2.19364  0  0  -0.366481  -0.609605  0  2.207384  0
O  O79  1  0.58227093  0.78606641  0.11372686  1  0  -0.699181  0  1.966516  0  0  -0.629838  0  2.202299  0  0  -0.658159  0  2.193768  0  0  -0.366481  -0.609536  0  2.207498  0
O  O80  1  0.41010721  0.99474138  0.86050610  1  0  -0.735489  0  1.980094  0  0  -0.670905  0  2.225887  0  0  -0.700144  0  2.215867  0  0  -0.383053  -0.64997  0  2.232156  0
O  O81  1  0.58986731  0.00524106  0.13946864  1  0  -0.73555  0  1.980123  0  0  -0.671044  0  2.22605  0  0  -0.700287  0  2.216029  0  0  -0.383102  -0.650103  0  2.232315  0
O  O82  1  0.30014543  0.43357818  0.64593166  1  0  -0.724692  0  2.00196  0  0  -0.656283  0  2.243206  0  0  -0.685132  0  2.234196  0  0  -0.372274  -0.63568  0  2.248749  0
O  O83  1  0.69984733  0.56640350  0.35405955  1  0  -0.724468  0  2.001549  0  0  -0.656184  0  2.242868  0  0  -0.68504  0  2.233867  0  0  -0.372205  -0.635575  0  2.248389  0
O  O84  1  0.00543104  0.30982070  0.48016119  1  0  -0.624558  0  1.879394  0  0  -0.583055  0  2.104048  0  0  -0.604381  0  2.093275  0  0  -0.333629  -0.568272  0  2.111337  0
O  O85  1  0.99455056  0.69015000  0.51982429  1  0  -0.62441  0  1.879979  0  0  -0.582953  0  2.104662  0  0  -0.604263  0  2.093874  0  0  -0.333598  -0.568178  0  2.111953  0
O  O86  1  0.77223674  0.31599680  0.87208892  1  0  -0.684462  0  2.009972  0  0  -0.617242  0  2.246324  0  0  -0.64569  0  2.238327  0  0  -0.336877  -0.597112  0  2.251208  0
O  O87  1  0.22775241  0.68399844  0.12791261  1  0  -0.684351  0  2.009944  0  0  -0.617148  0  2.246258  0  0  -0.645595  0  2.238258  0  0  -0.336829  -0.597018  0  2.251144  0
O  O88  1  0.00959347  0.29786661  0.83788177  1  0  -0.634616  0  1.990298  0  0  -0.569095  0  2.21018  0  0  -0.594111  0  2.19875  0  0  -0.298741  -0.551628  0  2.217799  0
O  O89  1  0.99038589  0.70211996  0.16211999  1  0  -0.634581  0  1.990228  0  0  -0.56908  0  2.210115  0  0  -0.594096  0  2.198682  0  0  -0.298715  -0.551609  0  2.217737  0
O  O90  1  0.66894301  0.50056900  0.08219586  1  0  -0.874043  0  1.860071  0  0  -0.808395  0  2.05555  0  0  -0.83117  0  2.025513  0  0  -0.608836  -0.791893  0  2.076631  0
O  O91  1  0.33104205  0.49943124  0.91780646  1  0  -0.874164  0  1.860096  0  0  -0.808524  0  2.055556  0  0  -0.831291  0  2.02553  0  0  -0.608801  -0.792024  0  2.076639  0
O  O92  1  0.32120816  0.68752259  0.76637925  1  0  -0.884306  0  1.797121  0  0  -0.828333  0  1.978957  0  0  -0.848561  0  1.946651  0  0  -0.588115  -0.813744  0  2.001776  0
O  O93  1  0.67879070  0.31247909  0.23361642  1  0  -0.88418  0  1.797375  0  0  -0.828171  0  1.979146  0  0  -0.848418  0  1.946888  0  0  -0.588137  -0.813584  0  2.00197  0
O  O94  1  0.93592144  0.92939781  0.10970079  1  0  -0.884908  0  1.858464  0  0  -0.826658  0  2.038727  0  0  -0.848696  0  2.007325  0  0  -0.604094  -0.810848  0  2.061088  0
O  O95  1  0.06408224  0.07061368  0.89030571  1  0  -0.884904  0  1.858484  0  0  -0.826654  0  2.038693  0  0  -0.848655  0  2.007368  0  0  -0.604103  -0.810851  0  2.061043  0
O  O96  1  0.82579254  0.12542366  0.99400876  1  0  -0.862584  0  1.813476  0  0  -0.811275  0  1.994222  0  0  -0.831328  0  1.962446  0  0  -0.621644  -0.796958  0  2.016775  0
O  O97  1  0.17420457  0.87457909  0.00599099  1  0  -0.862572  0  1.813542  0  0  -0.811272  0  1.994274  0  0  -0.831321  0  1.962494  0  0  -0.621655  -0.796955  0  2.016828  0
