# generated using pymatgen
data_Zn2H19C35N3O8
_symmetry_space_group_name_H-M   'P 1'
_cell_length_a   9.74960165
_cell_length_b   11.04127258
_cell_length_c   15.23779744
_cell_angle_alpha   92.49973175
_cell_angle_beta   87.73916298
_cell_angle_gamma   90.90066969
_symmetry_Int_Tables_number   1
_chemical_formula_structural   Zn2H19C35N3O8
_chemical_formula_sum   'Zn2 H19 C35 N3 O8'
_cell_volume   1637.32105306
_cell_formula_units_Z   1
loop_
 _symmetry_equiv_pos_site_id
 _symmetry_equiv_pos_as_xyz
  1  'x, y, z'
loop_
 _atom_site_type_symbol
 _atom_site_label
 _atom_site_symmetry_multiplicity
 _atom_site_fract_x
 _atom_site_fract_y
 _atom_site_fract_z
 _atom_site_occupancy
 _atom_site_pbe_bader_charge
 _atom_site_pbe_bader_spin_density
 _atom_site_pbe_cm5_charge
 _atom_site_pbe_ddec_charge
 _atom_site_pbe_ddec_spin_density
 _atom_site_pbe_ddec_sum_bond_order
 _atom_site_pbe_magmom
Zn  Zn0  1  0.63830736  0.50494775  0.49807283  1  1.284127  0  0.666554  0.816271  0  2.423839  0
Zn  Zn1  1  0.35174194  0.49758278  0.50419106  1  1.284213  0  0.668379  0.818534  0  2.431084  0
H  H2  1  0.29299226  0.43620874  0.77851017  1  0.056558  0  0.102155  0.106893  0  1.009629  0
H  H3  1  0.28037484  0.10604741  0.54641661  1  0.079883  0  0.104522  0.110403  0  0.996621  0
H  H4  1  0.79055837  0.13822294  0.40819619  1  0.03805  0  0.102661  0.118086  0  0.975589  0
H  H5  1  0.83070485  0.11263366  0.51941639  1  0.08251  0  0.105146  0.120831  0  0.973779  0
H  H6  1  0.77121512  0.91843314  0.37377754  1  0.103076  0  0.122185  0.109154  0  0.935944  0
H  H7  1  0.11192776  0.44561666  0.63191437  1  0.123356  0  0.134966  0.116393  0  0.973546  0
H  H8  1  0.85291794  0.44604163  0.62919802  1  0.147841  0  0.135191  0.117206  0  0.972964  0
H  H9  1  0.88801323  0.51611764  0.29427763  1  0.085801  0  0.10895  0.13135  0  0.979413  0
H  H10  1  0.87797834  0.66961744  0.33688234  1  0.08594  0  0.108142  0.128555  0  0.979595  0
H  H11  1  0.14863386  0.52950219  0.29760961  1  0.105306  0  0.107097  0.131407  0  0.99608  0
H  H12  1  0.68842155  0.61242471  0.78099387  1  0.085944  0  0.105392  0.113199  0  1.00088  0
H  H13  1  0.13681038  0.67995753  0.34536630  1  0.116027  0  0.115289  0.141521  0  0.955938  0
H  H14  1  0.80305802  0.65516127  0.92333301  1  0.06607  0  0.103865  0.106922  0  0.989941  0
H  H15  1  0.80613033  0.63610545  0.08436635  1  0.036295  0  0.100194  0.102851  0  0.994721  0
H  H16  1  0.69430579  0.56518831  0.22350331  1  0.069359  0  0.098473  0.098921  0  1.040483  0
H  H17  1  0.30251670  0.38287841  0.22027195  1  0.059614  0  0.102057  0.106626  0  1.010474  0
H  H18  1  0.18709653  0.34154856  0.07810826  1  0.040212  0  0.101425  0.103645  0  0.995032  0
H  H19  1  0.18294331  0.36258756  0.91732870  1  0.053979  0  0.102913  0.1048  0  0.991963  0
H  H20  1  0.28385461  0.88057031  0.53150247  1  0.113691  0  0.107017  0.117864  0  1.000911  0
C  C21  1  0.50044472  0.73533529  0.48602314  1  1.621935  0  0.214978  0.593487  0  4.194031  0
C  C22  1  0.37936503  0.45805455  0.90708864  1  -0.017255  0  -0.00985  0.072721  0  4.050995  0
C  C23  1  0.71824188  0.61022903  0.95846488  1  -0.049456  0  -0.091206  -0.133146  0  4.020077  0
C  C24  1  0.71992634  0.59972276  0.04739810  1  -0.0806  0  -0.094486  -0.139152  0  4.02794  0
C  C25  1  0.60944280  0.54095458  0.09469610  1  0.091669  0  -0.010207  0.075766  0  4.052351  0
C  C26  1  0.49560722  0.49348439  0.04708996  1  -0.030159  0  0.002913  0.003604  0  3.907472  0
C  C27  1  0.38387500  0.43471107  0.09277773  1  -0.027164  0  -0.010575  0.074696  0  4.047334  0
C  C28  1  0.27146224  0.38732332  0.04313956  1  -0.055018  0  -0.09441  -0.139355  0  4.028628  0
C  C29  1  0.26913418  0.39887796  0.95433313  1  -0.020216  0  -0.091115  -0.131533  0  4.022667  0
C  C30  1  0.60896523  0.52901930  0.18592054  1  -0.007476  0  -0.087983  -0.153867  0  3.951551  0
C  C31  1  0.49858784  0.47366405  0.23073848  1  -0.051725  0  -0.021462  -0.024465  0  4.012265  0
C  C32  1  0.49880383  0.47020635  0.32908399  1  1.54133  0  0.213157  0.592336  0  4.171223  0
C  C33  1  0.38719667  0.42673189  0.18435518  1  -0.003992  0  -0.086399  -0.156396  0  3.950467  0
C  C34  1  0.61513756  0.94243314  0.48014832  1  0.028085  0  -0.002843  0.017406  0  3.880573  0
C  C35  1  0.49845836  0.87039255  0.49403396  1  -0.056668  0  -0.010334  -0.058865  0  3.974562  0
C  C36  1  0.37759428  0.93342706  0.51936589  1  -0.053448  0  -0.079948  -0.096014  0  3.95665  0
C  C37  1  0.37596159  0.05984472  0.52824671  1  0.040278  0  -0.080727  -0.092831  0  3.971578  0
C  C38  1  0.49494594  0.13150424  0.51377989  1  -0.040472  0  -0.010132  -0.065375  0  3.962391  0
C  C39  1  0.61465493  0.06824813  0.49095763  1  -0.072417  0  -0.005388  0.061681  0  3.914278  0
C  C40  1  0.76529809  0.08346361  0.46518005  1  0.004576  0  -0.136239  -0.216825  0  3.833101  0
C  C41  1  0.76439661  0.94037160  0.44505233  1  0.081176  0  -0.045082  -0.042616  0  3.915159  0
C  C42  1  0.07310682  0.53999815  0.43666119  1  0.60153  0  0.150619  0.207006  0  3.857051  0
C  C43  1  0.49088155  0.26671588  0.51752673  1  1.590793  0  0.213542  0.596474  0  4.186309  0
C  C44  1  0.05947560  0.47229038  0.57410174  1  0.523316  0  0.066157  0.046729  0  3.86903  0
C  C45  1  0.91655112  0.47205381  0.57251216  1  0.41076  0  0.067226  0.048415  0  3.867502  0
C  C46  1  0.93024834  0.53810285  0.43467504  1  0.556847  0  0.148638  0.2023  0  3.868646  0
C  C47  1  0.92892451  0.58258346  0.34246384  1  -0.019001  0  -0.139172  -0.229112  0  3.827602  0
C  C48  1  0.09190439  0.58821434  0.34571368  1  -0.076918  0  -0.138084  -0.228995  0  3.814947  0
C  C49  1  0.48981950  0.52910173  0.67294866  1  1.576214  0  0.215302  0.595785  0  4.163954  0
C  C50  1  0.37933142  0.47070410  0.81596578  1  0.017745  0  -0.082855  -0.143934  0  3.937832  0
C  C51  1  0.49051984  0.52486016  0.77114460  1  -0.039472  0  -0.018762  -0.022705  0  4.004751  0
C  C52  1  0.60282487  0.57041988  0.81722918  1  0.001993  0  -0.083353  -0.149247  0  3.935887  0
C  C53  1  0.60574395  0.56293204  0.90885218  1  -0.012058  0  -0.008955  0.07434  0  4.044765  0
C  C54  1  0.49356773  0.50491574  0.95460258  1  -0.041758  0  0.003844  0.004305  0  3.908829  0
C  C55  1  0.86561634  0.86884723  0.48619964  1  0.876286  0  0.180574  0.271059  0  3.982466  0
N  N56  1  0.14133704  0.50569529  0.50472898  1  -1.207913  0  -0.285417  -0.177316  0  3.460656  0
N  N57  1  0.84866746  0.50409997  0.50098601  1  -1.204469  0  -0.288131  -0.179527  0  3.467005  0
N  N58  1  0.95085251  0.81268228  0.51664237  1  -1.186184  0  -0.328484  -0.401929  0  2.758785  0
O  O59  1  0.61854675  0.68716037  0.47855856  1  -1.157085  0  -0.314536  -0.540976  0  2.315561  0
O  O60  1  0.38541706  0.67940452  0.48877609  1  -1.16892  0  -0.314331  -0.541654  0  2.327301  0
O  O61  1  0.61522089  0.47682474  0.36430945  1  -1.161775  0  -0.318791  -0.548543  0  2.321751  0
O  O62  1  0.38238970  0.46372542  0.36980733  1  -1.171832  0  -0.316223  -0.548897  0  2.318361  0
O  O63  1  0.60677948  0.32213672  0.51448752  1  -1.162991  0  -0.31813  -0.549494  0  2.308179  0
O  O64  1  0.37324373  0.31535496  0.52122451  1  -1.165055  0  -0.319938  -0.545349  0  2.313774  0
O  O65  1  0.60593112  0.53756013  0.63193782  1  -1.172194  0  -0.318445  -0.55357  0  2.315775  0
O  O66  1  0.37343316  0.52151794  0.63787281  1  -1.168691  0  -0.317531  -0.547855  0  2.321892  0
