# generated using pymatgen
data_Zn5H30(C17O12)2
_symmetry_space_group_name_H-M   'P 1'
_cell_length_a   8.39634880
_cell_length_b   9.86378096
_cell_length_c   24.64192403
_cell_angle_alpha   89.64566683
_cell_angle_beta   90.00022059
_cell_angle_gamma   90.00016762
_symmetry_Int_Tables_number   1
_chemical_formula_structural   Zn5H30(C17O12)2
_chemical_formula_sum   'Zn10 H60 C68 O48'
_cell_volume   2040.79885038
_cell_formula_units_Z   2
loop_
 _symmetry_equiv_pos_site_id
 _symmetry_equiv_pos_as_xyz
  1  'x, y, z'
loop_
 _atom_site_type_symbol
 _atom_site_label
 _atom_site_symmetry_multiplicity
 _atom_site_fract_x
 _atom_site_fract_y
 _atom_site_fract_z
 _atom_site_occupancy
 _atom_site_pbe_bader_charge
 _atom_site_pbe_bader_spin_density
 _atom_site_pbe_cm5_charge
 _atom_site_pbe_ddec_charge
 _atom_site_pbe_ddec_spin_density
 _atom_site_pbe_ddec_sum_bond_order
 _atom_site_pbe_magmom
Zn  Zn0  1  0.22750590  0.68312827  0.40254122  1  1.337308  0  0.665534  0.995033  0  2.174932  0
Zn  Zn1  1  0.72750626  0.81687295  0.09745948  1  1.337229  0  0.66554  0.995057  0  2.17497  0
Zn  Zn2  1  0.77249445  0.31687649  0.59745897  1  1.337374  0  0.665582  0.995124  0  2.17486  0
Zn  Zn3  1  0.27249290  0.18312675  0.90254070  1  1.33725  0  0.665529  0.995062  0  2.1749  0
Zn  Zn4  1  0.33335386  0.76219420  0.09107279  1  1.334696  0  0.666155  0.966088  0  2.152107  0
Zn  Zn5  1  0.83335508  0.73780020  0.40892764  1  1.334891  0  0.666197  0.966115  0  2.152094  0
Zn  Zn6  1  0.66664411  0.23780348  0.90892699  1  1.334703  0  0.666159  0.966088  0  2.152089  0
Zn  Zn7  1  0.16664288  0.26219849  0.59107255  1  1.334749  0  0.666165  0.966089  0  2.152107  0
Zn  Zn8  1  0.50000237  0.99999941  0.00000043  1  1.37812  0  0.665244  1.034847  0  2.234568  0
Zn  Zn9  1  0.99999906  0.50000048  0.49999981  1  1.378113  0  0.665258  1.0349  0  2.234471  0
H  H10  1  0.26812814  0.30604267  0.06374106  1  0.088655  0  0.102965  0.108277  0  1.022228  0
H  H11  1  0.76813072  0.19394766  0.43626161  1  0.08868  0  0.102977  0.10821  0  1.022184  0
H  H12  1  0.73186506  0.69395602  0.93625872  1  0.088587  0  0.102953  0.108245  0  1.022184  0
H  H13  1  0.23186725  0.80604898  0.56373938  1  0.08867  0  0.103003  0.108255  0  1.022186  0
H  H14  1  0.95141777  0.46904532  0.18347561  1  0.058835  0  0.103948  0.106979  0  1.006241  0
H  H15  1  0.45142306  0.03094756  0.31652405  1  0.058783  0  0.103933  0.106923  0  1.006314  0
H  H16  1  0.04858139  0.53095336  0.81652498  1  0.058859  0  0.103941  0.106968  0  1.006253  0
H  H17  1  0.54858206  0.96905321  0.68347329  1  0.058805  0  0.103905  0.106898  0  1.006289  0
H  H18  1  0.00788182  0.03574289  0.16880156  1  0.122378  0  0.105446  0.120054  0  1.023867  0
H  H19  1  0.50788175  0.46424879  0.33120280  1  0.122531  0  0.105438  0.120007  0  1.023933  0
H  H20  1  0.99212448  0.96425374  0.83119984  1  0.122412  0  0.105436  0.120019  0  1.023872  0
H  H21  1  0.49211860  0.53575087  0.66879941  1  0.122488  0  0.105437  0.120007  0  1.023863  0
H  H22  1  0.77166902  0.13820925  0.21685515  1  0.048887  0  0.099317  0.111933  0  1.007711  0
H  H23  1  0.27167030  0.36178922  0.28314712  1  0.048921  0  0.099278  0.111926  0  1.007719  0
H  H24  1  0.22833609  0.86178943  0.78314543  1  0.048718  0  0.099268  0.111913  0  1.007694  0
H  H25  1  0.72833124  0.63821252  0.71685225  1  0.048932  0  0.099279  0.111953  0  1.007707  0
H  H26  1  0.76523684  0.31443290  0.22972347  1  0.04881  0  0.095663  0.10379  0  1.011327  0
H  H27  1  0.26523499  0.18556355  0.27027716  1  0.048765  0  0.095674  0.103825  0  1.011268  0
H  H28  1  0.23476590  0.68556477  0.77027630  1  0.048826  0  0.095698  0.103828  0  1.011237  0
H  H29  1  0.73476417  0.81443717  0.72972261  1  0.048757  0  0.095656  0.103803  0  1.011283  0
H  H30  1  0.95494843  0.41536291  0.29859910  1  0.092699  0  0.109912  0.120024  0  0.987392  0
H  H31  1  0.45494903  0.08463603  0.20140219  1  0.092744  0  0.109901  0.119995  0  0.987401  0
H  H32  1  0.04505430  0.58463783  0.70139986  1  0.092745  0  0.109878  0.120022  0  0.987364  0
H  H33  1  0.54505727  0.91536465  0.79859961  1  0.092737  0  0.109886  0.119994  0  0.987359  0
H  H34  1  0.16488019  0.13845475  0.41365802  1  0.120794  0  0.105227  0.109798  0  1.010138  0
H  H35  1  0.66487582  0.36154852  0.08634371  1  0.120873  0  0.105215  0.109785  0  1.01024  0
H  H36  1  0.83512373  0.86155100  0.58634379  1  0.120874  0  0.105209  0.109759  0  1.010243  0
H  H37  1  0.33512811  0.63844814  0.91365607  1  0.120919  0  0.105209  0.109726  0  1.010238  0
H  H38  1  0.91776167  0.98362016  0.27474401  1  0.087751  0  0.10648  0.115864  0  0.999313  0
H  H39  1  0.41775993  0.51637947  0.22525896  1  0.087658  0  0.10647  0.115846  0  0.999298  0
H  H40  1  0.08223629  0.01637948  0.72525901  1  0.087863  0  0.106453  0.115841  0  0.999381  0
H  H41  1  0.58223685  0.48362127  0.77473960  1  0.087666  0  0.106448  0.115858  0  0.999318  0
H  H42  1  0.54086980  0.74996926  0.01578108  1  0.581272  0  0.304681  0.392619  0  0.899423  0
H  H43  1  0.04086582  0.75003150  0.48421937  1  0.581271  0  0.304673  0.392599  0  0.899455  0
H  H44  1  0.45912698  0.25003246  0.98421910  1  0.581248  0  0.304664  0.392569  0  0.899475  0
H  H45  1  0.95912857  0.24996717  0.51578162  1  0.58128  0  0.304669  0.392585  0  0.899509  0
H  H46  1  0.22675667  0.80618999  0.98096751  1  0.658446  0  0.298521  0.403066  0  0.930047  0
H  H47  1  0.72675572  0.69380887  0.51903261  1  0.658395  0  0.298521  0.403075  0  0.930028  0
H  H48  1  0.77324607  0.19380769  0.01903227  1  0.658448  0  0.298525  0.403048  0  0.930055  0
H  H49  1  0.27324463  0.30619185  0.48096717  1  0.658448  0  0.298519  0.40303  0  0.930079  0
H  H50  1  0.18400141  0.66454709  0.00980672  1  0.621405  0  0.313173  0.400176  0  0.902074  0
H  H51  1  0.68400389  0.83545203  0.49019229  1  0.621407  0  0.31317  0.400193  0  0.902088  0
H  H52  1  0.81599775  0.33545161  0.99019264  1  0.621405  0  0.313164  0.400146  0  0.902111  0
H  H53  1  0.31599527  0.16454870  0.50980708  1  0.621424  0  0.313168  0.400123  0  0.902115  0
H  H54  1  0.33848221  0.72483187  0.30183551  1  0.615628  0  0.331576  0.409412  0  0.856891  0
H  H55  1  0.83848595  0.77516864  0.19816411  1  0.615659  0  0.331627  0.409461  0  0.856864  0
H  H56  1  0.66150980  0.27516882  0.69816548  1  0.615658  0  0.331621  0.409421  0  0.856892  0
H  H57  1  0.16151321  0.22483008  0.80183445  1  0.615659  0  0.331607  0.409428  0  0.856891  0
H  H58  1  0.47843262  0.76352333  0.34209968  1  0.673062  0  0.296236  0.402252  0  0.930036  0
H  H59  1  0.97843339  0.73647552  0.15789931  1  0.673062  0  0.296253  0.402301  0  0.929969  0
H  H60  1  0.52156535  0.23647943  0.65789928  1  0.673277  0  0.296246  0.402273  0  0.930007  0
H  H61  1  0.02156458  0.26352116  0.84209966  1  0.673263  0  0.29623  0.402263  0  0.930034  0
H  H62  1  0.48907948  0.67847022  0.46871050  1  0.672324  0  0.295549  0.412399  0  0.911873  0
H  H63  1  0.98907912  0.82152964  0.03128973  1  0.672332  0  0.295541  0.412362  0  0.911914  0
H  H64  1  0.51092087  0.32152947  0.53129009  1  0.672331  0  0.295549  0.412378  0  0.911893  0
H  H65  1  0.01092004  0.17846803  0.96871045  1  0.672338  0  0.295566  0.412405  0  0.911853  0
H  H66  1  0.33336181  0.60343119  0.49254155  1  0.651008  0  0.292166  0.386599  0  0.958531  0
H  H67  1  0.83336381  0.89656729  0.00745766  1  0.651028  0  0.292159  0.386544  0  0.958614  0
H  H68  1  0.66663735  0.39656648  0.50745863  1  0.651028  0  0.292173  0.386614  0  0.958514  0
H  H69  1  0.16663654  0.10343140  0.99254252  1  0.651035  0  0.292168  0.38658  0  0.958555  0
C  C70  1  0.14459114  0.15865921  0.11362906  1  0.006493  0  -0.021367  -0.044932  0  4.00776  0
C  C71  1  0.64458771  0.34133689  0.38637426  1  0.007189  0  -0.021269  -0.044942  0  4.007902  0
C  C72  1  0.85540802  0.84133949  0.88637071  1  0.006479  0  -0.021369  -0.044992  0  4.007998  0
C  C73  1  0.35540550  0.65866176  0.61362795  1  0.006386  0  -0.021326  -0.045013  0  4.00794  0
C  C74  1  0.18137988  0.28982638  0.09590027  1  -0.010217  0  -0.077993  -0.108606  0  3.950795  0
C  C75  1  0.68137738  0.21016677  0.40410270  1  -0.010224  0  -0.078033  -0.108504  0  3.950674  0
C  C76  1  0.81861809  0.71017330  0.90410073  1  -0.010199  0  -0.07798  -0.108527  0  3.950704  0
C  C77  1  0.31861820  0.78982887  0.59589748  1  -0.010317  0  -0.078067  -0.108566  0  3.950745  0
C  C78  1  0.11474530  0.40185009  0.12192225  1  -0.069415  0  -0.020347  -0.036608  0  3.998005  0
C  C79  1  0.61474451  0.09814496  0.37807900  1  -0.069355  0  -0.020312  -0.036495  0  3.997981  0
C  C80  1  0.88525386  0.59815063  0.87807752  1  -0.069398  0  -0.020316  -0.036608  0  3.997958  0
C  C81  1  0.38525346  0.90185274  0.62191956  1  -0.069365  0  -0.020302  -0.036575  0  3.998047  0
C  C82  1  0.00404857  0.38110153  0.16379969  1  -0.066479  0  -0.07428  -0.126492  0  3.901839  0
C  C83  1  0.50404857  0.11889224  0.33620060  1  -0.066593  0  -0.074319  -0.126477  0  3.901974  0
C  C84  1  0.99595178  0.61889816  0.83620089  1  -0.06651  0  -0.074254  -0.126451  0  3.901824  0
C  C85  1  0.49594939  0.88110749  0.66379795  1  -0.066524  0  -0.074262  -0.126346  0  3.901739  0
C  C86  1  0.96222684  0.25010948  0.18063967  1  0.095578  0  -0.005083  0.124921  0  3.94999  0
C  C87  1  0.46222695  0.24988340  0.31936122  1  0.095596  0  -0.00503  0.124883  0  3.950107  0
C  C88  1  0.03777470  0.74988921  0.81936011  1  0.095539  0  -0.005092  0.124911  0  3.950017  0
C  C89  1  0.53777697  0.75011633  0.68063733  1  0.095613  0  -0.005023  0.124851  0  3.950027  0
C  C90  1  0.03576190  0.13911591  0.15594585  1  -0.072038  0  -0.073701  -0.123035  0  3.873468  0
C  C91  1  0.53576163  0.36087586  0.34405732  1  -0.072788  0  -0.073695  -0.122962  0  3.873601  0
C  C92  1  0.96424202  0.86088173  0.84405595  1  -0.072005  0  -0.073697  -0.123005  0  3.873472  0
C  C93  1  0.46423396  0.63912281  0.65594407  1  -0.071992  0  -0.073672  -0.122888  0  3.87344  0
C  C94  1  0.84501778  0.22678923  0.22642907  1  -0.01574  0  -0.157739  -0.257046  0  3.967933  0
C  C95  1  0.34501626  0.27320738  0.27357329  1  -0.015759  0  -0.157768  -0.257118  0  3.968031  0
C  C96  1  0.15498615  0.77320942  0.77357273  1  -0.015593  0  -0.157735  -0.257092  0  3.967857  0
C  C97  1  0.65498409  0.72679334  0.72642648  1  -0.015786  0  -0.157803  -0.257225  0  3.968031  0
C  C98  1  0.92748483  0.20248220  0.27989586  1  0.050399  0  -0.003537  0.129735  0  3.967499  0
C  C99  1  0.42748399  0.29751566  0.22010540  1  0.050051  0  -0.003573  0.129668  0  3.967365  0
C  C100  1  0.07251671  0.79751951  0.72010514  1  0.050371  0  -0.003544  0.129755  0  3.967381  0
C  C101  1  0.57251636  0.70248609  0.77989356  1  0.050025  0  -0.003542  0.129779  0  3.967292  0
C  C102  1  0.97916599  0.31121624  0.31124826  1  -0.031128  0  -0.073477  -0.136565  0  3.919182  0
C  C103  1  0.47916562  0.18878379  0.18875225  1  -0.030801  0  -0.07345  -0.136475  0  3.919081  0
C  C104  1  0.02083674  0.68878753  0.68875111  1  -0.031066  0  -0.073473  -0.136619  0  3.919158  0
C  C105  1  0.52083711  0.81121693  0.81124752  1  -0.030843  0  -0.073427  -0.136467  0  3.919047  0
C  C106  1  0.06346225  0.28912838  0.35953687  1  -0.019921  0  -0.019092  -0.04506  0  4.017239  0
C  C107  1  0.56346036  0.21087265  0.14046269  1  -0.019741  0  -0.019079  -0.045099  0  4.017173  0
C  C108  1  0.93653691  0.71087539  0.64046250  1  -0.019933  0  -0.019054  -0.044999  0  4.017151  0
C  C109  1  0.43654119  0.78912808  0.85953627  1  -0.019759  0  -0.019089  -0.045117  0  4.017142  0
C  C110  1  0.09754360  0.15722172  0.37664603  1  -0.030583  0  -0.076019  -0.104307  0  3.932745  0
C  C111  1  0.59754196  0.34278139  0.12335520  1  -0.030594  0  -0.075979  -0.104221  0  3.93291  0
C  C112  1  0.90245556  0.84278403  0.62335578  1  -0.030451  0  -0.076006  -0.104256  0  3.932976  0
C  C113  1  0.40245719  0.65721935  0.87664336  1  -0.030637  0  -0.075961  -0.104119  0  3.932799  0
C  C114  1  0.04534674  0.04755224  0.34576225  1  -0.038459  0  -0.018658  -0.026157  0  3.997541  0
C  C115  1  0.54534464  0.45244567  0.15423932  1  -0.038749  0  -0.018635  -0.026173  0  3.997511  0
C  C116  1  0.95465599  0.95245049  0.65423874  1  -0.03851  0  -0.018646  -0.026186  0  3.9977  0
C  C117  1  0.45465571  0.54755508  0.84575884  1  -0.038453  0  -0.018711  -0.026245  0  3.997548  0
C  C118  1  0.95901389  0.07052436  0.29800047  1  -0.074739  0  -0.075599  -0.139012  0  3.90193  0
C  C119  1  0.45901210  0.42947560  0.20200123  1  -0.074699  0  -0.075601  -0.138987  0  3.901829  0
C  C120  1  0.04098646  0.92947836  0.70200093  1  -0.074899  0  -0.075623  -0.139054  0  3.902032  0
C  C121  1  0.54098586  0.57052617  0.79799692  1  -0.074575  0  -0.075534  -0.139025  0  3.901702  0
C  C122  1  0.23040906  0.04090824  0.08966720  1  1.548594  0  0.226639  0.605339  0  4.138357  0
C  C123  1  0.73040749  0.45908910  0.41033542  1  1.54854  0  0.226764  0.605597  0  4.1383  0
C  C124  1  0.76959129  0.95909147  0.91033217  1  1.548589  0  0.226595  0.605313  0  4.138407  0
C  C125  1  0.26958929  0.54091259  0.58966679  1  1.548533  0  0.226734  0.605626  0  4.138165  0
C  C126  1  0.17377588  0.54038604  0.10799638  1  1.532013  0  0.206076  0.577476  0  4.178154  0
C  C127  1  0.67377767  0.95960696  0.39200303  1  1.531981  0  0.206002  0.577133  0  4.17815  0
C  C128  1  0.82622090  0.45961265  0.89200299  1  1.532076  0  0.206097  0.577559  0  4.178007  0
C  C129  1  0.32621553  0.04038872  0.60799512  1  1.532004  0  0.205829  0.577058  0  4.178602  0
C  C130  1  0.12095905  0.40739441  0.39120490  1  1.538833  0  0.222098  0.600053  0  4.152419  0
C  C131  1  0.62095997  0.09260778  0.10879434  1  1.538688  0  0.222109  0.60013  0  4.152297  0
C  C132  1  0.87904368  0.59261140  0.60879366  1  1.538596  0  0.222222  0.600259  0  4.15207  0
C  C133  1  0.37904276  0.90738988  0.89120625  1  1.538611  0  0.222232  0.600319  0  4.152053  0
C  C134  1  0.08016464  0.90648391  0.36393062  1  1.537049  0  0.203756  0.574201  0  4.200992  0
C  C135  1  0.58016229  0.59351895  0.13607150  1  1.537075  0  0.203805  0.574201  0  4.201032  0
C  C136  1  0.91983690  0.09352283  0.63607240  1  1.536789  0  0.203792  0.574248  0  4.20109  0
C  C137  1  0.41983568  0.40648077  0.86392746  1  1.536737  0  0.203716  0.574073  0  4.201086  0
O  O138  1  0.24524220  0.93491118  0.11889904  1  -1.14559  0  -0.299511  -0.511084  0  2.304857  0
O  O139  1  0.74523895  0.56508094  0.38110288  1  -1.145447  0  -0.299571  -0.511144  0  2.304935  0
O  O140  1  0.75475934  0.06508853  0.88110032  1  -1.145619  0  -0.299454  -0.511034  0  2.304826  0
O  O141  1  0.25475544  0.43491771  0.61889892  1  -1.145499  0  -0.299598  -0.511213  0  2.304826  0
O  O142  1  0.28733356  0.05543510  0.04169818  1  -1.208831  0  -0.316433  -0.592246  0  2.401682  0
O  O143  1  0.78733486  0.44455731  0.45830410  1  -1.20893  0  -0.316563  -0.592476  0  2.401657  0
O  O144  1  0.71266679  0.94456562  0.95830119  1  -1.208778  0  -0.316463  -0.59223  0  2.401623  0
O  O145  1  0.21266787  0.55543933  0.54169689  1  -1.208852  0  -0.316462  -0.592355  0  2.40158  0
O  O146  1  0.27920961  0.55322705  0.07036282  1  -1.157585  0  -0.329559  -0.579939  0  2.200728  0
O  O147  1  0.77921059  0.94676316  0.42963753  1  -1.157771  0  -0.329568  -0.579822  0  2.200867  0
O  O148  1  0.72078836  0.44676657  0.92963696  1  -1.157617  0  -0.329608  -0.580013  0  2.200784  0
O  O149  1  0.22078142  0.05323046  0.57036224  1  -1.15773  0  -0.329414  -0.579696  0  2.20099  0
O  O150  1  0.12917944  0.64380172  0.13481481  1  -1.189447  0  -0.310984  -0.559523  0  2.226068  0
O  O151  1  0.62918534  0.85619018  0.36518331  1  -1.189472  0  -0.310928  -0.559369  0  2.225886  0
O  O152  1  0.87081734  0.35619699  0.86518374  1  -1.189461  0  -0.310976  -0.559573  0  2.226005  0
O  O153  1  0.37081739  0.14380859  0.63481200  1  -1.189362  0  -0.310895  -0.55938  0  2.226054  0
O  O154  1  0.14144300  0.51784634  0.36534718  1  -1.149114  0  -0.299761  -0.522205  0  2.320523  0
O  O155  1  0.64144673  0.98215467  0.13465340  1  -1.149074  0  -0.299803  -0.522251  0  2.32038  0
O  O156  1  0.85855616  0.48215744  0.63465138  1  -1.148955  0  -0.299793  -0.522316  0  2.320497  0
O  O157  1  0.35855600  0.01784498  0.86534921  1  -1.148997  0  -0.299773  -0.522331  0  2.320491  0
O  O158  1  0.14448144  0.39249789  0.44238952  1  -1.218944  0  -0.325202  -0.606625  0  2.374831  0
O  O159  1  0.64448064  0.10750436  0.05760975  1  -1.218994  0  -0.325174  -0.60665  0  2.374888  0
O  O160  1  0.85552843  0.60751096  0.55760905  1  -1.218995  0  -0.32527  -0.606734  0  2.374605  0
O  O161  1  0.35552924  0.89249027  0.94239043  1  -1.218946  0  -0.325294  -0.606757  0  2.374645  0
O  O162  1  0.20092203  0.88784310  0.39483790  1  -1.15051  0  -0.321779  -0.559366  0  2.266368  0
O  O163  1  0.70091940  0.61216109  0.10516357  1  -1.150921  0  -0.32178  -0.559422  0  2.26639  0
O  O164  1  0.79907832  0.11216262  0.60516553  1  -1.150992  0  -0.321804  -0.559405  0  2.26639  0
O  O165  1  0.29907738  0.38783966  0.89483499  1  -1.150899  0  -0.32174  -0.559307  0  2.266364  0
O  O166  1  0.99049698  0.80971351  0.34779074  1  -1.185646  0  -0.333542  -0.585864  0  2.258417  0
O  O167  1  0.49049381  0.69028533  0.15221030  1  -1.184951  0  -0.333568  -0.585781  0  2.258513  0
O  O168  1  0.00950337  0.19029123  0.65221107  1  -1.185049  0  -0.333509  -0.58583  0  2.258528  0
O  O169  1  0.50950416  0.30971133  0.84778948  1  -1.184978  0  -0.333506  -0.585752  0  2.258476  0
O  O170  1  0.52221077  0.81937260  0.04303158  1  -1.196613  0  -0.556451  -0.875777  0  2.252346  0
O  O171  1  0.02220982  0.68062710  0.45696884  1  -1.196628  0  -0.556435  -0.875716  0  2.252318  0
O  O172  1  0.47778839  0.18062708  0.95696941  1  -1.196596  0  -0.556431  -0.87567  0  2.252267  0
O  O173  1  0.97778934  0.31937159  0.54303093  1  -1.196643  0  -0.556436  -0.875706  0  2.252341  0
O  O174  1  0.16490876  0.76237639  0.01095825  1  -1.25135  0  -0.5575  -0.756714  0  2.087369  0
O  O175  1  0.66490851  0.73762367  0.48904196  1  -1.251304  0  -0.557504  -0.756743  0  2.087362  0
O  O176  1  0.83508921  0.23762030  0.98904031  1  -1.251352  0  -0.5575  -0.756665  0  2.087516  0
O  O177  1  0.33509303  0.26237907  0.51095782  1  -1.251395  0  -0.557495  -0.756636  0  2.087467  0
O  O178  1  0.39385046  0.69468827  0.33441258  1  -1.242101  0  -0.555196  -0.738876  0  2.06237  0
O  O179  1  0.89385274  0.80531237  0.16558752  1  -1.242094  0  -0.555252  -0.738966  0  2.062311  0
O  O180  1  0.60614632  0.30531547  0.66558842  1  -1.242317  0  -0.555269  -0.738928  0  2.062334  0
O  O181  1  0.10614880  0.19468633  0.83441185  1  -1.242321  0  -0.555225  -0.738901  0  2.062357  0
O  O182  1  0.39014229  0.62880535  0.45827456  1  -1.287512  0  -0.58098  -0.757549  0  2.113333  0
O  O183  1  0.89014221  0.87119529  0.04172553  1  -1.28751  0  -0.580969  -0.757464  0  2.11339  0
O  O184  1  0.60985687  0.37119739  0.54172603  1  -1.287556  0  -0.580985  -0.757547  0  2.113331  0
O  O185  1  0.10985814  0.12880340  0.95827465  1  -1.287538  0  -0.58099  -0.757536  0  2.113332  0
