# generated using pymatgen
data_NiH14C16(NO2)2
_symmetry_space_group_name_H-M   'P 1'
_cell_length_a   8.18647105
_cell_length_b   8.80787613
_cell_length_c   11.25317898
_cell_angle_alpha   93.09405299
_cell_angle_beta   109.71366126
_cell_angle_gamma   94.65950909
_symmetry_Int_Tables_number   1
_chemical_formula_structural   NiH14C16(NO2)2
_chemical_formula_sum   'Ni2 H28 C32 N4 O8'
_cell_volume   758.46495597
_cell_formula_units_Z   2
loop_
 _symmetry_equiv_pos_site_id
 _symmetry_equiv_pos_as_xyz
  1  'x, y, z'
loop_
 _atom_site_type_symbol
 _atom_site_label
 _atom_site_symmetry_multiplicity
 _atom_site_fract_x
 _atom_site_fract_y
 _atom_site_fract_z
 _atom_site_occupancy
 _atom_site_hle17_ddec_charge
 _atom_site_hle17_ddec_spin_density
 _atom_site_hle17_ddec_sum_bond_order
 _atom_site_hle17_magmom
 _atom_site_hse06_10hf_ddec_charge
 _atom_site_hse06_10hf_ddec_spin_density
 _atom_site_hse06_10hf_ddec_sum_bond_order
 _atom_site_hse06_10hf_magmom
 _atom_site_hse06_ddec_charge
 _atom_site_hse06_ddec_spin_density
 _atom_site_hse06_ddec_sum_bond_order
 _atom_site_hse06_magmom
 _atom_site_pbe_cm5_charge
 _atom_site_pbe_ddec_charge
 _atom_site_pbe_ddec_spin_density
 _atom_site_pbe_ddec_sum_bond_order
 _atom_site_pbe_magmom
Ni  Ni0  1  0.51877450  0.64742373  0.75726386  1  0.751388  -1.763434  2.093961  -1.472  0.751094  -1.811209  2.499199  -1.594  0.853103  -1.870822  2.41424  -1.689  0.643772  0.680828  -1.760786  2.558465  -1.513
Ni  Ni1  1  0.48122569  0.35257461  0.24273621  1  0.75141  -1.763427  2.093889  -1.472  0.751137  -1.81121  2.499133  -1.594  0.853171  -1.870825  2.414139  -1.689  0.643767  0.680856  -1.760798  2.558393  -1.513
H  H2  1  0.14443450  0.70223058  0.67464895  1  0.08157  -0.000804  0.939966  -0.002  0.089996  -0.000662  1.003256  -0.001  0.09196  -0.000453  1.001658  -0.001  0.118681  0.088454  -0.000865  1.004734  -0.001
H  H3  1  0.85556701  0.29776774  0.32534611  1  0.081625  -0.000804  0.939974  -0.002  0.090025  -0.000662  1.003266  -0.001  0.091993  -0.000453  1.001656  -0.001  0.118701  0.088482  -0.000865  1.004743  -0.001
H  H4  1  0.94186067  0.80571549  0.77742009  1  0.116391  -0.000206  0.974995  0.0  0.123626  -0.000267  1.040877  0.0  0.127338  -0.000155  1.039374  0.0  0.106424  0.120763  -0.000383  1.042334  -0.001
H  H5  1  0.05814097  0.19428398  0.22257594  1  0.116363  -0.000205  0.974964  0.0  0.12361  -0.000267  1.040829  0.0  0.127321  -0.000155  1.039327  0.0  0.106437  0.120742  -0.000383  1.042289  -0.001
H  H6  1  0.38359443  0.90456425  0.12182199  1  0.118728  -0.000348  0.952404  0.0  0.128755  -0.000386  1.009535  0.0  0.132283  -0.000259  1.008808  0.0  0.10772  0.126143  -0.000514  1.010306  -0.001
H  H7  1  0.61640255  0.09543980  0.87817574  1  0.118759  -0.000348  0.95239  0.0  0.128803  -0.000386  1.009487  0.0  0.132333  -0.000259  1.008756  0.0  0.10774  0.126192  -0.000514  1.010261  -0.001
H  H8  1  0.56750064  0.79625218  0.00569117  1  0.080152  -0.000772  0.949579  -0.002  0.087243  -0.000659  1.017292  -0.002  0.089025  -0.000456  1.015517  -0.001  0.117962  0.085778  -0.000858  1.018914  -0.002
H  H9  1  0.43250023  0.20375187  0.99430841  1  0.080084  -0.000772  0.949667  -0.002  0.08721  -0.000659  1.017342  -0.002  0.088966  -0.000456  1.0156  -0.001  0.117934  0.085747  -0.000859  1.018961  -0.002
H  H10  1  0.91017777  0.84018441  0.99901294  1  0.090908  0.00047  0.935066  0.0  0.107882  0.000251  0.996727  0.0  0.109006  0.000243  0.997083  0.0  0.097601  0.106835  0.000276  0.996727  0.0
H  H11  1  0.08981909  0.15981848  0.00098204  1  0.090884  0.00047  0.935072  0.0  0.107858  0.000251  0.99674  0.0  0.108981  0.000243  0.997098  0.0  0.09759  0.106811  0.000276  0.99674  0.0
H  H12  1  0.09489414  0.93371656  0.12531029  1  0.085118  -0.000215  0.943604  0.0  0.100686  -0.00022  1.007279  0.0  0.103156  -0.000138  1.005263  0.0  0.094239  0.098846  -0.000317  1.008696  0.0
H  H13  1  0.90510402  0.06628633  0.87468324  1  0.085053  -0.000214  0.943611  0.0  0.100646  -0.00022  1.007289  0.0  0.10312  -0.000138  1.005271  0.0  0.094208  0.098805  -0.000318  1.008709  0.0
H  H14  1  0.36098021  0.47090024  0.51170212  1  0.103092  -0.000658  0.928467  -0.002  0.109302  -0.000543  0.992879  -0.002  0.111846  -0.000334  0.989601  -0.001  0.12504  0.107133  -0.000761  0.995776  -0.002
H  H15  1  0.63901867  0.52909810  0.48829940  1  0.103075  -0.000658  0.928495  -0.002  0.109297  -0.000543  0.992887  -0.002  0.11184  -0.000334  0.989609  -0.001  0.125033  0.107127  -0.000761  0.995785  -0.002
H  H16  1  0.15261839  0.24327521  0.41895136  1  0.108138  -0.000306  0.970623  0.0  0.119405  -0.000348  1.031025  0.0  0.122098  -0.000242  1.030854  0.0  0.108499  0.117354  -0.000454  1.031493  -0.001
H  H17  1  0.84737776  0.75672199  0.58105033  1  0.108117  -0.000306  0.970716  0.0  0.119418  -0.000348  1.031075  0.0  0.12211  -0.000242  1.030903  0.0  0.108486  0.117367  -0.000454  1.031545  -0.001
H  H18  1  0.13236047  0.18055150  0.79216232  1  0.102562  -0.000343  0.964364  0.0  0.112901  -0.000376  1.027604  0.0  0.11557  -0.000267  1.02769  0.0  0.104758  0.110937  -0.000488  1.027816  0.0
H  H19  1  0.86764140  0.81945028  0.20784275  1  0.102582  -0.000343  0.964326  0.0  0.11285  -0.000376  1.027656  0.0  0.115519  -0.000267  1.027741  0.0  0.104739  0.110881  -0.000488  1.027872  0.0
H  H20  1  0.34640726  0.41258173  0.87195125  1  0.0946  -0.00087  0.950424  -0.002  0.097923  -0.000684  1.022677  -0.001  0.101197  -0.000429  1.018879  -0.001  0.118369  0.095324  -0.000945  1.025773  -0.002
H  H21  1  0.65359489  0.58742234  0.12805309  1  0.094618  -0.000871  0.950304  -0.002  0.097934  -0.000684  1.022575  -0.001  0.10121  -0.000429  1.018779  -0.001  0.118349  0.095335  -0.000945  1.025672  -0.002
H  H22  1  0.95630673  0.00444667  0.62315375  1  0.074875  -9.1e-05  0.948761  0.0  0.090277  -9.5e-05  1.015336  0.0  0.091466  -7.1e-05  1.015357  0.0  0.09273  0.089309  -0.000124  1.01549  0.0
H  H23  1  0.04369254  0.99555512  0.37685334  1  0.074872  -9.1e-05  0.948812  0.0  0.090284  -9.5e-05  1.015386  0.0  0.091474  -7.1e-05  1.015407  0.0  0.09273  0.089315  -0.000124  1.015546  0.0
H  H24  1  0.85668237  0.10600114  0.49190563  1  0.094403  0.000676  0.936165  0.001  0.111464  0.000285  0.9976  0.0  0.113039  0.000286  0.997455  0.0  0.098443  0.110086  0.000321  0.997906  0.0
H  H25  1  0.14331547  0.89399949  0.50809929  1  0.094441  0.000676  0.936154  0.001  0.11143  0.000285  0.99767  0.0  0.113005  0.000286  0.997525  0.0  0.09845  0.11008  0.000321  0.997951  0.0
H  H26  1  0.03728926  0.44334964  0.88033280  1  0.114507  -0.0008  0.951887  -0.001  0.121443  -0.00075  1.015874  -0.001  0.124741  -0.000513  1.014456  -0.001  0.106384  0.119268  -0.00099  1.016912  -0.001
H  H27  1  0.96271150  0.55665326  0.11965960  1  0.114408  -0.0008  0.951923  -0.001  0.121372  -0.00075  1.01589  -0.001  0.124671  -0.000513  1.014473  -0.001  0.106329  0.119199  -0.00099  1.016923  -0.001
H  H28  1  0.62439591  0.10729807  0.61262422  1  0.128206  -0.0008  0.92179  -0.001  0.137998  -0.000762  0.976251  -0.001  0.142332  -0.00051  0.973242  -0.001  0.114006  0.134997  -0.001028  0.978549  -0.001
H  H29  1  0.37560309  0.89270143  0.38738182  1  0.128125  -0.000801  0.921825  -0.001  0.137947  -0.000762  0.976251  -0.001  0.142283  -0.00051  0.973238  -0.001  0.113981  0.134944  -0.001028  0.978548  -0.001
C  C30  1  0.19158340  0.74947654  0.77324332  1  0.123746  0.018022  3.703425  0.012  0.096241  0.006169  3.959768  0.004  0.10591  0.006898  3.978231  0.005  0.043445  0.089356  0.006197  3.948056  0.004
C  C31  1  0.80841681  0.25052179  0.22675231  1  0.123642  0.01804  3.703614  0.012  0.096194  0.006168  3.959956  0.004  0.105863  0.006899  3.978425  0.005  0.043425  0.089293  0.006197  3.948258  0.004
C  C32  1  0.08092215  0.80747030  0.83015912  1  -0.182725  -0.009177  3.712016  -0.011  -0.198715  -0.00293  3.958208  -0.004  -0.207353  -0.002891  3.978086  -0.004  -0.088667  -0.193171  -0.003248  3.94571  -0.004
C  C33  1  0.91907820  0.19252917  0.16983570  1  -0.182681  -0.009186  3.712107  -0.011  -0.198675  -0.00293  3.958274  -0.004  -0.207314  -0.002891  3.978154  -0.004  -0.088637  -0.193126  -0.003248  3.945775  -0.004
C  C34  1  0.14680306  0.86240192  0.95839119  1  0.161016  0.018269  3.715707  0.012  0.178356  0.006889  3.949058  0.004  0.184616  0.006668  3.97099  0.004  0.0138  0.173568  0.008045  3.934831  0.005
C  C35  1  0.85319571  0.13759527  0.04160493  1  0.161046  0.018284  3.715868  0.012  0.178387  0.006889  3.949225  0.004  0.184652  0.006668  3.97116  0.004  0.013753  0.1736  0.008046  3.934998  0.005
C  C36  1  0.32536939  0.85976170  0.02279930  1  -0.173022  -0.009756  3.699904  -0.012  -0.188062  -0.003419  3.939687  -0.005  -0.196823  -0.003298  3.959515  -0.005  -0.08393  -0.18248  -0.00378  3.92714  -0.005
C  C37  1  0.67462834  0.14023778  0.97719932  1  -0.173132  -0.009765  3.699962  -0.012  -0.188176  -0.003419  3.939726  -0.005  -0.196939  -0.003298  3.959546  -0.005  -0.08397  -0.1826  -0.003779  3.927191  -0.005
C  C38  1  0.42822901  0.80105354  0.95899555  1  0.135079  0.016883  3.703986  0.011  0.106727  0.004701  3.962424  0.003  0.116876  0.005677  3.980854  0.004  0.047922  0.099532  0.004498  3.950802  0.003
C  C39  1  0.57177132  0.19894594  0.04100282  1  0.135097  0.016897  3.704079  0.011  0.106744  0.0047  3.962521  0.003  0.116911  0.005677  3.98096  0.004  0.047935  0.099543  0.004496  3.950896  0.003
C  C40  1  0.02795139  0.92179536  0.02222641  1  -0.155376  0.000438  3.670219  0.0  -0.198072  0.000365  3.918154  0.0  -0.199813  0.000392  3.928227  0.0  -0.156558  -0.196597  0.000363  3.911452  0.0
C  C41  1  0.97204781  0.07820524  0.97776640  1  -0.15527  0.000437  3.670211  0.0  -0.197991  0.000366  3.918132  0.0  -0.199738  0.000392  3.928211  0.0  -0.156507  -0.196515  0.000363  3.911426  0.0
C  C42  1  0.30921151  0.40272182  0.57141796  1  0.144382  0.017068  3.662808  0.011  0.116593  0.004515  3.918759  0.003  0.127622  0.005584  3.935369  0.004  0.054551  0.108646  0.004171  3.908667  0.002
C  C43  1  0.69078839  0.59727424  0.42858550  1  0.144465  0.017077  3.662753  0.011  0.116679  0.004514  3.918702  0.003  0.127707  0.005585  3.935313  0.004  0.0546  0.108724  0.00417  3.908611  0.002
C  C44  1  0.18989306  0.27484357  0.52005416  1  -0.172739  -0.010406  3.698663  -0.013  -0.188279  -0.003629  3.939384  -0.005  -0.197573  -0.003497  3.960481  -0.005  -0.085281  -0.18232  -0.004027  3.926047  -0.006
C  C45  1  0.81010336  0.72515591  0.47994858  1  -0.172778  -0.01041  3.698715  -0.013  -0.188392  -0.003629  3.939418  -0.005  -0.197684  -0.003497  3.960512  -0.005  -0.085296  -0.182438  -0.004026  3.926089  -0.006
C  C46  1  0.11948522  0.19142802  0.59724280  1  0.161382  0.019194  3.708292  0.013  0.177984  0.007162  3.941113  0.004  0.185074  0.006855  3.961967  0.004  0.014832  0.172747  0.008442  3.927393  0.005
C  C47  1  0.88051249  0.80857147  0.40276115  1  0.161301  0.0192  3.708322  0.013  0.178014  0.00716  3.940969  0.004  0.185103  0.006856  3.961822  0.004  0.014809  0.172777  0.008442  3.927256  0.005
C  C48  1  0.18049735  0.24114324  0.72657011  1  -0.179648  -0.009612  3.71162  -0.012  -0.193042  -0.003034  3.94812  -0.004  -0.201656  -0.002985  3.967797  -0.004  -0.088428  -0.187513  -0.003372  3.935604  -0.005
C  C49  1  0.81950699  0.75885740  0.27343463  1  -0.17954  -0.009616  3.711483  -0.012  -0.192898  -0.003034  3.947929  -0.004  -0.201512  -0.002986  3.967607  -0.004  -0.08835  -0.187367  -0.003372  3.935413  -0.005
C  C50  1  0.30058089  0.37016306  0.77209274  1  0.119818  0.019456  3.70034  0.013  0.091935  0.006659  3.960331  0.004  0.102319  0.007412  3.977397  0.005  0.044442  0.084513  0.006693  3.949676  0.004
C  C51  1  0.69942344  0.62983759  0.22791289  1  0.119827  0.019463  3.700235  0.013  0.091947  0.006657  3.960219  0.004  0.102327  0.007413  3.977292  0.005  0.044498  0.084519  0.006693  3.94956  0.004
C  C52  1  0.97946695  0.05945766  0.54413616  1  -0.155904  0.000155  3.678468  -0.001  -0.198449  0.000271  3.927364  0.0  -0.200394  0.000269  3.938403  0.0  -0.156138  -0.196806  0.000301  3.91992  0.0
C  C53  1  0.02053089  0.94054299  0.45587053  1  -0.155939  0.000155  3.678601  -0.001  -0.198478  0.000271  3.927424  0.0  -0.200423  0.000268  3.938465  0.0  -0.156143  -0.196854  0.000301  3.919965  0.0
C  C54  1  0.79270694  0.53881441  0.86523626  1  0.640379  0.014244  3.904483  0.012  0.605923  0.005062  4.198775  0.005  0.642845  0.004491  4.194479  0.004  0.187523  0.579751  0.006001  4.200911  0.006
C  C55  1  0.20729614  0.46118621  0.13475928  1  0.640374  0.014246  3.904585  0.012  0.6059  0.005062  4.198894  0.005  0.642823  0.004491  4.194601  0.004  0.187587  0.579726  0.006  4.201027  0.006
C  C56  1  0.96497223  0.49068601  0.93650780  1  -0.150879  -0.000495  3.65711  -0.001  -0.167181  -0.001107  3.902502  -0.001  -0.170895  -0.000797  3.914208  -0.001  -0.079766  -0.165529  -0.00094  3.89587  -0.002
C  C57  1  0.03503399  0.50931918  0.06348604  1  -0.150695  -0.000509  3.657112  -0.001  -0.166971  -0.001108  3.902461  -0.001  -0.170687  -0.000796  3.914172  -0.001  -0.079736  -0.165314  -0.00094  3.895822  -0.002
C  C58  1  0.54356642  0.00307758  0.56256130  1  -0.158031  -0.000643  3.662835  -0.001  -0.176277  -0.001251  3.915281  -0.001  -0.179814  -0.000882  3.925957  -0.001  -0.08015  -0.174984  -0.001218  3.909771  -0.002
C  C59  1  0.45643286  0.99692420  0.43744402  1  -0.157856  -0.000611  3.662739  -0.001  -0.176112  -0.001251  3.915146  -0.001  -0.17965  -0.000883  3.925823  -0.001  -0.080057  -0.174815  -0.001218  3.909637  -0.002
C  C60  1  0.53879825  0.87081744  0.63702848  1  0.63322  0.013355  3.921573  0.011  0.5964  0.004639  4.219759  0.005  0.633024  0.004111  4.215587  0.004  0.187037  0.570429  0.005541  4.222024  0.006
C  C61  1  0.46120322  0.12918091  0.36297457  1  0.633198  0.013351  3.921574  0.011  0.59637  0.00464  4.219768  0.005  0.632992  0.004111  4.215598  0.004  0.187067  0.570395  0.00554  4.222033  0.006
N  N62  1  0.36302161  0.74525180  0.83671030  1  -0.295126  -0.060336  3.362247  -0.093  -0.253206  -0.038639  3.654027  -0.061  -0.284832  -0.030846  3.674855  -0.052  -0.339117  -0.232173  -0.045029  3.640882  -0.068
N  N63  1  0.63697886  0.25474882  0.16328727  1  -0.295025  -0.060343  3.362291  -0.094  -0.253175  -0.038638  3.654112  -0.061  -0.284804  -0.030846  3.674934  -0.052  -0.339102  -0.232127  -0.045028  3.640951  -0.068
N  N64  1  0.36303564  0.45102819  0.69554729  1  -0.292843  -0.061336  3.357916  -0.095  -0.252974  -0.038937  3.653515  -0.062  -0.285058  -0.030858  3.673527  -0.052  -0.336452  -0.231528  -0.045705  3.64091  -0.069
N  N65  1  0.63696481  0.54897244  0.30445472  1  -0.292918  -0.061339  3.357953  -0.095  -0.253058  -0.038936  3.653563  -0.062  -0.285146  -0.030858  3.673577  -0.052  -0.336516  -0.231591  -0.045704  3.640938  -0.069
O  O66  1  0.69259973  0.58342868  0.92430791  1  -0.594194  -0.05922  1.966387  -0.094  -0.571074  -0.038267  2.228732  -0.063  -0.612578  -0.027585  2.222199  -0.048  -0.318488  -0.539599  -0.048371  2.231444  -0.076
O  O67  1  0.30740866  0.41657309  0.07569077  1  -0.594228  -0.059223  1.966378  -0.094  -0.571132  -0.038268  2.228763  -0.063  -0.61264  -0.027586  2.222228  -0.048  -0.318584  -0.539659  -0.048372  2.231472  -0.076
O  O68  1  0.74615212  0.54146109  0.74510926  1  -0.57861  -0.04797  1.895931  -0.076  -0.553661  -0.032444  2.131914  -0.054  -0.591049  -0.022921  2.124871  -0.04  -0.313702  -0.525227  -0.042025  2.135171  -0.066
O  O69  1  0.25384562  0.45853838  0.25488580  1  -0.578576  -0.047971  1.896014  -0.076  -0.55363  -0.032444  2.132011  -0.054  -0.591022  -0.022921  2.124976  -0.04  -0.313673  -0.525198  -0.042025  2.135267  -0.066
O  O70  1  0.42550773  0.75464684  0.58993286  1  -0.583372  -0.056151  1.966816  -0.09  -0.559784  -0.036355  2.221896  -0.06  -0.599901  -0.026288  2.214787  -0.046  -0.312614  -0.529458  -0.04597  2.225141  -0.073
O  O71  1  0.57449259  0.24535264  0.41006906  1  -0.583361  -0.056148  1.966806  -0.09  -0.559797  -0.036354  2.221927  -0.06  -0.599916  -0.026287  2.214819  -0.046  -0.312657  -0.529471  -0.045969  2.225166  -0.073
O  O72  1  0.64992296  0.87335092  0.74923195  1  -0.591255  -0.043509  1.936536  -0.069  -0.561461  -0.029994  2.185959  -0.049  -0.598788  -0.02139  2.179766  -0.037  -0.308894  -0.533285  -0.038644  2.188896  -0.06
O  O73  1  0.35007722  0.12664743  0.25077078  1  -0.591305  -0.043508  1.936591  -0.069  -0.561487  -0.029994  2.185976  -0.049  -0.598815  -0.02139  2.179781  -0.037  -0.30891  -0.533312  -0.038643  2.188911  -0.06
