# generated using pymatgen
data_CdH32C20S2(N2O3)2
_symmetry_space_group_name_H-M   'P 1'
_cell_length_a   7.49527658
_cell_length_b   8.94998933
_cell_length_c   9.52459301
_cell_angle_alpha   72.80115468
_cell_angle_beta   84.50761590
_cell_angle_gamma   71.85816488
_symmetry_Int_Tables_number   1
_chemical_formula_structural   CdH32C20S2(N2O3)2
_chemical_formula_sum   'Cd1 H32 C20 S2 N4 O6'
_cell_volume   580.01776080
_cell_formula_units_Z   1
loop_
 _symmetry_equiv_pos_site_id
 _symmetry_equiv_pos_as_xyz
  1  'x, y, z'
loop_
 _atom_site_type_symbol
 _atom_site_label
 _atom_site_symmetry_multiplicity
 _atom_site_fract_x
 _atom_site_fract_y
 _atom_site_fract_z
 _atom_site_occupancy
 _atom_site_hle17_bader_spin_density
 _atom_site_hle17_ddec_charge
 _atom_site_hle17_ddec_spin_density
 _atom_site_hle17_ddec_sum_bond_order
 _atom_site_hle17_magmom
 _atom_site_hse06_10hf_bader_spin_density
 _atom_site_hse06_10hf_ddec_charge
 _atom_site_hse06_10hf_ddec_spin_density
 _atom_site_hse06_10hf_ddec_sum_bond_order
 _atom_site_hse06_10hf_magmom
 _atom_site_hse06_bader_spin_density
 _atom_site_hse06_ddec_charge
 _atom_site_hse06_ddec_spin_density
 _atom_site_hse06_ddec_sum_bond_order
 _atom_site_hse06_magmom
 _atom_site_pbe_bader_spin_density
 _atom_site_pbe_cm5_charge
 _atom_site_pbe_ddec_charge
 _atom_site_pbe_ddec_spin_density
 _atom_site_pbe_ddec_sum_bond_order
 _atom_site_pbe_magmom
Cd  Cd0  1  0.49999893  0.99999832  0.00000135  1  0  1.033819  0  1.638316  0  0  0.8509  0  2.028608  0  0  0.899597  0  1.990614  0  0  0.785339  0.813747  0  2.054396  0
H  H1  1  0.76236380  0.99748906  0.19173998  1  0  0.26076  0  0.941114  0  0  0.247756  0  1.001393  0  0  0.253686  0  0.997779  0  0  0.2891  0.243659  0  1.003667  0
H  H2  1  0.23763680  0.00250889  0.80826274  1  0  0.260745  0  0.941069  0  0  0.247749  0  1.001348  0  0  0.25368  0  0.997727  0  0  0.289108  0.243651  0  1.003621  0
H  H3  1  0.71697790  0.19787262  0.84755968  1  0  0.260629  0  0.926856  0  0  0.246849  0  0.98999  0  0  0.252537  0  0.986315  0  0  0.29021  0.242411  0  0.993527  0
H  H4  1  0.28301919  0.80212780  0.15244264  1  0  0.26066  0  0.926846  0  0  0.246838  0  0.990006  0  0  0.252528  0  0.986328  0  0  0.290188  0.2424  0  0.993544  0
H  H5  1  0.87808964  0.53686322  0.91138546  1  0  0.107545  0  0.960225  0  0  0.11445  0  1.026997  0  0  0.117711  0  1.025275  0  0  0.107197  0.112121  0  1.027788  0
H  H6  1  0.12191548  0.46313718  0.08861308  1  0  0.107552  0  0.960303  0  0  0.114445  0  1.027069  0  0  0.117704  0  1.02535  0  0  0.107176  0.112117  0  1.027859  0
H  H7  1  0.89647182  0.38110414  0.73927215  1  0  0.103268  0  0.964045  0  0  0.114417  0  1.023468  0  0  0.117818  0  1.021426  0  0  0.105082  0.11083  0  1.027209  0
H  H8  1  0.10352710  0.61889874  0.26072409  1  0  0.103188  0  0.964037  0  0  0.114386  0  1.023428  0  0  0.117788  0  1.021384  0  0  0.105082  0.110817  0  1.027149  0
H  H9  1  0.08954774  0.74211720  0.40067805  1  0  0.102285  0  0.975326  0  0  0.111903  0  1.038267  0  0  0.11505  0  1.036635  0  0  0.102367  0.10898  0  1.040851  0
H  H10  1  0.91045386  0.25788568  0.59931694  1  0  0.102201  0  0.975218  0  0  0.111823  0  1.038172  0  0  0.114972  0  1.036535  0  0  0.102336  0.108901  0  1.040753  0
H  H11  1  0.08470640  0.89055483  0.58043438  1  0  0.095006  0  0.969395  0  0  0.104764  0  1.033903  0  0  0.107806  0  1.032386  0  0  0.101597  0.10257  0  1.03501  0
H  H12  1  0.91530026  0.10945292  0.41955887  1  0  0.094972  0  0.969535  0  0  0.104762  0  1.033993  0  0  0.107811  0  1.03248  0  0  0.101568  0.102562  0  1.035104  0
H  H13  1  0.59980646  0.11546972  0.38662769  1  0  0.068771  0  0.95118  0  0  0.091341  0  1.016396  0  0  0.091585  0  1.017011  0  0  0.088068  0.090213  0  1.018291  0
H  H14  1  0.40019590  0.88452700  0.61337523  1  0  0.068813  0  0.951202  0  0  0.091371  0  1.016426  0  0  0.091615  0  1.017041  0  0  0.088074  0.090243  0  1.018323  0
H  H15  1  0.54232666  0.24610582  0.20481021  1  0  0.095741  0  0.95572  0  0  0.117577  0  1.017797  0  0  0.118196  0  1.01832  0  0  0.101866  0.116778  0  1.018378  0
H  H16  1  0.45767622  0.75389334  0.79519199  1  0  0.095744  0  0.955722  0  0  0.117582  0  1.0178  0  0  0.1182  0  1.018324  0  0  0.101853  0.116784  0  1.018379  0
H  H17  1  0.38476972  0.13939506  0.30415615  1  0  0.079241  0  0.97663  0  0  0.096757  0  1.047817  0  0  0.096642  0  1.049664  0  0  0.09115  0.097092  0  1.046175  0
H  H18  1  0.61523316  0.86060410  0.69584815  1  0  0.079299  0  0.976602  0  0  0.096812  0  1.047787  0  0  0.096696  0  1.049636  0  0  0.091181  0.097147  0  1.046144  0
H  H19  1  0.75091219  0.74283652  0.28490055  1  0  0.072518  0  0.951434  0  0  0.089778  0  1.013757  0  0  0.089521  0  1.015385  0  0  0.106885  0.090074  0  1.012347  0
H  H20  1  0.24908572  0.25716146  0.71510132  1  0  0.072484  0  0.951453  0  0  0.08975  0  1.01377  0  0  0.08949  0  1.015396  0  0  0.106874  0.090049  0  1.012359  0
H  H21  1  0.66250268  0.82668720  0.43351697  1  0  0.052507  0  0.944861  0  0  0.072114  0  1.006927  0  0  0.071402  0  1.009039  0  0  0.095842  0.072865  0  1.005564  0
H  H22  1  0.33749792  0.17331075  0.56648574  1  0  0.052507  0  0.944802  0  0  0.072111  0  1.00687  0  0  0.071398  0  1.008981  0  0  0.095845  0.072862  0  1.005505  0
H  H23  1  0.54344925  0.32305021  0.59534623  1  0  0.050434  0  0.923973  0  0  0.070449  0  0.98489  0  0  0.070714  0  0.985124  0  0  0.095928  0.069645  0  0.986298  0
H  H24  1  0.45654960  0.67694898  0.40465629  1  0  0.050448  0  0.923977  0  0  0.070469  0  0.984901  0  0  0.070737  0  0.985136  0  0  0.095937  0.069668  0  0.986308  0
H  H25  1  0.66956449  0.11169767  0.66073663  1  0  0.065763  0  0.945622  0  0  0.081741  0  1.01252  0  0  0.081977  0  1.012931  0  0  0.103464  0.081337  0  1.012756  0
H  H26  1  0.33043529  0.88830273  0.33926653  1  0  0.065784  0  0.945567  0  0  0.081774  0  1.012471  0  0  0.082014  0  1.01288  0  0  0.103462  0.08137  0  1.012707  0
H  H27  1  0.50826177  0.48591563  0.75831353  1  0  0.068173  0  0.94472  0  0  0.089714  0  1.010895  0  0  0.089956  0  1.011647  0  0  0.086847  0.088889  0  1.01164  0
H  H28  1  0.49173441  0.51408356  0.24169024  1  0  0.068214  0  0.944613  0  0  0.089735  0  1.010821  0  0  0.089979  0  1.01157  0  0  0.086865  0.088912  0  1.011563  0
H  H29  1  0.32236292  0.40614735  0.84679378  1  0  0.093568  0  0.963454  0  0  0.112337  0  1.030269  0  0  0.112371  0  1.032151  0  0  0.095813  0.112527  0  1.028365  0
H  H30  1  0.67763406  0.59384940  0.15320955  1  0  0.09356  0  0.963558  0  0  0.112326  0  1.030368  0  0  0.112361  0  1.032249  0  0  0.095793  0.112514  0  1.028463  0
H  H31  1  0.51341364  0.39290152  0.95197140  1  0  0.100643  0  0.955031  0  0  0.123052  0  1.01512  0  0  0.123844  0  1.015153  0  0  0.103785  0.122527  0  1.015013  0
H  H32  1  0.48658336  0.60709522  0.04803404  1  0  0.100636  0  0.955017  0  0  0.12308  0  1.015067  0  0  0.123871  0  1.015102  0  0  0.103764  0.122551  0  1.014965  0
C  C33  1  0.98388267  0.72303696  0.75792914  1  0  -0.130231  0  3.768245  0  0  -0.101983  0  4.011161  0  0  -0.10833  0  4.032401  0  0  -0.022596  -0.09731  0  3.996318  0
C  C34  1  0.01611798  0.27696472  0.24206416  1  0  -0.130249  0  3.767964  0  0  -0.102128  0  4.011047  0  0  -0.108473  0  4.032281  0  0  -0.022739  -0.097457  0  3.996202  0
C  C35  1  0.92872144  0.58052706  0.80043272  1  0  -0.057577  0  3.753727  0  0  -0.082781  0  4.005344  0  0  -0.081838  0  4.023694  0  0  -0.083262  -0.082884  0  3.991364  0
C  C36  1  0.07128200  0.41947827  0.19955935  1  0  -0.057638  0  3.75357  0  0  -0.082782  0  4.005201  0  0  -0.081836  0  4.023545  0  0  -0.08324  -0.082886  0  3.991232  0
C  C37  1  0.93669645  0.49331775  0.69984884  1  0  -0.106602  0  3.709326  0  0  -0.125898  0  3.958642  0  0  -0.127938  0  3.976519  0  0  -0.086538  -0.123669  0  3.946261  0
C  C38  1  0.06330421  0.50668392  0.30014551  1  0  -0.10649  0  3.709211  0  0  -0.125833  0  3.958553  0  0  -0.127874  0  3.97643  0  0  -0.086509  -0.12362  0  3.946155  0
C  C39  1  0.99661914  0.54632636  0.55366777  1  0  0.045693  0  3.77692  0  0  0.059423  0  4.009269  0  0  0.060537  0  4.032021  0  0  -0.006854  0.058426  0  3.99307  0
C  C40  1  0.00338154  0.45367529  0.44632973  1  0  0.045793  0  3.776922  0  0  0.059485  0  4.009293  0  0  0.060601  0  4.032044  0  0  -0.006863  0.058487  0  3.993097  0
C  C41  1  0.04855814  0.69175957  0.51316160  1  0  -0.112256  0  3.728868  0  0  -0.131587  0  3.980698  0  0  -0.134279  0  4.000415  0  0  -0.090037  -0.129452  0  3.967195  0
C  C42  1  0.95144262  0.30824577  0.48683068  1  0  -0.112144  0  3.728822  0  0  -0.131454  0  3.980644  0  0  -0.134148  0  4.000367  0  0  -0.089961  -0.129319  0  3.967132  0
C  C43  1  0.04386599  0.77839605  0.61383061  1  0  -0.077496  0  3.787179  0  0  -0.102832  0  4.03857  0  0  -0.102633  0  4.05861  0  0  -0.092604  -0.103242  0  4.025261  0
C  C44  1  0.95613295  0.22160682  0.38616773  1  0  -0.077521  0  3.787188  0  0  -0.102844  0  4.038563  0  0  -0.102659  0  4.058616  0  0  -0.09257  -0.103248  0  4.025247  0
C  C45  1  0.53340199  0.13089603  0.28262392  1  0  -0.133643  0  3.688631  0  0  -0.231392  0  3.944054  0  0  -0.228219  0  3.955167  0  0  -0.153474  -0.23397  0  3.937782  0
C  C46  1  0.46659955  0.86910314  0.71737944  1  0  -0.133787  0  3.688648  0  0  -0.231536  0  3.944067  0  0  -0.228365  0  3.955182  0  0  -0.153507  -0.234112  0  3.937797  0
C  C47  1  0.63357652  0.83336856  0.32014851  1  0  -0.004118  0  3.653691  0  0  -0.060261  0  3.907738  0  0  -0.057043  0  3.921894  0  0  -0.080313  -0.062503  0  3.897368  0
C  C48  1  0.36642449  0.16662817  0.67985451  1  0  -0.004085  0  3.653694  0  0  -0.06023  0  3.907727  0  0  -0.057013  0  3.921877  0  0  -0.080293  -0.062477  0  3.897363  0
C  C49  1  0.45189023  0.79125002  0.31706963  1  0  0.001147  0  3.673444  0  0  -0.058452  0  3.936571  0  0  -0.055019  0  3.949849  0  0  -0.078099  -0.061111  0  3.928332  0
C  C50  1  0.54810955  0.20875038  0.68293353  1  0  0.001103  0  3.673566  0  0  -0.058417  0  3.93666  0  0  -0.054973  0  3.949926  0  0  -0.078084  -0.061073  0  3.928418  0
C  C51  1  0.47410503  0.38678571  0.84664184  1  0  -0.128921  0  3.666963  0  0  -0.226663  0  3.922448  0  0  -0.223585  0  3.9334  0  0  -0.152332  -0.228011  0  3.913786  0
C  C52  1  0.52589650  0.61321346  0.15336047  1  0  -0.12891  0  3.666959  0  0  -0.226714  0  3.922418  0  0  -0.223636  0  3.933365  0  0  -0.152319  -0.22806  0  3.913758  0
S  S53  1  0.98295035  0.82974747  0.88945152  1  0  1.296624  0  5.665176  0  0  1.191815  0  6.193921  0  0  1.240557  0  6.168993  0  0  0.507035  1.158522  0  6.209116  0
S  S54  1  0.01704631  0.17025420  0.11054629  1  0  1.296649  0  5.66525  0  0  1.191891  0  6.193987  0  0  1.240637  0  6.169056  0  0  0.50704  1.158599  0  6.209181  0
N  N55  1  0.62687209  0.99524436  0.21917898  1  0  -0.38695  0  3.252196  0  0  -0.300488  0  3.498265  0  0  -0.319977  0  3.51158  0  0  -0.495949  -0.284807  0  3.486586  0
N  N56  1  0.37312717  0.00475360  0.78082384  1  0  -0.386875  0  3.252148  0  0  -0.300412  0  3.498187  0  0  -0.319898  0  3.511503  0  0  -0.49596  -0.284733  0  3.486508  0
N  N57  1  0.42320333  0.77516459  0.17230266  1  0  -0.387785  0  3.256713  0  0  -0.303444  0  3.509906  0  0  -0.322366  0  3.523095  0  0  -0.493783  -0.288712  0  3.49897  0
N  N58  1  0.57679377  0.22483582  0.82770071  1  0  -0.387608  0  3.256613  0  0  -0.303453  0  3.509983  0  0  -0.322369  0  3.523156  0  0  -0.493826  -0.288724  0  3.499055  0
O  O59  1  0.81473242  0.81724723  0.98101466  1  0  -0.685556  0  2.007118  0  0  -0.620057  0  2.282476  0  0  -0.642971  0  2.267119  0  0  -0.349549  -0.604476  0  2.291891  0
O  O60  1  0.18526451  0.18274958  0.01897921  1  0  -0.685573  0  2.007185  0  0  -0.620072  0  2.282518  0  0  -0.642989  0  2.267159  0  0  -0.349544  -0.604491  0  2.291933  0
O  O61  1  0.97307512  0.99899351  0.80437161  1  0  -0.671349  0  1.951332  0  0  -0.616559  0  2.199267  0  0  -0.636214  0  2.1846  0  0  -0.342995  -0.602738  0  2.210719  0
O  O62  1  0.02692291  0.00100812  0.19563030  1  0  -0.671344  0  1.951317  0  0  -0.61656  0  2.199251  0  0  -0.636215  0  2.184582  0  0  -0.342988  -0.60274  0  2.210703  0
O  O63  1  0.15809091  0.74234928  0.97185973  1  0  -0.654883  0  1.938925  0  0  -0.599339  0  2.185887  0  0  -0.621354  0  2.174226  0  0  -0.336486  -0.583501  0  2.193894  0
O  O64  1  0.84190350  0.25765116  0.02814174  1  0  -0.654897  0  1.939005  0  0  -0.599358  0  2.185959  0  0  -0.621376  0  2.174302  0  0  -0.336449  -0.58352  0  2.193964  0
