# generated using pymatgen
data_ErPH4C2SO6
_symmetry_space_group_name_H-M   'P 1'
_cell_length_a   5.45351728
_cell_length_b   7.75079793
_cell_length_c   8.61962279
_cell_angle_alpha   90.00057856
_cell_angle_beta   90.00144084
_cell_angle_gamma   97.92277157
_symmetry_Int_Tables_number   1
_chemical_formula_structural   ErPH4C2SO6
_chemical_formula_sum   'Er2 P2 H8 C4 S2 O12'
_cell_volume   360.86603828
_cell_formula_units_Z   2
loop_
 _symmetry_equiv_pos_site_id
 _symmetry_equiv_pos_as_xyz
  1  'x, y, z'
loop_
 _atom_site_type_symbol
 _atom_site_label
 _atom_site_symmetry_multiplicity
 _atom_site_fract_x
 _atom_site_fract_y
 _atom_site_fract_z
 _atom_site_occupancy
 _atom_site_pbe_bader_spin_density
 _atom_site_pbe_cm5_charge
 _atom_site_pbe_ddec_charge
 _atom_site_pbe_ddec_spin_density
 _atom_site_pbe_ddec_sum_bond_order
 _atom_site_pbe_magmom
Er  Er0  1  0.74175308  0.60867000  0.76185247  1  0  1.599837  2.224425  0  2.246302  0
Er  Er1  1  0.24176188  0.10865909  0.23815695  1  0  1.599794  2.224469  0  2.246039  0
P  P2  1  0.17644191  0.34173126  0.88314148  1  0  0.378098  1.490977  0  5.29158  0
P  P3  1  0.67644740  0.84171928  0.11686523  1  0  0.378157  1.49117  0  5.291275  0
H  H4  1  0.06878557  0.19243440  0.64675132  1  0  0.112552  0.148775  0  1.014978  0
H  H5  1  0.56874663  0.69239724  0.35323939  1  0  0.112592  0.148826  0  1.01485  0
H  H6  1  0.97026118  0.06007265  0.81113863  1  0  0.116511  0.152262  0  1.000393  0
H  H7  1  0.47027284  0.56005857  0.18882818  1  0  0.11652  0.152341  0  1.000313  0
H  H8  1  0.51611768  0.14815246  0.70491208  1  0  0.125045  0.149676  0  0.966514  0
H  H9  1  0.01612980  0.64816085  0.29507497  1  0  0.125067  0.149689  0  0.966505  0
H  H10  1  0.40511248  0.00350946  0.85960516  1  0  0.126722  0.155898  0  0.999968  0
H  H11  1  0.90511541  0.50349913  0.14039478  1  0  0.126721  0.155895  0  0.999907  0
C  C12  1  0.12444786  0.14914338  0.76127755  1  0  -0.161318  -0.447205  0  3.903132  0
C  C13  1  0.62444387  0.64913714  0.23870570  1  0  -0.161322  -0.447385  0  3.903275  0
C  C14  1  0.35596541  0.06003489  0.74873118  1  0  -0.132392  -0.300242  0  3.867449  0
C  C15  1  0.85596653  0.56003407  0.25126949  1  0  -0.132319  -0.300005  0  3.867427  0
S  S16  1  0.31377566  0.88274393  0.61605213  1  0  0.578608  1.384402  0  5.958543  0
S  S17  1  0.81376706  0.38276315  0.38394701  1  0  0.578375  1.384001  0  5.957854  0
O  O18  1  0.39278761  0.46261148  0.81160256  1  0  -0.517785  -0.933799  0  2.290394  0
O  O19  1  0.89278067  0.96260836  0.18841727  1  0  -0.517835  -0.933888  0  2.290263  0
O  O20  1  0.93624687  0.42438068  0.88166150  1  0  -0.501279  -0.910778  0  2.236189  0
O  O21  1  0.43622781  0.92435237  0.11834836  1  0  -0.501305  -0.910842  0  2.236005  0
O  O22  1  0.23863182  0.28571908  0.04780944  1  0  -0.511404  -0.925374  0  2.255335  0
O  O23  1  0.73863451  0.78572777  0.95218983  1  0  -0.511487  -0.925405  0  2.255321  0
O  O24  1  0.54433801  0.80297947  0.61573372  1  0  -0.394721  -0.720191  0  2.272898  0
O  O25  1  0.04438361  0.30299179  0.38425980  1  0  -0.394829  -0.720277  0  2.272021  0
O  O26  1  0.26578371  0.95196945  0.46182366  1  0  -0.410649  -0.733704  0  2.317767  0
O  O27  1  0.76582187  0.45199515  0.53819491  1  0  -0.410476  -0.733503  0  2.317319  0
O  O28  1  0.10020769  0.76136498  0.67021560  1  0  -0.407807  -0.735197  0  2.337057  0
O  O29  1  0.60022379  0.26136915  0.32979715  1  0  -0.407671  -0.735009  0  2.337208  0
