# generated using pymatgen
data_CoH12C15(N4O3)2
_symmetry_space_group_name_H-M   'P 1'
_cell_length_a   10.82485675
_cell_length_b   11.53485022
_cell_length_c   18.55667057
_cell_angle_alpha   79.06950598
_cell_angle_beta   73.05614361
_cell_angle_gamma   62.02017344
_symmetry_Int_Tables_number   1
_chemical_formula_structural   CoH12C15(N4O3)2
_chemical_formula_sum   'Co4 H48 C60 N32 O24'
_cell_volume   1953.54659687
_cell_formula_units_Z   4
loop_
 _symmetry_equiv_pos_site_id
 _symmetry_equiv_pos_as_xyz
  1  'x, y, z'
loop_
 _atom_site_type_symbol
 _atom_site_label
 _atom_site_symmetry_multiplicity
 _atom_site_fract_x
 _atom_site_fract_y
 _atom_site_fract_z
 _atom_site_occupancy
 _atom_site_pbe_bader_charge
 _atom_site_pbe_bader_spin_density
 _atom_site_pbe_cm5_charge
 _atom_site_pbe_ddec_charge
 _atom_site_pbe_ddec_spin_density
 _atom_site_pbe_ddec_sum_bond_order
 _atom_site_pbe_magmom
Co  Co0  1  0.39900625  0.59136477  0.84213894  1  1.247476  -2.599078  0.661087  0.682057  -3.174298  2.552378  -2.577
Co  Co1  1  0.16732000  0.09135806  0.34200634  1  1.244941  2.597814  0.661493  0.68297  2.925957  2.552497  2.576
Co  Co2  1  0.60094137  0.40859085  0.15784336  1  1.246313  2.595549  0.660389  0.681089  2.922502  2.553367  2.574
Co  Co3  1  0.83279877  0.90860126  0.65798136  1  1.243771  2.593899  0.660812  0.681764  2.921177  2.55288  2.572
H  H4  1  0.16966775  0.52763773  0.81249710  1  0.126035  -0.001403  0.11363  0.082582  -0.000451  1.040131  -0.001
H  H5  1  0.48957555  0.02785676  0.31264347  1  0.120523  0.001389  0.11396  0.082573  0.000355  1.039953  0.001
H  H6  1  0.83032629  0.47235542  0.18750297  1  0.12634  0.001382  0.113699  0.082681  0.000414  1.040081  0.001
H  H7  1  0.51043498  0.97214023  0.68735876  1  0.120584  0.001343  0.114051  0.082629  0.000383  1.03991  0.001
H  H8  1  0.15363971  0.41081661  0.71864157  1  0.134474  -0.000642  0.115964  0.129695  -0.000308  1.002562  0.0
H  H9  1  0.71644453  0.91123590  0.21890359  1  0.12129  0.000593  0.116093  0.130032  0.000239  1.002037  0.0
H  H10  1  0.84636741  0.58917155  0.28136056  1  0.134432  0.000648  0.11608  0.129829  0.000311  1.002568  0.0
H  H11  1  0.28356223  0.08875303  0.78110337  1  0.121374  0.000616  0.116185  0.130058  0.000299  1.001979  0.0
H  H12  1  0.60161755  0.30908865  0.61505985  1  0.150448  -0.000529  0.111069  0.125551  -0.000254  1.036887  0.0
H  H13  1  0.47451177  0.80906403  0.11495339  1  0.138917  0.000751  0.111219  0.126078  0.00036  1.036883  0.0
H  H14  1  0.39839349  0.69090532  0.38494424  1  0.150519  0.000732  0.111191  0.125734  0.000323  1.036865  0.0
H  H15  1  0.52548086  0.19094582  0.88504678  1  0.13863  0.000525  0.111251  0.126058  0.000201  1.036917  0.0
H  H16  1  0.59971362  0.43315261  0.71224420  1  0.132714  -0.001426  0.121658  0.103079  -0.000454  1.006917  -0.001
H  H17  1  0.25486946  0.93310010  0.21201230  1  0.144028  0.001397  0.121549  0.103211  0.000373  1.005053  0.001
H  H18  1  0.40029632  0.56684161  0.28775412  1  0.132788  0.001367  0.121732  0.103155  0.0004  1.006942  0.001
H  H19  1  0.74512883  0.06690606  0.78798244  1  0.144223  0.001412  0.12162  0.103345  0.000445  1.004888  0.001
H  H20  1  0.06942448  0.73717640  0.85686841  1  0.146512  -0.001249  0.119089  0.100198  -0.000311  1.027773  -0.001
H  H21  1  0.33619977  0.23733550  0.35674573  1  0.150404  0.001851  0.118931  0.100411  0.000722  1.026945  0.001
H  H22  1  0.93056943  0.26282489  0.14312543  1  0.14665  0.001858  0.11916  0.100241  0.000747  1.02792  0.001
H  H23  1  0.66381648  0.76265966  0.64325357  1  0.150572  0.001252  0.118982  0.100441  0.000283  1.026965  0.001
H  H24  1  0.84894547  0.81009540  0.96153193  1  0.111697  -0.000838  0.111331  0.115491  -0.000392  1.048745  0.0
H  H25  1  0.37936011  0.31007297  0.46140651  1  0.110087  0.000931  0.111329  0.11628  0.000418  1.045876  0.0
H  H26  1  0.15105715  0.18990191  0.03846300  1  0.111733  0.000863  0.111383  0.115574  0.000401  1.048768  0.001
H  H27  1  0.62065464  0.68991734  0.53859140  1  0.110042  0.000881  0.11145  0.116302  0.000405  1.045958  0.001
H  H28  1  0.11761845  0.57960135  0.11754763  1  0.140607  -0.000755  0.118878  0.139679  -0.000347  0.99756  0.0
H  H29  1  0.18547898  0.07937616  0.61740871  1  0.14699  0.000794  0.118603  0.139564  0.00037  0.998348  0.0
H  H30  1  0.88238809  0.42039588  0.88244933  1  0.140899  0.000875  0.118914  0.139668  0.000404  0.997598  0.001
H  H31  1  0.81450921  0.92062696  0.38258807  1  0.147859  0.000909  0.118629  0.139623  0.000446  0.998198  0.001
H  H32  1  0.32861817  0.50945818  0.00593556  1  0.14206  -0.00157  0.117043  0.094375  -0.000558  1.026309  -0.001
H  H33  1  0.15605670  0.00934790  0.50575709  1  0.137814  0.001403  0.116545  0.094067  0.000313  1.025491  0.001
H  H34  1  0.67138459  0.49053690  0.99406551  1  0.142149  0.001556  0.117119  0.094487  0.000515  1.026203  0.001
H  H35  1  0.84393933  0.99065107  0.49424472  1  0.137913  0.001385  0.116617  0.094167  0.000332  1.025465  0.001
H  H36  1  0.66004958  0.61650853  0.84475861  1  0.159968  -0.001272  0.118978  0.096314  -0.000346  1.038979  -0.001
H  H37  1  0.87861228  0.11590439  0.34520268  1  0.148093  0.001373  0.118416  0.095112  0.000389  1.041046  0.001
H  H38  1  0.33993662  0.38351049  0.15523414  1  0.159488  0.001352  0.118985  0.096312  0.000357  1.038905  0.001
H  H39  1  0.12138432  0.88409541  0.65480272  1  0.148059  0.001291  0.1185  0.095214  0.000338  1.040864  0.001
H  H40  1  0.72508960  0.76101999  0.89524503  1  0.118432  -0.000735  0.111801  0.121481  -0.00042  1.030836  0.0
H  H41  1  0.61866077  0.26012580  0.39587779  1  0.119527  0.000666  0.111844  0.121176  0.000253  1.030576  0.0
H  H42  1  0.27489469  0.23900096  0.10474839  1  0.118053  0.000635  0.11188  0.121608  0.000249  1.030676  0.0
H  H43  1  0.38133485  0.73987207  0.60412690  1  0.119237  0.000721  0.111826  0.12118  0.000369  1.030517  0.0
H  H44  1  0.27729773  0.96963173  0.00479161  1  0.11955  -0.000624  0.114311  0.124714  -0.000307  1.011929  0.0
H  H45  1  0.74843663  0.47013951  0.50441921  1  0.099668  0.00067  0.114368  0.124432  0.00032  1.011374  0.0
H  H46  1  0.72268875  0.03036703  0.99521509  1  0.119748  0.000629  0.114378  0.124757  0.000288  1.011776  0.0
H  H47  1  0.25155464  0.52986328  0.49558517  1  0.099792  0.000658  0.114348  0.124409  0.000307  1.011353  0.0
H  H48  1  0.22973453  0.81541331  0.95184676  1  0.115487  -0.001353  0.118002  0.08861  -0.000391  1.001667  -0.001
H  H49  1  0.00308398  0.31587720  0.45144719  1  0.096543  0.001334  0.117792  0.087709  0.000344  1.001348  0.001
H  H50  1  0.77025471  0.18458571  0.04815406  1  0.11545  0.00133  0.11802  0.08862  0.000323  1.001629  0.001
H  H51  1  0.99691263  0.68412060  0.54855896  1  0.096321  0.001327  0.11776  0.087635  0.000342  1.001395  0.001
C  C52  1  0.26363759  0.47840325  0.76806442  1  0.438607  0.008283  0.039769  0.097963  0.003912  3.936285  0.006
C  C53  1  0.48946952  0.97859369  0.26813802  1  0.451176  -0.0085  0.039773  0.098319  -0.004621  3.932476  -0.006
C  C54  1  0.73636991  0.52158806  0.23193301  1  0.438563  -0.006661  0.040012  0.098211  -0.003518  3.935681  -0.004
C  C55  1  0.51053232  0.02140526  0.73186442  1  0.451424  -0.006675  0.039927  0.098525  -0.003496  3.932392  -0.004
C  C56  1  0.25468067  0.41242691  0.71592725  1  0.010188  -0.011227  -0.076642  -0.185229  -0.006452  3.912992  -0.008
C  C57  1  0.61664833  0.91270150  0.21607554  1  -0.014416  0.010999  -0.075753  -0.18476  0.005769  3.911133  0.008
C  C58  1  0.74533278  0.58756411  0.28407674  1  0.011341  3.2e-05  -0.07659  -0.185239  0.0  3.912848  0.001
C  C59  1  0.38334917  0.08728658  0.78392825  1  -0.014395  0.000116  -0.075665  -0.184523  9.1e-05  3.910764  0.001
C  C60  1  0.37821234  0.34961485  0.65943822  1  0.330317  0.010435  0.100592  0.190683  0.005588  4.037938  0.008
C  C61  1  0.61262268  0.84983925  0.15952843  1  0.365484  -0.010702  0.099324  0.189391  -0.006344  4.040453  -0.008
C  C62  1  0.62178960  0.65038185  0.34054827  1  0.32952  -0.008064  0.100535  0.190518  -0.005355  4.037897  -0.005
C  C63  1  0.38738714  0.15016902  0.84046304  1  0.364482  -0.008171  0.099385  0.189267  -0.005407  4.039958  -0.005
C  C64  1  0.50446579  0.35673079  0.65815757  1  -0.048618  -0.010327  -0.077909  -0.172822  -0.005979  3.917234  -0.007
C  C65  1  0.48068182  0.85680243  0.15811415  1  -0.038538  0.010183  -0.078357  -0.173897  0.005266  3.918078  0.007
C  C66  1  0.49553409  0.64328400  0.34184191  1  -0.048911  0.000302  -0.077773  -0.172732  -6.3e-05  3.917008  0.001
C  C67  1  0.51931610  0.14321834  0.84188343  1  -0.038655  0.000381  -0.078276  -0.173728  0.000156  3.917816  0.001
C  C68  1  0.50350243  0.42509922  0.71231570  1  0.486846  0.008944  0.038497  0.091018  0.004134  3.931653  0.006
C  C69  1  0.35898553  0.92512965  0.21219413  1  0.482186  -0.009271  0.039407  0.092365  -0.004858  3.927574  -0.006
C  C70  1  0.49649592  0.57490487  0.28768141  1  0.48747  -0.008101  0.038707  0.091235  -0.00414  3.93124  -0.005
C  C71  1  0.64101142  0.07488519  0.78780424  1  0.483217  -0.00812  0.039606  0.092544  -0.004128  3.927171  -0.005
C  C72  1  0.30622946  0.20212888  0.41484322  1  0.419409  -0.007806  0.043162  0.093102  -0.003845  3.916884  -0.004
C  C73  1  0.07654118  0.70205894  0.91497949  1  0.4537  0.008348  0.043399  0.093229  0.003617  3.916068  0.005
C  C74  1  0.69378200  0.79786619  0.58515798  1  0.419901  -0.006817  0.043438  0.093319  -0.003292  3.916368  -0.003
C  C75  1  0.92345915  0.29793913  0.08502060  1  0.454317  -0.006125  0.043514  0.093349  -0.002864  3.915922  -0.003
C  C76  1  0.32981219  0.24312331  0.47308853  1  0.042341  0.010474  -0.076591  -0.185562  0.005524  3.901301  0.008
C  C77  1  0.95376468  0.74318825  0.97322255  1  -0.002991  -0.010638  -0.077045  -0.184753  -0.006097  3.904716  -0.008
C  C78  1  0.67020585  0.75685828  0.52690650  1  0.042249  0.003307  -0.076527  -0.185266  0.001782  3.901138  0.004
C  C79  1  0.04624091  0.25679710  0.02677637  1  -0.002905  0.003335  -0.076849  -0.184557  0.001807  3.904227  0.004
C  C80  1  0.28487658  0.19999912  0.54776779  1  0.304807  -0.014412  0.104349  0.201763  -0.008851  4.022525  -0.01
C  C81  1  0.96722710  0.70019348  0.04790221  1  0.274652  0.014274  0.104521  0.201625  0.008008  4.023594  0.01
C  C82  1  0.71512016  0.80001029  0.45224250  1  0.30476  -0.012587  0.104258  0.201367  -0.008142  4.022433  -0.008
C  C83  1  0.03276553  0.29981835  0.95209775  1  0.274038  -0.012435  0.10457  0.201311  -0.008015  4.02314  -0.008
C  C84  1  0.10399658  0.61430844  0.06030353  1  0.048145  -0.009021  -0.069501  -0.169936  -0.005192  3.895029  -0.007
C  C85  1  0.22158738  0.11409320  0.56015786  1  0.011635  0.008869  -0.068165  -0.168114  0.004601  3.895564  0.007
C  C86  1  0.89600453  0.38568602  0.93968926  1  0.04782  0.002301  -0.069312  -0.169589  0.001114  3.895137  0.003
C  C87  1  0.77841427  0.88590216  0.43983691  1  0.010749  0.002319  -0.067979  -0.167881  0.001077  3.895279  0.003
C  C88  1  0.22067439  0.57583735  0.99865494  1  0.427321  0.01123  0.042541  0.091346  0.005401  3.922565  0.006
C  C89  1  0.20489628  0.07573207  0.49850489  1  0.419826  -0.011384  0.042041  0.089844  -0.006191  3.923448  -0.007
C  C90  1  0.77932193  0.42415508  0.00133942  1  0.427813  -0.010699  0.042824  0.091551  -0.005709  3.92234  -0.006
C  C91  1  0.79511562  0.92426211  0.50149418  1  0.420144  -0.010911  0.04224  0.089918  -0.005859  3.923089  -0.006
C  C92  1  0.57862653  0.69447160  0.88117200  1  0.434307  0.009327  0.0369  0.089846  0.004377  3.93529  0.006
C  C93  1  0.84567920  0.19404419  0.38150078  1  0.494566  -0.008428  0.037891  0.091325  -0.004399  3.937258  -0.005
C  C94  1  0.42136407  0.30554042  0.11882343  1  0.434804  -0.009847  0.036925  0.089926  -0.005246  3.935214  -0.006
C  C95  1  0.15431740  0.80595561  0.61850462  1  0.494137  -0.008481  0.037808  0.091182  -0.004374  3.936924  -0.005
C  C96  1  0.61419699  0.77585209  0.90840633  1  -0.015931  -0.008401  -0.076801  -0.171164  -0.00487  3.90364  -0.006
C  C97  1  0.70152621  0.27530046  0.40882217  1  -0.085905  0.000756  -0.075376  -0.16952  0.000308  3.901468  0.002
C  C98  1  0.38578934  0.22416472  0.09159203  1  -0.016034  0.008265  -0.076937  -0.171391  0.004281  3.903763  0.006
C  C99  1  0.29846173  0.72470322  0.59118430  1  -0.085568  0.000937  -0.075472  -0.169698  0.000503  3.901663  0.002
C  C100  1  0.50597289  0.87697644  0.95351165  1  0.328663  0.010809  0.103574  0.19675  0.005943  4.044005  0.008
C  C101  1  0.66357116  0.37683204  0.45363571  1  0.383393  -0.008535  0.10251  0.197111  -0.005519  4.038459  -0.006
C  C102  1  0.49401154  0.12302846  0.04648937  1  0.328584  -0.011149  0.103606  0.196588  -0.006717  4.044252  -0.008
C  C103  1  0.33642394  0.62316686  0.54636789  1  0.383126  -0.008743  0.102508  0.197157  -0.005611  4.038234  -0.006
C  C104  1  0.36438731  0.89227857  0.96974691  1  0.0159  -0.009253  -0.075573  -0.178405  -0.005316  3.920647  -0.006
C  C105  1  0.77364763  0.39254155  0.46956700  1  0.006504  0.001353  -0.075618  -0.178306  0.000803  3.917542  0.002
C  C106  1  0.63559866  0.10772715  0.03025807  1  0.016055  0.009218  -0.075589  -0.17818  0.004859  3.920651  0.006
C  C107  1  0.22634506  0.60746228  0.53043594  1  0.006778  0.001512  -0.075567  -0.178201  0.0009  3.91748  0.002
C  C108  1  0.33843575  0.80597775  0.94054873  1  0.454849  0.008252  0.044543  0.107067  0.004025  3.94177  0.005
C  C109  1  0.91506090  0.30622213  0.44037007  1  0.488792  -0.006893  0.045569  0.108346  -0.003668  3.940784  -0.004
C  C110  1  0.66155253  0.19402323  0.05945204  1  0.453742  -0.00876  0.044503  0.10695  -0.004779  3.941707  -0.006
C  C111  1  0.08493619  0.69377866  0.55963515  1  0.487906  -0.006769  0.045443  0.108197  -0.003604  3.940719  -0.004
N  N112  1  0.38518984  0.48594639  0.76694119  1  -1.213093  -0.057988  -0.330987  -0.248603  -0.036568  3.592532  -0.053
N  N113  1  0.36161161  0.98603183  0.26687409  1  -1.212929  0.058067  -0.331943  -0.249891  0.033488  3.591655  0.053
N  N114  1  0.61481711  0.51405206  0.23307283  1  -1.212737  0.047572  -0.330735  -0.248254  0.027963  3.59221  0.045
N  N115  1  0.63836980  0.01397142  0.73314217  1  -1.212839  0.047545  -0.331607  -0.249452  0.027927  3.591078  0.045
N  N116  1  0.38245808  0.28899318  0.59920865  1  -0.465659  -0.021416  -0.130451  -0.103433  -0.012279  3.255011  -0.017
N  N117  1  0.72928507  0.78929120  0.09932533  1  -0.47122  0.019849  -0.129842  -0.102176  0.010378  3.257903  0.016
N  N118  1  0.61757960  0.71098388  0.40080020  1  -0.464704  -0.029181  -0.129972  -0.102737  -0.016014  3.254562  -0.02
N  N119  1  0.27069946  0.21068786  0.90068269  1  -0.469513  -0.028412  -0.129435  -0.101935  -0.015507  3.257484  -0.019
N  N120  1  0.62075858  0.36885014  0.87074949  1  0.80742  0.008117  0.097199  0.691747  0.003792  4.398855  0.009
N  N121  1  0.13976326  0.86874562  0.37056182  1  0.823905  -0.008277  0.098487  0.691948  -0.004482  4.40322  -0.009
N  N122  1  0.37923689  0.63115983  0.12924802  1  0.807341  -0.008112  0.097124  0.691718  -0.004351  4.398875  -0.009
N  N123  1  0.86023562  0.13125344  0.62943787  1  0.824027  -0.008344  0.098454  0.691977  -0.004518  4.402928  -0.009
N  N124  1  0.36014205  0.79116524  0.73936882  1  0.827907  0.007252  0.096749  0.693512  0.00326  4.409056  0.008
N  N125  1  0.10905158  0.29105912  0.23917960  1  0.833087  -0.007253  0.098004  0.692352  -0.003779  4.408782  -0.008
N  N126  1  0.63986218  0.20883473  0.26063256  1  0.828042  -0.007236  0.096748  0.693442  -0.003789  4.40904  -0.008
N  N127  1  0.89094738  0.70894178  0.76082312  1  0.833136  -0.007323  0.097775  0.692134  -0.003825  4.408545  -0.008
N  N128  1  0.20949103  0.62017390  0.92678915  1  -1.218062  -0.08164  -0.323461  -0.234141  -0.050637  3.537164  -0.069
N  N129  1  0.24342315  0.12018676  0.42665187  1  -1.203661  0.081602  -0.322856  -0.233631  0.046473  3.538446  0.068
N  N130  1  0.79053276  0.37984528  0.07319987  1  -1.218024  0.07428  -0.323314  -0.2339  0.042595  3.536882  0.063
N  N131  1  0.75654946  0.87982842  0.57333876  1  -1.203502  0.07417  -0.322773  -0.233269  0.04257  3.5382  0.062
N  N132  1  0.29091220  0.24395357  0.61208122  1  -0.461541  0.007359  -0.130359  -0.108189  0.004127  3.212995  0.008
N  N133  1  0.85296184  0.74416614  0.11223961  1  -0.448208  -0.00836  -0.130019  -0.108035  -0.005233  3.214387  -0.009
N  N134  1  0.70908598  0.75602912  0.38791116  1  -0.46072  -0.021747  -0.129498  -0.107118  -0.011574  3.212178  -0.013
N  N135  1  0.14705666  0.25583228  0.88775249  1  -0.447083  -0.021568  -0.129376  -0.106785  -0.011525  3.213516  -0.013
N  N136  1  0.44281832  0.70743640  0.89719141  1  -1.192505  -0.054809  -0.329063  -0.250785  -0.034759  3.586123  -0.051
N  N137  1  0.95250035  0.20740466  0.39722962  1  -1.211176  0.046984  -0.330157  -0.252097  0.027645  3.585998  0.045
N  N138  1  0.55717194  0.29258227  0.10280931  1  -1.191343  0.054252  -0.329308  -0.250886  0.031464  3.586544  0.051
N  N139  1  0.04748183  0.79260488  0.60277776  1  -1.209893  0.046956  -0.330152  -0.251782  0.027613  3.586281  0.045
N  N140  1  0.54968561  0.95798652  0.97726105  1  -0.490833  -0.013566  -0.139552  -0.131391  -0.007908  3.306497  -0.012
N  N141  1  0.51507652  0.45785181  0.47734256  1  -0.499778  -0.018731  -0.138529  -0.130839  -0.01011  3.304593  -0.012
N  N142  1  0.45030172  0.04202233  0.02273959  1  -0.468062  0.012785  -0.139396  -0.131098  0.006877  3.306585  0.011
N  N143  1  0.48491470  0.54214911  0.52265987  1  -0.458918  -0.017916  -0.138444  -0.13076  -0.009611  3.304578  -0.012
O  O144  1  0.63191677  0.45902928  0.82026342  1  -0.536023  -0.093019  -0.166211  -0.405106  -0.055255  2.070891  -0.082
O  O145  1  0.08870955  0.95887109  0.32010648  1  -0.541071  0.092906  -0.166647  -0.404431  0.050792  2.07053  0.082
O  O146  1  0.36807687  0.54098051  0.17973821  1  -0.536143  0.092963  -0.166307  -0.405192  0.050827  2.071001  0.082
O  O147  1  0.91128702  0.04113865  0.67989626  1  -0.54117  0.092594  -0.16673  -0.404497  0.050625  2.071015  0.082
O  O148  1  0.49259159  0.39721381  0.91109304  1  -0.546209  -0.083771  -0.172624  -0.432022  -0.049798  2.047803  -0.076
O  O149  1  0.19911333  0.89727631  0.41090180  1  -0.546003  0.083767  -0.173792  -0.433234  0.045726  2.053215  0.076
O  O150  1  0.50741255  0.60279028  0.08890415  1  -0.546157  0.08352  -0.172691  -0.432079  0.045595  2.047629  0.075
O  O151  1  0.80088945  0.10272861  0.58909877  1  -0.546104  0.083384  -0.173911  -0.433297  0.045528  2.053176  0.075
O  O152  1  0.72488800  0.26321298  0.87899112  1  -0.456528  -0.016695  -0.143512  -0.365406  -0.009535  1.925003  -0.015
O  O153  1  0.13334040  0.76294868  0.37879465  1  -0.465615  0.016315  -0.143693  -0.365311  0.008431  1.924027  0.014
O  O154  1  0.27511122  0.73679128  0.12100204  1  -0.45679  0.016525  -0.143571  -0.365474  0.008528  1.925325  0.014
O  O155  1  0.86666331  0.23705630  0.62120467  1  -0.465895  0.016238  -0.143838  -0.3655  0.008394  1.923642  0.014
O  O156  1  0.25735661  0.78215226  0.79217959  1  -0.532118  -0.088346  -0.172637  -0.419431  -0.052712  2.055108  -0.079
O  O157  1  0.16804701  0.28211946  0.29199663  1  -0.539954  0.088151  -0.17296  -0.419344  0.048321  2.05549  0.079
O  O158  1  0.74264654  0.21785187  0.20781669  1  -0.532407  0.088133  -0.172752  -0.419531  0.048291  2.055193  0.079
O  O159  1  0.83195250  0.71787835  0.70800956  1  -0.539999  0.087944  -0.172964  -0.419396  0.048261  2.055612  0.079
O  O160  1  0.48438579  0.69317065  0.73643924  1  -0.532572  -0.084085  -0.163257  -0.4017  -0.04969  2.003029  -0.075
O  O161  1  0.08556948  0.19310765  0.23633353  1  -0.535463  0.084079  -0.164066  -0.402061  0.045708  2.00213  0.075
O  O162  1  0.51560837  0.30683019  0.26356485  1  -0.532562  0.084031  -0.163312  -0.4017  0.045703  2.003087  0.075
O  O163  1  0.91443435  0.80688724  0.76367169  1  -0.535531  0.083711  -0.164029  -0.401949  0.045506  2.002342  0.074
O  O164  1  0.34031415  0.88847802  0.69389433  1  -0.502205  -0.016028  -0.147946  -0.388977  -0.009148  1.981984  -0.014
O  O165  1  0.07723110  0.38825600  0.19360460  1  -0.495308  0.015833  -0.147988  -0.387809  0.008219  1.982555  0.014
O  O166  1  0.65969588  0.11151998  0.30610735  1  -0.502346  0.015875  -0.148056  -0.389093  0.008254  1.982188  0.014
O  O167  1  0.92277221  0.61174193  0.80639878  1  -0.495603  0.015931  -0.148061  -0.38788  0.008263  1.982293  0.014
