# generated using pymatgen
data_TbH7C14(NO4)2
_symmetry_space_group_name_H-M   'P 1'
_cell_length_a   8.36233349
_cell_length_b   12.22934581
_cell_length_c   13.48757289
_cell_angle_alpha   102.08041048
_cell_angle_beta   90.00021122
_cell_angle_gamma   89.99993915
_symmetry_Int_Tables_number   1
_chemical_formula_structural   TbH7C14(NO4)2
_chemical_formula_sum   'Tb4 H28 C56 N8 O32'
_cell_volume   1348.77313537
_cell_formula_units_Z   4
loop_
 _symmetry_equiv_pos_site_id
 _symmetry_equiv_pos_as_xyz
  1  'x, y, z'
loop_
 _atom_site_type_symbol
 _atom_site_label
 _atom_site_symmetry_multiplicity
 _atom_site_fract_x
 _atom_site_fract_y
 _atom_site_fract_z
 _atom_site_occupancy
 _atom_site_hle17_bader_spin_density
 _atom_site_hle17_ddec_charge
 _atom_site_hle17_ddec_spin_density
 _atom_site_hle17_ddec_sum_bond_order
 _atom_site_hle17_magmom
 _atom_site_hse06_10hf_bader_spin_density
 _atom_site_hse06_10hf_ddec_charge
 _atom_site_hse06_10hf_ddec_spin_density
 _atom_site_hse06_10hf_ddec_sum_bond_order
 _atom_site_hse06_10hf_magmom
 _atom_site_hse06_bader_spin_density
 _atom_site_hse06_ddec_charge
 _atom_site_hse06_ddec_spin_density
 _atom_site_hse06_ddec_sum_bond_order
 _atom_site_hse06_magmom
 _atom_site_pbe_bader_spin_density
 _atom_site_pbe_cm5_charge
 _atom_site_pbe_ddec_charge
 _atom_site_pbe_ddec_spin_density
 _atom_site_pbe_ddec_sum_bond_order
 _atom_site_pbe_magmom
Tb  Tb0  1  0.22774808  0.30099560  0.68320939  1  0  2.174801  0  1.738363  0  0  1.994511  0  2.248442  0  0  2.047145  0  2.202864  0  0  1.53896  1.953331  0  2.286026  0
Tb  Tb1  1  0.72774618  0.69900247  0.81679315  1  0  2.174779  0  1.738344  0  0  1.994546  0  2.24836  0  0  2.047125  0  2.202861  0  0  1.538949  1.953444  0  2.285795  0
Tb  Tb2  1  0.77225017  0.69900770  0.31679237  1  0  2.174815  0  1.738383  0  0  1.994577  0  2.248394  0  0  2.047108  0  2.202968  0  0  1.538942  1.953405  0  2.285964  0
Tb  Tb3  1  0.27225806  0.30099748  0.18320946  1  0  2.174767  0  1.738304  0  0  1.994471  0  2.248377  0  0  2.047069  0  2.202852  0  0  1.538941  1.953386  0  2.285801  0
H  H4  1  0.21713552  0.83483254  0.59270690  1  0  0.111024  0  0.964298  0  0  0.118027  0  1.029083  0  0  0.120873  0  1.028859  0  0  0.110513  0.115963  0  1.029398  0
H  H5  1  0.71713380  0.16516387  0.90729306  1  0  0.111023  0  0.964348  0  0  0.118072  0  1.029081  0  0  0.120918  0  1.028858  0  0  0.110549  0.116008  0  1.029396  0
H  H6  1  0.78286633  0.16517076  0.40729634  1  0  0.110998  0  0.964254  0  0  0.117971  0  1.029074  0  0  0.120814  0  1.028855  0  0  0.110508  0.115907  0  1.029387  0
H  H7  1  0.28286445  0.83482858  0.09270142  1  0  0.111028  0  0.964277  0  0  0.118007  0  1.02908  0  0  0.120851  0  1.028859  0  0  0.110517  0.115945  0  1.029394  0
H  H8  1  0.51785662  0.80750272  0.58997986  1  0  0.124628  0  0.94713  0  0  0.131933  0  1.005577  0  0  0.136417  0  1.001773  0  0  0.119646  0.128611  0  1.008426  0
H  H9  1  0.01785290  0.19249623  0.91002609  1  0  0.1246  0  0.947146  0  0  0.131907  0  1.005597  0  0  0.136389  0  1.001793  0  0  0.119625  0.128588  0  1.008445  0
H  H10  1  0.48214762  0.19249891  0.41002455  1  0  0.124654  0  0.947066  0  0  0.131979  0  1.005485  0  0  0.136463  0  1.001679  0  0  0.119673  0.128657  0  1.008336  0
H  H11  1  0.98214296  0.80750457  0.08997297  1  0  0.124626  0  0.947161  0  0  0.131962  0  1.005574  0  0  0.136445  0  1.001771  0  0  0.119652  0.12864  0  1.008423  0
H  H12  1  0.69366158  0.97687420  0.62428263  1  0  0.127345  0  0.957085  0  0  0.129466  0  1.027925  0  0  0.134326  0  1.024566  0  0  0.111488  0.12593  0  1.030494  0
H  H13  1  0.19365793  0.02312472  0.87571999  1  0  0.127352  0  0.957128  0  0  0.129459  0  1.027984  0  0  0.134318  0  1.024627  0  0  0.111506  0.125924  0  1.030556  0
H  H14  1  0.30634504  0.02312910  0.37572061  1  0  0.127359  0  0.957198  0  0  0.12947  0  1.028032  0  0  0.134325  0  1.024678  0  0  0.111505  0.125935  0  1.0306  0
H  H15  1  0.80634392  0.97687775  0.12428087  1  0  0.127324  0  0.957136  0  0  0.129428  0  1.028005  0  0  0.134284  0  1.024654  0  0  0.111488  0.125893  0  1.030575  0
H  H16  1  0.90518828  0.34605206  0.33621376  1  0  0.127356  0  0.964159  0  0  0.132929  0  1.02876  0  0  0.136964  0  1.026615  0  0  0.117453  0.129968  0  1.030486  0
H  H17  1  0.40518115  0.65395226  0.16378968  1  0  0.127341  0  0.964196  0  0  0.132938  0  1.028768  0  0  0.136971  0  1.026625  0  0  0.117453  0.129982  0  1.03049  0
H  H18  1  0.09480997  0.65394539  0.66378688  1  0  0.127391  0  0.964107  0  0  0.132948  0  1.028726  0  0  0.136984  0  1.026581  0  0  0.117448  0.129984  0  1.030456  0
H  H19  1  0.59481830  0.34604519  0.83621467  1  0  0.127404  0  0.964217  0  0  0.132977  0  1.028802  0  0  0.137011  0  1.026658  0  0  0.117484  0.130019  0  1.030521  0
H  H20  1  0.65016517  0.42194625  0.42205086  1  0  0.120124  0  0.957201  0  0  0.129728  0  1.012021  0  0  0.133828  0  1.008843  0  0  0.117149  0.126696  0  1.014431  0
H  H21  1  0.15016002  0.57805228  0.07794570  1  0  0.12012  0  0.957232  0  0  0.129727  0  1.012041  0  0  0.133823  0  1.008863  0  0  0.117152  0.126696  0  1.014452  0
H  H22  1  0.34983189  0.57805121  0.57794681  1  0  0.12013  0  0.957299  0  0  0.129821  0  1.011994  0  0  0.133927  0  1.008814  0  0  0.117186  0.126786  0  1.014408  0
H  H23  1  0.84984182  0.42194434  0.92205181  1  0  0.12018  0  0.957105  0  0  0.129747  0  1.011965  0  0  0.133846  0  1.008786  0  0  0.11716  0.126716  0  1.014375  0
H  H24  1  0.64282685  0.47502082  0.61284094  1  0  0.132468  0  0.952969  0  0  0.137866  0  1.016361  0  0  0.14257  0  1.012906  0  0  0.121917  0.134418  0  1.019039  0
H  H25  1  0.14282726  0.52497979  0.88715893  1  0  0.132462  0  0.952955  0  0  0.137894  0  1.016318  0  0  0.14258  0  1.012887  0  0  0.121918  0.134446  0  1.018999  0
H  H26  1  0.35717021  0.52498249  0.38715860  1  0  0.132471  0  0.952987  0  0  0.137904  0  1.016348  0  0  0.142623  0  1.012874  0  0  0.121932  0.13446  0  1.019026  0
H  H27  1  0.85717578  0.47502185  0.11284103  1  0  0.132507  0  0.952934  0  0  0.137884  0  1.016344  0  0  0.14258  0  1.0129  0  0  0.12192  0.134439  0  1.019022  0
H  H28  1  0.90204197  0.15584482  0.65960746  1  0  0.447594  0  0.852214  0  0  0.410927  0  0.924448  0  0  0.424671  0  0.904891  0  0  0.317936  0.401282  0  0.938113  0
H  H29  1  0.40204159  0.84415407  0.84039043  1  0  0.447711  0  0.852047  0  0  0.410989  0  0.924363  0  0  0.424732  0  0.904807  0  0  0.317985  0.401344  0  0.938028  0
H  H30  1  0.09795748  0.84415514  0.34039144  1  0  0.447733  0  0.85202  0  0  0.411  0  0.924351  0  0  0.424744  0  0.904793  0  0  0.317981  0.401355  0  0.938016  0
H  H31  1  0.59796025  0.15584256  0.15960560  1  0  0.447641  0  0.852152  0  0  0.410951  0  0.92442  0  0  0.424695  0  0.904862  0  0  0.317943  0.401306  0  0.938085  0
C  C32  1  0.23904762  0.01380921  0.62737726  1  0  0.103722  0  3.77373  0  0  0.107587  0  4.017827  0  0  0.107212  0  4.036897  0  0  0.120074  0.107737  0  4.004874  0
C  C33  1  0.73904799  0.98618804  0.87262069  1  0  0.103826  0  3.773587  0  0  0.107736  0  4.017595  0  0  0.107361  0  4.036662  0  0  0.120123  0.107888  0  4.004644  0
C  C34  1  0.76094944  0.98619074  0.37262534  1  0  0.103543  0  3.773857  0  0  0.107477  0  4.017798  0  0  0.1071  0  4.036862  0  0  0.12005  0.107632  0  4.004849  0
C  C35  1  0.26095146  0.01381110  0.12737508  1  0  0.103751  0  3.773715  0  0  0.107631  0  4.017742  0  0  0.107254  0  4.036809  0  0  0.120076  0.107781  0  4.004789  0
C  C36  1  0.29952997  0.90517086  0.60723882  1  0  -0.075273  0  3.648553  0  0  -0.101818  0  3.898245  0  0  -0.10403  0  3.916696  0  0  -0.06089  -0.100408  0  3.885949  0
C  C37  1  0.79952948  0.09482470  0.89275968  1  0  -0.075417  0  3.648702  0  0  -0.102034  0  3.898397  0  0  -0.104247  0  3.916849  0  0  -0.060973  -0.100624  0  3.886103  0
C  C38  1  0.70047426  0.09483244  0.39276442  1  0  -0.07518  0  3.648343  0  0  -0.101724  0  3.898009  0  0  -0.103934  0  3.916459  0  0  -0.060869  -0.100313  0  3.885711  0
C  C39  1  0.20047237  0.90516858  0.10723571  1  0  -0.075281  0  3.648502  0  0  -0.10181  0  3.898174  0  0  -0.10402  0  3.916625  0  0  -0.060847  -0.1004  0  3.885877  0
C  C40  1  0.46474104  0.89057951  0.60655381  1  0  0.013731  0  3.631483  0  0  -0.004534  0  3.88788  0  0  -0.002624  0  3.902921  0  0  -0.053485  -0.00569  0  3.877732  0
C  C41  1  0.96473694  0.10941936  0.89344793  1  0  0.013823  0  3.631483  0  0  -0.004442  0  3.887895  0  0  -0.002531  0  3.902934  0  0  -0.053448  -0.0056  0  3.877752  0
C  C42  1  0.53525960  0.10942212  0.39344986  1  0  0.013756  0  3.631373  0  0  -0.004523  0  3.887767  0  0  -0.002613  0  3.902805  0  0  -0.053471  -0.00568  0  3.877619  0
C  C43  1  0.03526012  0.89058144  0.10655039  1  0  0.013708  0  3.631568  0  0  -0.004571  0  3.887969  0  0  -0.002663  0  3.90301  0  0  -0.053519  -0.005725  0  3.877823  0
C  C44  1  0.56365361  0.98469188  0.62525023  1  0  -0.086833  0  3.628101  0  0  -0.11354  0  3.885612  0  0  -0.117217  0  3.904755  0  0  -0.063985  -0.111094  0  3.872924  0
C  C45  1  0.06364996  0.01530791  0.87475227  1  0  -0.086819  0  3.628057  0  0  -0.11352  0  3.885587  0  0  -0.117195  0  3.904728  0  0  -0.063975  -0.111074  0  3.872901  0
C  C46  1  0.43634943  0.01531059  0.37475063  1  0  -0.08692  0  3.628309  0  0  -0.113612  0  3.885827  0  0  -0.117284  0  3.904965  0  0  -0.064035  -0.111164  0  3.873139  0
C  C47  1  0.93635188  0.98469372  0.12524991  1  0  -0.086711  0  3.628208  0  0  -0.113446  0  3.885789  0  0  -0.11712  0  3.90493  0  0  -0.063947  -0.111002  0  3.873103  0
C  C48  1  0.49325058  0.09068458  0.64452783  1  0  0.106623  0  3.739359  0  0  0.110704  0  3.984107  0  0  0.110742  0  4.00353  0  0  0.12197  0.110476  0  3.970896  0
C  C49  1  0.99324857  0.90931345  0.85547084  1  0  0.106577  0  3.739373  0  0  0.110668  0  3.984128  0  0  0.110706  0  4.003549  0  0  0.121943  0.110443  0  3.970918  0
C  C50  1  0.50675246  0.90931789  0.35547229  1  0  0.106635  0  3.739308  0  0  0.110731  0  3.984047  0  0  0.110768  0  4.003466  0  0  0.122019  0.110502  0  3.970834  0
C  C51  1  0.00675686  0.09068651  0.14453028  1  0  0.10646  0  3.739584  0  0  0.110577  0  3.984309  0  0  0.110617  0  4.003734  0  0  0.121961  0.110356  0  3.971098  0
C  C52  1  0.06284559  0.03381808  0.62923207  1  0  0.632913  0  3.808988  0  0  0.583591  0  4.10638  0  0  0.615603  0  4.097975  0  0  0.243548  0.5617  0  4.111656  0
C  C53  1  0.56284479  0.96617837  0.87076682  1  0  0.632962  0  3.808838  0  0  0.583683  0  4.106121  0  0  0.615693  0  4.097715  0  0  0.243642  0.561789  0  4.111406  0
C  C54  1  0.93714788  0.96618020  0.37077244  1  0  0.632986  0  3.808971  0  0  0.583742  0  4.10618  0  0  0.615753  0  4.09777  0  0  0.243686  0.561836  0  4.111483  0
C  C55  1  0.43715586  0.03381491  0.12922782  1  0  0.6328  0  3.809284  0  0  0.583531  0  4.106565  0  0  0.615544  0  4.098161  0  0  0.24357  0.561647  0  4.111831  0
C  C56  1  0.58833646  0.19852356  0.66554807  1  0  0.653837  0  3.899641  0  0  0.603362  0  4.197958  0  0  0.637305  0  4.187981  0  0  0.227295  0.580454  0  4.203758  0
C  C57  1  0.08833372  0.80147623  0.83444929  1  0  0.65385  0  3.899435  0  0  0.603348  0  4.197775  0  0  0.63729  0  4.187798  0  0  0.227268  0.580441  0  4.203577  0
C  C58  1  0.41166060  0.80147807  0.33445263  1  0  0.653849  0  3.89958  0  0  0.603347  0  4.197934  0  0  0.637292  0  4.187951  0  0  0.227309  0.580441  0  4.203732  0
C  C59  1  0.91166574  0.19852457  0.16555125  1  0  0.65397  0  3.899486  0  0  0.603494  0  4.197792  0  0  0.637427  0  4.187824  0  0  0.227297  0.580585  0  4.203598  0
C  C60  1  0.02168891  0.34127999  0.47807889  1  0  0.097904  0  3.752612  0  0  0.100113  0  4.00026  0  0  0.099966  0  4.019342  0  0  0.117783  0.099997  0  3.98738  0
C  C61  1  0.52168408  0.65872441  0.02192222  1  0  0.097974  0  3.75253  0  0  0.100136  0  4.000269  0  0  0.09999  0  4.019351  0  0  0.117798  0.10002  0  3.987394  0
C  C62  1  0.97831173  0.65872081  0.52192165  1  0  0.097881  0  3.752635  0  0  0.100129  0  4.000252  0  0  0.099979  0  4.019336  0  0  0.117791  0.100014  0  3.987366  0
C  C63  1  0.47831896  0.34127555  0.97807815  1  0  0.097967  0  3.752672  0  0  0.100164  0  4.000354  0  0  0.100019  0  4.01944  0  0  0.117817  0.100048  0  3.987474  0
C  C64  1  0.89417844  0.36326862  0.41848524  1  0  -0.087126  0  3.628758  0  0  -0.111932  0  3.882763  0  0  -0.114431  0  3.90059  0  0  -0.064413  -0.110339  0  3.871039  0
C  C65  1  0.39417322  0.63673487  0.08151654  1  0  -0.087165  0  3.628837  0  0  -0.111981  0  3.88284  0  0  -0.11448  0  3.900669  0  0  -0.064433  -0.110389  0  3.871119  0
C  C66  1  0.10582221  0.63673218  0.58151382  1  0  -0.087097  0  3.628802  0  0  -0.1119  0  3.882811  0  0  -0.1144  0  3.900642  0  0  -0.064396  -0.110303  0  3.871078  0
C  C67  1  0.60582982  0.36326342  0.91848500  1  0  -0.087284  0  3.629063  0  0  -0.1121  0  3.883069  0  0  -0.114603  0  3.9009  0  0  -0.06448  -0.110502  0  3.871336  0
C  C68  1  0.75338172  0.40786899  0.46687160  1  0  0.008204  0  3.627308  0  0  -0.00807  0  3.878303  0  0  -0.006381  0  3.893891  0  0  -0.0553  -0.00909  0  3.867817  0
C  C69  1  0.25337628  0.59213286  0.03312732  1  0  0.008102  0  3.627528  0  0  -0.008141  0  3.878532  0  0  -0.006446  0  3.89411  0  0  -0.055309  -0.00916  0  3.868048  0
C  C70  1  0.24661773  0.59212931  0.53312624  1  0  0.008135  0  3.62753  0  0  -0.008185  0  3.878522  0  0  -0.006505  0  3.894121  0  0  -0.055312  -0.009202  0  3.86803  0
C  C71  1  0.74662556  0.40786710  0.96687232  1  0  0.008189  0  3.627472  0  0  -0.008033  0  3.878457  0  0  -0.006338  0  3.894039  0  0  -0.05528  -0.009052  0  3.867968  0
C  C72  1  0.74762645  0.43616220  0.57228304  1  0  -0.076502  0  3.631512  0  0  -0.102825  0  3.883423  0  0  -0.105175  0  3.899639  0  0  -0.056958  -0.101353  0  3.872756  0
C  C73  1  0.24762346  0.56383671  0.92771821  1  0  -0.076369  0  3.631542  0  0  -0.102751  0  3.883498  0  0  -0.105089  0  3.899724  0  0  -0.05694  -0.10128  0  3.872833  0
C  C74  1  0.25236822  0.56383442  0.42771521  1  0  -0.076449  0  3.631731  0  0  -0.102849  0  3.883712  0  0  -0.105212  0  3.899928  0  0  -0.056963  -0.101378  0  3.87305  0
C  C75  1  0.75237480  0.43616325  0.07228216  1  0  -0.076509  0  3.631727  0  0  -0.102823  0  3.883646  0  0  -0.10517  0  3.899868  0  0  -0.056957  -0.101352  0  3.872982  0
C  C76  1  0.88157967  0.41294439  0.62595363  1  0  0.113272  0  3.765502  0  0  0.11594  0  4.01035  0  0  0.117265  0  4.026977  0  0  0.125057  0.114883  0  3.999102  0
C  C77  1  0.38157751  0.58705534  0.87404660  1  0  0.113194  0  3.765473  0  0  0.115852  0  4.010409  0  0  0.117178  0  4.027029  0  0  0.125037  0.114798  0  3.999166  0
C  C78  1  0.11841499  0.58705641  0.37404543  1  0  0.113255  0  3.765664  0  0  0.115967  0  4.010516  0  0  0.117292  0  4.027143  0  0  0.12506  0.114908  0  3.999276  0
C  C79  1  0.61842672  0.41294546  0.12595320  1  0  0.113133  0  3.765404  0  0  0.115827  0  4.01035  0  0  0.117151  0  4.026978  0  0  0.125019  0.114768  0  3.99911  0
C  C80  1  0.18108214  0.29197646  0.43895607  1  0  0.697339  0  3.858486  0  0  0.648929  0  4.153022  0  0  0.684416  0  4.141032  0  0  0.240846  0.624838  0  4.160145  0
C  C81  1  0.68107627  0.70802707  0.06104524  1  0  0.697294  0  3.858563  0  0  0.648882  0  4.153137  0  0  0.684366  0  4.141147  0  0  0.240815  0.624789  0  4.160264  0
C  C82  1  0.81891970  0.70802601  0.56104553  1  0  0.697329  0  3.858562  0  0  0.648882  0  4.15314  0  0  0.684366  0  4.14115  0  0  0.240804  0.62479  0  4.160261  0
C  C83  1  0.31892438  0.29197038  0.93895614  1  0  0.697194  0  3.858829  0  0  0.648788  0  4.153364  0  0  0.684272  0  4.141376  0  0  0.240783  0.624696  0  4.160488  0
C  C84  1  0.89576503  0.44187359  0.73932554  1  0  0.695484  0  3.848175  0  0  0.645091  0  4.141459  0  0  0.681211  0  4.127252  0  0  0.245291  0.620499  0  4.150217  0
C  C85  1  0.39576820  0.55812780  0.76067578  1  0  0.69554  0  3.847995  0  0  0.645104  0  4.141355  0  0  0.681225  0  4.127149  0  0  0.245335  0.620503  0  4.150124  0
C  C86  1  0.10422844  0.55812721  0.26067425  1  0  0.695439  0  3.847985  0  0  0.644995  0  4.141324  0  0  0.681116  0  4.127112  0  0  0.24527  0.620398  0  4.150095  0
C  C87  1  0.60423603  0.44187467  0.23932582  1  0  0.695839  0  3.847685  0  0  0.64527  0  4.14129  0  0  0.681389  0  4.127081  0  0  0.245377  0.620684  0  4.150039  0
N  N88  1  0.33364919  0.10448234  0.64595985  1  0  -0.420047  0  3.287731  0  0  -0.372725  0  3.538385  0  0  -0.384922  0  3.558586  0  0  -0.380668  -0.363845  0  3.524462  0
N  N89  1  0.83364600  0.89551490  0.85403831  1  0  -0.420027  0  3.287653  0  0  -0.372707  0  3.538262  0  0  -0.384895  0  3.558459  0  0  -0.380663  -0.363837  0  3.524335  0
N  N90  1  0.66635146  0.89552013  0.35404175  1  0  -0.419961  0  3.287817  0  0  -0.372677  0  3.538452  0  0  -0.38486  0  3.558651  0  0  -0.380688  -0.363797  0  3.524526  0
N  N91  1  0.16635704  0.10448173  0.14595994  1  0  -0.419973  0  3.287837  0  0  -0.372662  0  3.53847  0  0  -0.384852  0  3.558669  0  0  -0.38069  -0.363797  0  3.524546  0
N  N92  1  0.01222295  0.36340819  0.57978149  1  0  -0.459404  0  3.360478  0  0  -0.409872  0  3.61156  0  0  -0.423664  0  3.633176  0  0  -0.398556  -0.399938  0  3.596735  0
N  N93  1  0.51222057  0.63659329  0.92021974  1  0  -0.459361  0  3.360459  0  0  -0.409799  0  3.611551  0  0  -0.423585  0  3.633168  0  0  -0.398528  -0.399875  0  3.596724  0
N  N94  1  0.98777411  0.63659429  0.42021863  1  0  -0.459417  0  3.360501  0  0  -0.409916  0  3.611582  0  0  -0.423694  0  3.633192  0  0  -0.398604  -0.399982  0  3.596756  0
N  N95  1  0.48777888  0.36340667  0.07978138  1  0  -0.459341  0  3.360351  0  0  -0.409797  0  3.611448  0  0  -0.423585  0  3.633065  0  0  -0.398533  -0.399873  0  3.596625  0
O  O96  1  0.50730999  0.28836456  0.67541466  1  0  -0.698891  0  2.057004  0  0  -0.64864  0  2.312158  0  0  -0.674102  0  2.302787  0  0  -0.389546  -0.630391  0  2.317954  0
O  O97  1  0.00730613  0.71163355  0.82459110  1  0  -0.698977  0  2.056797  0  0  -0.648742  0  2.312021  0  0  -0.674198  0  2.302656  0  0  -0.389619  -0.6305  0  2.317809  0
O  O98  1  0.49269185  0.71163708  0.32458455  1  0  -0.69899  0  2.057005  0  0  -0.648742  0  2.312181  0  0  -0.674193  0  2.302815  0  0  -0.389578  -0.630492  0  2.317977  0
O  O99  1  0.99269571  0.28836638  0.17541743  1  0  -0.699001  0  2.056815  0  0  -0.648729  0  2.311927  0  0  -0.67419  0  2.302571  0  0  -0.389545  -0.630489  0  2.317718  0
O  O100  1  0.73807101  0.19566376  0.67474748  1  0  -0.61025  0  2.018209  0  0  -0.558576  0  2.247111  0  0  -0.583868  0  2.237595  0  0  -0.308657  -0.540989  0  2.253175  0
O  O101  1  0.23806940  0.80433351  0.82524306  1  0  -0.610236  0  2.018164  0  0  -0.558527  0  2.247128  0  0  -0.583821  0  2.237618  0  0  -0.308556  -0.540935  0  2.253181  0
O  O102  1  0.26193084  0.80433871  0.32525264  1  0  -0.61024  0  2.01821  0  0  -0.558538  0  2.247169  0  0  -0.583831  0  2.237653  0  0  -0.308675  -0.540952  0  2.253231  0
O  O103  1  0.76193483  0.19566563  0.17475049  1  0  -0.610272  0  2.01827  0  0  -0.558592  0  2.247183  0  0  -0.583878  0  2.237669  0  0  -0.308639  -0.541003  0  2.253248  0
O  O104  1  0.02573991  0.14363291  0.65483240  1  0  -0.659678  0  2.189661  0  0  -0.600451  0  2.426568  0  0  -0.62484  0  2.408301  0  0  -0.359595  -0.582763  0  2.438605  0
O  O105  1  0.52573554  0.85636438  0.84516731  1  0  -0.6598  0  2.189546  0  0  -0.600584  0  2.426545  0  0  -0.624961  0  2.408274  0  0  -0.359698  -0.582908  0  2.438582  0
O  O106  1  0.97426193  0.85636622  0.34516708  1  0  -0.659843  0  2.189559  0  0  -0.60059  0  2.426494  0  0  -0.624966  0  2.408222  0  0  -0.359662  -0.582899  0  2.438537  0
O  O107  1  0.47426511  0.14362890  0.15482882  1  0  -0.659661  0  2.189828  0  0  -0.600439  0  2.426737  0  0  -0.624826  0  2.408474  0  0  -0.359565  -0.582764  0  2.438765  0
O  O108  1  0.96359937  0.95883465  0.61035302  1  0  -0.500113  0  1.919754  0  0  -0.458487  0  2.126787  0  0  -0.478001  0  2.121063  0  0  -0.262348  -0.44519  0  2.130613  0
O  O109  1  0.46359696  0.04116340  0.88964189  1  0  -0.500154  0  1.919672  0  0  -0.458556  0  2.126691  0  0  -0.47807  0  2.120971  0  0  -0.262399  -0.445256  0  2.13052  0
O  O110  1  0.03639650  0.04116112  0.38964952  1  0  -0.500065  0  1.919713  0  0  -0.458517  0  2.126729  0  0  -0.47803  0  2.121003  0  0  -0.262437  -0.445214  0  2.130566  0
O  O111  1  0.53640369  0.95883324  0.11035044  1  0  -0.500086  0  1.919862  0  0  -0.458486  0  2.12687  0  0  -0.477999  0  2.121146  0  0  -0.262388  -0.445191  0  2.130692  0
O  O112  1  0.27399543  0.26675604  0.50552849  1  0  -0.691558  0  2.006962  0  0  -0.642065  0  2.254633  0  0  -0.667378  0  2.245105  0  0  -0.373063  -0.623877  0  2.260552  0
O  O113  1  0.77399096  0.73324454  0.99447388  1  0  -0.691537  0  2.006988  0  0  -0.642047  0  2.254676  0  0  -0.667351  0  2.245149  0  0  -0.373066  -0.623873  0  2.260594  0
O  O114  1  0.72600522  0.73324643  0.49447311  1  0  -0.691537  0  2.007027  0  0  -0.642035  0  2.254705  0  0  -0.667331  0  2.24518  0  0  -0.373031  -0.623848  0  2.260623  0
O  O115  1  0.22601447  0.26675291  0.00552601  1  0  -0.691465  0  2.007151  0  0  -0.64198  0  2.254838  0  0  -0.667285  0  2.245309  0  0  -0.373064  -0.62381  0  2.260757  0
O  O116  1  0.21417072  0.28014463  0.34575399  1  0  -0.721253  0  2.04457  0  0  -0.668672  0  2.310943  0  0  -0.694702  0  2.299503  0  0  -0.399353  -0.649864  0  2.318215  0
O  O117  1  0.71416181  0.71986306  0.15424967  1  0  -0.721277  0  2.044664  0  0  -0.668688  0  2.311028  0  0  -0.694709  0  2.299596  0  0  -0.399346  -0.649864  0  2.318304  0
O  O118  1  0.78583352  0.71985783  0.65424761  1  0  -0.721285  0  2.044602  0  0  -0.668692  0  2.310985  0  0  -0.69472  0  2.29955  0  0  -0.399348  -0.649882  0  2.318253  0
O  O119  1  0.28583286  0.28013522  0.84575113  1  0  -0.721245  0  2.044691  0  0  -0.668641  0  2.311023  0  0  -0.694679  0  2.299584  0  0  -0.399315  -0.649815  0  2.318301  0
O  O120  1  0.00194530  0.39059695  0.77914713  1  0  -0.682037  0  2.007811  0  0  -0.633447  0  2.255027  0  0  -0.657312  0  2.242468  0  0  -0.361117  -0.616385  0  2.263204  0
O  O121  1  0.50194534  0.60940368  0.72085687  1  0  -0.681975  0  2.007899  0  0  -0.633429  0  2.255238  0  0  -0.657291  0  2.242687  0  0  -0.361086  -0.616374  0  2.263412  0
O  O122  1  0.99804936  0.60940803  0.22085347  1  0  -0.681985  0  2.007703  0  0  -0.633426  0  2.255005  0  0  -0.657277  0  2.242447  0  0  -0.361065  -0.616358  0  2.263182  0
O  O123  1  0.49806128  0.39059962  0.27914637  1  0  -0.682153  0  2.007837  0  0  -0.633547  0  2.255213  0  0  -0.657412  0  2.242658  0  0  -0.361192  -0.616498  0  2.263384  0
O  O124  1  0.80432055  0.51731874  0.78802314  1  0  -0.719357  0  2.064846  0  0  -0.665011  0  2.332702  0  0  -0.691805  0  2.321024  0  0  -0.408992  -0.645564  0  2.34  0
O  O125  1  0.30432354  0.48267850  0.71197496  1  0  -0.719458  0  2.064629  0  0  -0.665071  0  2.332476  0  0  -0.691879  0  2.320799  0  0  -0.409097  -0.645609  0  2.339786  0
O  O126  1  0.19566814  0.48267955  0.21197469  1  0  -0.719401  0  2.064783  0  0  -0.664955  0  2.332503  0  0  -0.691754  0  2.320828  0  0  -0.409031  -0.645508  0  2.33981  0
O  O127  1  0.69568189  0.51732315  0.28802278  1  0  -0.7195  0  2.064583  0  0  -0.665077  0  2.332505  0  0  -0.691863  0  2.320829  0  0  -0.409002  -0.645619  0  2.339813  0
