# generated using pymatgen
data_Zn8H46C78Cl2O31
_symmetry_space_group_name_H-M   'P 1'
_cell_length_a   18.48180728
_cell_length_b   18.35388919
_cell_length_c   18.43633835
_cell_angle_alpha   60.37746459
_cell_angle_beta   60.61379317
_cell_angle_gamma   60.42814393
_symmetry_Int_Tables_number   1
_chemical_formula_structural   Zn8H46C78Cl2O31
_chemical_formula_sum   'Zn8 H46 C78 Cl2 O31'
_cell_volume   4469.38882159
_cell_formula_units_Z   1
loop_
 _symmetry_equiv_pos_site_id
 _symmetry_equiv_pos_as_xyz
  1  'x, y, z'
loop_
 _atom_site_type_symbol
 _atom_site_label
 _atom_site_symmetry_multiplicity
 _atom_site_fract_x
 _atom_site_fract_y
 _atom_site_fract_z
 _atom_site_occupancy
 _atom_site_pbe_bader_charge
 _atom_site_pbe_bader_spin_density
 _atom_site_pbe_cm5_charge
 _atom_site_pbe_ddec_charge
 _atom_site_pbe_ddec_spin_density
 _atom_site_pbe_ddec_sum_bond_order
 _atom_site_pbe_magmom
Zn  Zn0  1  0.95907792  0.45794208  0.12646443  1  1.309693  0  0.673496  0.964809  0  2.389031  0
Zn  Zn1  1  0.13393240  0.45783325  0.95527990  1  1.306486  0  0.674864  0.969374  0  2.354199  0
Zn  Zn2  1  0.95835174  0.63129477  0.95519872  1  1.306869  0  0.672783  0.965785  0  2.384332  0
Zn  Zn3  1  0.96223197  0.45580657  0.95360904  1  1.320265  0  0.664703  0.954873  0  2.397279  0
Zn  Zn4  1  0.53338463  0.04557582  0.37303881  1  1.313692  0  0.674624  0.967333  0  2.391541  0
Zn  Zn5  1  0.53640503  0.87320899  0.54190816  1  1.302332  0  0.669927  0.96065  0  2.393885  0
Zn  Zn6  1  0.36099341  0.04805351  0.54341937  1  1.327459  0  0.679143  0.977686  0  2.335333  0
Zn  Zn7  1  0.53611094  0.04470650  0.54677717  1  1.309047  0  0.67176  0.961992  0  2.371258  0
H  H8  1  0.71093927  0.19751254  0.40257670  1  0.077221  0  0.109841  0.125227  0  0.999385  0
H  H9  1  0.10793136  0.30859365  0.62183319  1  0.065982  0  0.099788  0.113284  0  1.006186  0
H  H10  1  0.03531895  0.09194610  0.67749853  1  0.059407  0  0.103266  0.118194  0  1.005466  0
H  H11  1  0.12098592  0.99327209  0.78289272  1  0.034923  0  0.096053  0.088372  0  1.011187  0
H  H12  1  0.20066799  0.05218387  0.80623257  1  0.080796  0  0.096194  0.10093  0  1.003983  0
H  H13  1  0.85282205  0.93440284  0.68425347  1  0.025079  0  0.099287  0.09286  0  1.001537  0
H  H14  1  0.96138395  0.79371945  0.65442748  1  0.056766  0  0.098971  0.092991  0  0.998629  0
H  H15  1  0.10285001  0.72542467  0.68321707  1  0.041671  0  0.099857  0.099019  0  0.995724  0
H  H16  1  0.02725285  0.93636534  0.77419863  1  0.061241  0  0.100415  0.099211  0  1.015745  0
H  H17  1  0.88595750  0.00538019  0.74464999  1  0.067014  0  0.102868  0.098825  0  0.990909  0
H  H18  1  0.80578012  0.29014100  0.30831134  1  0.109571  0  0.109799  0.106354  0  0.976364  0
H  H19  1  0.70084794  0.73125157  0.71424276  1  0.088972  0  0.10926  0.125429  0  1.001142  0
H  H20  1  0.19071512  0.90929114  0.65928563  1  0.096998  0  0.110918  0.120293  0  0.998902  0
H  H21  1  0.30465962  0.59556441  0.83720273  1  0.102941  0  0.108281  0.118985  0  1.000533  0
H  H22  1  0.47603656  0.58640555  0.69255130  1  0.062298  0  0.103266  0.115922  0  1.010029  0
H  H23  1  0.65418042  0.57292723  0.78877140  1  0.062937  0  0.107447  0.118526  0  0.988063  0
H  H24  1  0.53794997  0.69564401  0.84796978  1  0.059569  0  0.106675  0.102122  0  0.983493  0
H  H25  1  0.39069011  0.76260680  0.83050712  1  0.07966  0  0.103949  0.105974  0  0.992248  0
H  H26  1  0.85802824  0.53858366  0.42033469  1  0.050903  0  0.098996  0.094363  0  0.994034  0
H  H27  1  0.98160578  0.59345195  0.30069831  1  0.036818  0  0.094995  0.106565  0  1.018017  0
H  H28  1  0.78290496  0.30057808  0.14835399  1  0.121144  0  0.106954  0.136467  0  1.022427  0
H  H29  1  0.87314040  0.37914563  0.47204744  1  0.111413  0  0.106869  0.129186  0  0.985688  0
H  H30  1  0.77495310  0.81140568  0.81602875  1  0.09675  0  0.112096  0.110178  0  0.98908  0
H  H31  1  0.19226390  0.24393095  0.40322862  1  0.105095  0  0.10922  0.122169  0  0.996774  0
H  H32  1  0.30208629  0.25550684  0.09430883  1  0.125392  0  0.10767  0.116088  0  1.012544  0
H  H33  1  0.46681020  0.22744929  0.06714640  1  0.092511  0  0.105039  0.109151  0  0.994978  0
H  H34  1  0.60415091  0.12125133  0.00100465  1  0.05988  0  0.103178  0.100004  0  0.988953  0
H  H35  1  0.63166013  0.95827939  0.07537598  1  0.033121  0  0.098418  0.092658  0  1.004529  0
H  H36  1  0.52091500  0.90257066  0.21624923  1  0.055392  0  0.099356  0.094598  0  0.995673  0
H  H37  1  0.38305286  0.00890321  0.28146863  1  0.045247  0  0.099992  0.098714  0  0.996189  0
H  H38  1  0.72301848  0.91068106  0.18638867  1  0.080869  0  0.112332  0.109339  0  0.982301  0
H  H39  1  0.69023967  0.74137449  0.33970176  1  0.087098  0  0.112097  0.130886  0  0.986694  0
H  H40  1  0.80224433  0.81638166  0.09115823  1  0.100122  0  0.112176  0.111633  0  0.980083  0
H  H41  1  0.80836913  0.65380815  0.77166400  1  0.076115  0  0.111301  0.128168  0  0.98627  0
H  H42  1  0.80917532  0.65694947  0.26331516  1  0.095082  0  0.109929  0.126343  0  1.001874  0
H  H43  1  0.69079102  0.90529985  0.71140463  1  0.092539  0  0.112722  0.111549  0  0.977077  0
H  H44  1  0.48280057  0.44061635  0.81874783  1  0.604227  0  0.313626  0.342586  0  0.938319  0
H  H45  1  0.64989180  0.20406067  0.22235041  1  0.636529  0  0.327145  0.362797  0  0.904178  0
H  H46  1  0.02041125  0.31646225  0.55906330  1  0.598972  0  0.329887  0.360506  0  0.886496  0
H  H47  1  0.12144130  0.55367367  0.20567109  1  0.594798  0  0.337875  0.365808  0  0.872323  0
H  H48  1  0.06775648  0.22599363  0.38062583  1  0.605394  0  0.323467  0.351727  0  0.906452  0
H  H49  1  0.41228601  0.47881005  0.72242459  1  0.028725  0  0.098107  0.10737  0  1.019593  0
H  H50  1  0.33401947  0.42928240  0.68747703  1  0.050738  0  0.103447  0.105285  0  0.98323  0
H  H51  1  0.44070740  0.23672913  0.94496395  1  0.122039  0  0.104043  0.130018  0  1.025575  0
H  H52  1  0.41195665  0.20870139  0.69335649  1  0.096831  0  0.108756  0.121974  0  0.993082  0
H  H53  1  0.08810338  0.28984245  0.80936850  1  0.102515  0  0.110557  0.123934  0  0.993713  0
C  C54  1  0.14062379  0.35710841  0.86516529  1  1.55696  0  0.228418  0.607237  0  4.15699  0
C  C55  1  0.81115590  0.69104184  0.80097776  1  0.061765  0  -0.084493  -0.2177  0  3.874682  0
C  C56  1  0.40167759  0.41486063  0.76350416  1  0.014695  0  -0.118796  -0.240886  0  4.039026  0
C  C57  1  0.87075517  0.64046128  0.13462894  1  1.549191  0  0.217374  0.635207  0  4.198545  0
C  C58  1  0.35763306  0.38674915  0.74396469  1  -0.009479  0  -0.089881  -0.086662  0  4.016679  0
C  C59  1  0.34082012  0.30619095  0.79594771  1  0.030144  0  -0.024885  -0.015965  0  4.015776  0
C  C60  1  0.37234065  0.25322653  0.86798961  1  0.086436  0  0.014874  0.135105  0  4.037679  0
C  C61  1  0.41702583  0.27932362  0.88869041  1  0.053884  0  -0.11318  -0.269747  0  3.945189  0
C  C62  1  0.43110571  0.36111419  0.83658674  1  0.390171  0  0.077325  0.33138  0  4.092851  0
C  C63  1  0.34051773  0.22688120  0.71947248  1  -0.073362  0  -0.07923  -0.138054  0  3.944398  0
C  C64  1  0.30051357  0.19710432  0.69632678  1  -0.006394  0  -0.010337  -0.068969  0  3.924734  0
C  C65  1  0.80453147  0.31152248  0.18618388  1  0.022654  0  -0.101565  -0.249934  0  3.87502  0
C  C66  1  0.20799485  0.21864319  0.72954445  1  -0.007471  0  0.009766  0.067861  0  3.940467  0
C  C67  1  0.15955109  0.27193556  0.78291761  1  -0.017794  0  -0.077679  -0.134813  0  3.93107  0
C  C68  1  0.19958428  0.30167140  0.80606206  1  0.011075  0  -0.009487  -0.067486  0  3.92473  0
C  C69  1  0.14227834  0.37047917  0.13343644  1  1.595686  0  0.231083  0.616339  0  4.156561  0
C  C70  1  0.29220526  0.27833218  0.77462662  1  0.032865  0  0.002206  0.070497  0  3.981667  0
C  C71  1  0.11025167  0.23947233  0.65787277  1  0.002063  0  -0.116108  -0.289797  0  3.976743  0
C  C72  1  0.06585808  0.20586112  0.64459547  1  0.418342  0  0.0761  0.325114  0  4.104232  0
C  C73  1  0.06976668  0.11689737  0.68942425  1  -0.020829  0  -0.111756  -0.217201  0  3.980469  0
C  C74  1  0.11773603  0.06259120  0.74772308  1  0.027344  0  -0.096112  -0.052477  0  4.080215  0
C  C75  1  0.16276234  0.09527272  0.76095690  1  -0.007682  0  -0.112396  -0.177069  0  4.01532  0
C  C76  1  0.73127384  0.83988039  0.21778486  1  0.041707  0  -0.064053  -0.013781  0  3.971586  0
C  C77  1  0.16007740  0.18385269  0.71503929  1  -0.063134  0  -0.008163  0.109584  0  4.029899  0
C  C78  1  0.97569798  0.82510705  0.68074457  1  -0.093393  0  -0.093989  -0.07566  0  4.038464  0
C  C79  1  0.05498453  0.78655270  0.69725484  1  -0.02176  0  -0.092557  -0.129074  0  3.978592  0
C  C80  1  0.07465371  0.82622805  0.73079985  1  0.013777  0  -0.008576  0.074446  0  4.006272  0
C  C81  1  0.86613529  0.63789265  0.85880705  1  1.520792  0  0.217088  0.633922  0  4.200158  0
C  C82  1  0.01307500  0.90551017  0.74722754  1  0.009843  0  -0.090722  -0.132182  0  3.974428  0
C  C83  1  0.93341592  0.94391446  0.73119147  1  -0.116577  0  -0.093106  -0.081639  0  4.040803  0
C  C84  1  0.91467123  0.90392703  0.69766907  1  0.021746  0  -0.095383  -0.092816  0  4.035938  0
C  C85  1  0.21451840  0.84048324  0.69985886  1  -0.099909  0  -0.076931  -0.137891  0  3.936907  0
C  C86  1  0.29994604  0.80680356  0.70244565  1  -0.040681  0  -0.009713  -0.064605  0  3.936447  0
C  C87  1  0.68759943  0.81048877  0.30487259  1  -0.080528  0  -0.088593  -0.230485  0  3.884706  0
C  C88  1  0.33445590  0.71720793  0.75196657  1  0.079705  0  0.002459  0.053016  0  3.961726  0
C  C89  1  0.28088617  0.66445597  0.79671845  1  -0.046921  0  -0.080766  -0.141559  0  3.945141  0
C  C90  1  0.19530008  0.69824762  0.79421046  1  -0.075083  0  -0.008501  -0.062941  0  3.924905  0
C  C91  1  0.16103111  0.78759157  0.74392352  1  0.081118  0  0.006939  0.062274  0  3.956467  0
C  C92  1  0.48812521  0.60895916  0.72903306  1  0.018307  0  -0.100671  -0.221156  0  3.964447  0
C  C93  1  0.14028504  0.63866743  0.85279441  1  1.57486  0  0.226961  0.60422  0  4.175022  0
C  C94  1  0.57068309  0.57238533  0.73878705  1  0.001103  0  0.011508  0.161773  0  4.066219  0
C  C95  1  0.58945794  0.60276416  0.78156179  1  0.003283  0  -0.09734  -0.158968  0  3.991098  0
C  C96  1  0.52397032  0.67137431  0.81442546  1  -0.00614  0  -0.084664  -0.04763  0  4.023066  0
C  C97  1  0.44138807  0.70901794  0.80462630  1  -0.033457  0  -0.092032  -0.141504  0  3.971565  0
C  C98  1  0.78606596  0.78404163  0.16270362  1  0.008983  0  -0.068861  -0.029278  0  3.977581  0
C  C99  1  0.42276349  0.67832691  0.76157455  1  -0.016891  0  -0.001352  0.105674  0  4.002454  0
C  C100  1  0.98847728  0.52349360  0.32469785  1  -0.023891  0  -0.13861  -0.287456  0  4.09898  0
C  C101  1  0.06681141  0.46382935  0.28820152  1  0.418359  0  0.073416  0.290435  0  4.092739  0
C  C102  1  0.07771297  0.37333620  0.31807707  1  0.086316  0  -0.041973  -0.188732  0  3.996714  0
C  C103  1  0.00599631  0.34475166  0.38399051  1  0.451085  0  0.083329  0.295828  0  4.082791  0
C  C104  1  0.92715454  0.40374423  0.42133389  1  -0.05221  0  -0.121968  -0.241922  0  4.017419  0
C  C105  1  0.86315619  0.36490561  0.13405403  1  1.451173  0  0.21315  0.637298  0  4.197019  0
C  C106  1  0.91935668  0.49252708  0.39143577  1  -0.003736  0  -0.09957  -0.043419  0  4.114253  0
C  C107  1  0.21511447  0.24613263  0.33545799  1  -0.026795  0  -0.080147  -0.151329  0  3.942225  0
C  C108  1  0.29828861  0.18743769  0.30392545  1  -0.081079  0  -0.011206  -0.068768  0  3.931803  0
C  C109  1  0.81923700  0.69456404  0.19329339  1  -0.066892  0  -0.085782  -0.219817  0  3.879143  0
C  C110  1  0.33147344  0.18939366  0.21592135  1  0.102386  0  0.008565  0.066028  0  3.949509  0
C  C111  1  0.27916417  0.25291388  0.16219484  1  -0.064838  0  -0.074566  -0.133483  0  3.921523  0
C  C112  1  0.19633598  0.31126065  0.19371592  1  -0.033809  0  -0.003946  -0.048852  0  3.911413  0
C  C113  1  0.16277655  0.30934907  0.28174865  1  -0.023016  0  -0.000762  0.079657  0  3.980586  0
C  C114  1  0.47832347  0.15619894  0.09956175  1  0.012269  0  -0.089844  -0.133838  0  3.972273  0
C  C115  1  0.55589061  0.09636190  0.06270569  1  -0.115068  0  -0.093385  -0.082946  0  4.039262  0
C  C116  1  0.57150147  0.00505678  0.10453111  1  0.018226  0  -0.096441  -0.094855  0  4.042137  0
C  C117  1  0.72297570  0.22406197  0.33171067  1  0.024626  0  -0.102164  -0.198781  0  4.005009  0
C  C118  1  0.50927430  0.97383269  0.18352165  1  -0.045693  0  -0.095499  -0.080697  0  4.042473  0
C  C119  1  0.43198034  0.03355609  0.22040761  1  -0.073065  0  -0.093069  -0.128549  0  3.980386  0
C  C120  1  0.71221680  0.83320495  0.72948664  1  -0.04766  0  -0.065132  -0.017522  0  3.970241  0
C  C121  1  0.41554718  0.12555802  0.17901465  1  -0.027285  0  -0.007793  0.07548  0  3.999469  0
C  C122  1  0.63159719  0.86132108  0.63863073  1  1.473865  0  0.217653  0.636382  0  4.194519  0
C  C123  1  0.35301119  0.13095001  0.36361312  1  1.590524  0  0.228051  0.608608  0  4.168889  0
C  C124  1  0.63262625  0.86816943  0.35979679  1  1.5274  0  0.217132  0.638213  0  4.193849  0
C  C125  1  0.35891096  0.14408351  0.63505706  1  1.559718  0  0.229053  0.610382  0  4.154132  0
C  C126  1  0.35519271  0.86606062  0.64430157  1  1.598227  0  0.228305  0.605709  0  4.172826  0
C  C127  1  0.62444451  0.14540637  0.36800467  1  1.568384  0  0.219838  0.537738  0  4.221463  0
C  C128  1  0.68091302  0.20264429  0.30531601  1  0.447178  0  0.078172  0.157232  0  4.044141  0
C  C129  1  0.77966931  0.27698699  0.27572650  1  -0.003796  0  -0.07128  0.013426  0  4.000068  0
C  C130  1  0.68500680  0.80203274  0.69782448  1  -0.01866  0  -0.089272  -0.230428  0  3.886639  0
C  C131  1  0.76709614  0.77883988  0.78550843  1  -0.068809  0  -0.06773  -0.026686  0  3.980676  0
Cl  Cl132  1  0.35333211  0.15285469  0.93604284  1  -0.232987  0  -0.031295  -0.104263  0  1.435162  0
Cl  Cl133  1  0.65141527  0.48780282  0.69629542  1  -0.21823  0  -0.028991  -0.110928  0  1.392307  0
O  O134  1  0.00465060  0.50139762  0.99664646  1  -1.212121  0  -0.573265  -1.03182  0  2.53977  0
O  O135  1  0.32352688  0.13681785  0.59560213  1  -1.169696  0  -0.308392  -0.545077  0  2.386941  0
O  O136  1  0.43718515  0.82805971  0.61185626  1  -1.182434  0  -0.307101  -0.536374  0  2.381083  0
O  O137  1  0.05852097  0.38726082  0.87605141  1  -1.165851  0  -0.313173  -0.53873  0  2.333187  0
O  O138  1  0.61171767  0.11663048  0.45017568  1  -1.171328  0  -0.305366  -0.515815  0  2.340836  0
O  O139  1  0.31522805  0.94932355  0.62992234  1  -1.166431  0  -0.308421  -0.542081  0  2.349258  0
O  O140  1  0.59342551  0.13086152  0.32928098  1  -1.172081  0  -0.314893  -0.54966  0  2.364062  0
O  O141  1  0.62002708  0.95169232  0.32219538  1  -1.172459  0  -0.319102  -0.555925  0  2.32408  0
O  O142  1  0.44094256  0.11115145  0.62583013  1  -1.164815  0  -0.315186  -0.543062  0  2.331836  0
O  O143  1  0.61162857  0.82215988  0.61306982  1  -1.154901  0  -0.317963  -0.549029  0  2.315609  0
O  O144  1  0.31272835  0.10480302  0.44652858  1  -1.17312  0  -0.313675  -0.544183  0  2.317217  0
O  O145  1  0.05994861  0.38418069  0.16979461  1  -1.17447  0  -0.30576  -0.539399  0  2.377834  0
O  O146  1  0.89149487  0.55649355  0.17382312  1  -1.168874  0  -0.312772  -0.540395  0  2.317614  0
O  O147  1  0.18340731  0.39907204  0.05114622  1  -1.170127  0  -0.312066  -0.538624  0  2.31274  0
O  O148  1  0.88130969  0.67882568  0.88659186  1  -1.170359  0  -0.315776  -0.5513  0  2.332466  0
O  O149  1  0.18079013  0.55554646  0.86618356  1  -1.165405  0  -0.312771  -0.544052  0  2.33287  0
O  O150  1  0.88654448  0.38690724  0.04992764  1  -1.162971  0  -0.327061  -0.558414  0  2.306284  0
O  O151  1  0.05847953  0.67590626  0.88663788  1  -1.178864  0  -0.307614  -0.540048  0  2.373504  0
O  O152  1  0.88621424  0.38577737  0.17457449  1  -1.166615  0  -0.32344  -0.557997  0  2.327491  0
O  O153  1  0.47397298  0.38413956  0.86103335  1  -1.132745  0  -0.364494  -0.454857  0  2.251589  0
O  O154  1  0.68690151  0.23019082  0.22020464  1  -1.130273  0  -0.330614  -0.391879  0  2.308852  0
O  O155  1  0.01764954  0.25641640  0.58810342  1  -1.142433  0  -0.357575  -0.460292  0  2.281489  0
O  O156  1  0.89389760  0.55408207  0.87557725  1  -1.155498  0  -0.318746  -0.545112  0  2.297959  0
O  O157  1  0.13712184  0.48998744  0.22149334  1  -1.120096  0  -0.35777  -0.4519  0  2.256681  0
O  O158  1  0.00983401  0.25910472  0.41253801  1  -1.127575  0  -0.354811  -0.434589  0  2.258142  0
O  O159  1  0.17617078  0.36983141  0.90019228  1  -1.175018  0  -0.305055  -0.539461  0  2.399766  0
O  O160  1  0.88935760  0.68109973  0.05139265  1  -1.17565  0  -0.320008  -0.553138  0  2.322134  0
O  O161  1  0.49112727  0.00360293  0.50205549  1  -1.214411  0  -0.573116  -1.033387  0  2.532902  0
O  O162  1  0.61011639  0.94506300  0.61764057  1  -1.145039  0  -0.319493  -0.552527  0  2.326713  0
O  O163  1  0.43562915  0.11639268  0.32649073  1  -1.178377  0  -0.308665  -0.541983  0  2.387354  0
O  O164  1  0.60148716  0.82822609  0.44233369  1  -1.168344  0  -0.319998  -0.548834  0  2.298024  0
