# generated using pymatgen
data_SnPH17(C5O)2
_symmetry_space_group_name_H-M   'P 1'
_cell_length_a   10.15936493
_cell_length_b   10.39582886
_cell_length_c   12.44660000
_cell_angle_alpha   104.02653562
_cell_angle_beta   90.00000000
_cell_angle_gamma   90.00000000
_symmetry_Int_Tables_number   1
_chemical_formula_structural   SnPH17(C5O)2
_chemical_formula_sum   'Sn4 P4 H68 C40 O8'
_cell_volume   1275.35278469
_cell_formula_units_Z   4
loop_
 _symmetry_equiv_pos_site_id
 _symmetry_equiv_pos_as_xyz
  1  'x, y, z'
loop_
 _atom_site_type_symbol
 _atom_site_label
 _atom_site_symmetry_multiplicity
 _atom_site_fract_x
 _atom_site_fract_y
 _atom_site_fract_z
 _atom_site_occupancy
 _atom_site_pbe_bader_charge
 _atom_site_pbe_bader_spin_density
 _atom_site_pbe_cm5_charge
 _atom_site_pbe_ddec_charge
 _atom_site_pbe_ddec_spin_density
 _atom_site_pbe_ddec_sum_bond_order
 _atom_site_pbe_magmom
Sn  Sn0  1  0.36913823  0.20078005  0.78005523  1  1.737961  0  0.535603  1.289243  0  3.401936  0
Sn  Sn1  1  0.86914291  0.29921388  0.71994876  1  1.73794  0  0.535584  1.28916  0  3.402067  0
Sn  Sn2  1  0.63086128  0.79921772  0.21994191  1  1.737939  0  0.535605  1.289273  0  3.402042  0
Sn  Sn3  1  0.13086153  0.70078588  0.28005681  1  1.73795  0  0.535598  1.289292  0  3.402051  0
P  P4  1  0.65746334  0.14649813  0.90034178  1  3.112633  0  0.310724  1.132534  0  5.16567  0
P  P5  1  0.15746555  0.35349976  0.59965418  1  3.112629  0  0.3107  1.132595  0  5.165605  0
P  P6  1  0.34253421  0.85351253  0.09966439  1  3.11301  0  0.310728  1.132508  0  5.165407  0
P  P7  1  0.84253396  0.64649206  0.40034256  1  3.112785  0  0.3107  1.132431  0  5.16566  0
H  H8  1  0.56146620  0.87832746  0.87866066  1  0.098761  0  0.103096  0.101298  0  1.030542  0
H  H9  1  0.06146939  0.62167217  0.62134047  1  0.098911  0  0.10308  0.101236  0  1.030611  0
H  H10  1  0.43853332  0.12167824  0.12134772  1  0.098799  0  0.103084  0.101252  0  1.0305  0
H  H11  1  0.93852914  0.37831866  0.37865687  1  0.098926  0  0.103038  0.101196  0  1.030618  0
H  H12  1  0.67487486  0.66047302  0.85312220  1  0.049896  0  0.101335  0.096913  0  1.013785  0
H  H13  1  0.17487707  0.83952563  0.64688194  1  0.0499  0  0.101295  0.09683  0  1.013835  0
H  H14  1  0.32512367  0.33952476  0.14687815  1  0.049887  0  0.101299  0.09691  0  1.013818  0
H  H15  1  0.82512146  0.16046818  0.35311761  1  0.049858  0  0.101305  0.09691  0  1.01381  0
H  H16  1  0.91978092  0.64878339  0.84138938  1  0.079837  0  0.103365  0.099455  0  1.012023  0
H  H17  1  0.41978116  0.85121625  0.65861416  1  0.079829  0  0.10336  0.099445  0  1.01205  0
H  H18  1  0.08022352  0.35122331  0.15860394  1  0.080813  0  0.103396  0.099442  0  1.012138  0
H  H19  1  0.58021639  0.14878153  0.34138539  1  0.079889  0  0.103369  0.099487  0  1.012153  0
H  H20  1  0.04995096  0.85564026  0.85541867  1  0.024668  0  0.097633  0.092887  0  1.036183  0
H  H21  1  0.54995268  0.64436135  0.64458045  1  0.024674  0  0.097645  0.092912  0  1.036146  0
H  H22  1  0.95004364  0.14437437  0.14458269  1  0.024607  0  0.097615  0.092855  0  1.036146  0
H  H23  1  0.45004683  0.35563840  0.35542351  1  0.024637  0  0.097649  0.092857  0  1.036153  0
H  H24  1  0.93710680  0.07105689  0.88080990  1  0.06488  0  0.101287  0.08968  0  1.038851  0
H  H25  1  0.43710902  0.42894497  0.61917883  1  0.064827  0  0.101272  0.08964  0  1.038893  0
H  H26  1  0.06289173  0.92896270  0.11919487  1  0.06512  0  0.101287  0.089567  0  1.03897  0
H  H27  1  0.56289050  0.57105280  0.38082474  1  0.064867  0  0.1013  0.089644  0  1.038875  0
H  H28  1  0.79307713  0.25221839  0.05605322  1  0.041157  0  0.101616  0.173564  0  1.003642  0
H  H29  1  0.29307639  0.24777752  0.44393831  1  0.041141  0  0.101642  0.173627  0  1.003552  0
H  H30  1  0.20692041  0.74779029  0.94395657  1  0.041157  0  0.101607  0.173542  0  1.003691  0
H  H31  1  0.70692312  0.75222918  0.55604938  1  0.041252  0  0.101616  0.173518  0  1.003692  0
H  H32  1  0.65231932  0.17449871  0.09941234  1  0.048292  0  0.099987  0.170932  0  1.0285  0
H  H33  1  0.15231661  0.32550414  0.40058864  1  0.048271  0  0.100004  0.170977  0  1.028511  0
H  H34  1  0.34768020  0.82550501  0.90058921  1  0.048297  0  0.099961  0.170889  0  1.028488  0
H  H35  1  0.84768291  0.67450850  0.59941714  1  0.048273  0  0.099979  0.170881  0  1.028554  0
H  H36  1  0.63502887  0.32802153  0.05991351  1  0.086125  0  0.10444  0.182959  0  1.008058  0
H  H37  1  0.13502320  0.17197439  0.44008205  1  0.086072  0  0.104414  0.182939  0  1.008028  0
H  H38  1  0.36496573  0.67198220  0.94009207  1  0.086144  0  0.104462  0.182972  0  1.007891  0
H  H39  1  0.86497336  0.82802537  0.55990986  1  0.086109  0  0.104425  0.18292  0  1.008026  0
H  H40  1  0.13819269  0.06903227  0.76844818  1  0.035979  0  0.081585  0.158779  0  1.07526  0
H  H41  1  0.63819245  0.43095967  0.73155541  1  0.035768  0  0.081576  0.158765  0  1.075323  0
H  H42  1  0.86180977  0.93095658  0.23153992  1  0.035525  0  0.081609  0.158829  0  1.075188  0
H  H43  1  0.36181002  0.56904107  0.26845599  1  0.035513  0  0.081583  0.158792  0  1.075192  0
H  H44  1  0.18541120  0.12695890  0.91104494  1  0.032962  0  0.081625  0.164946  0  1.067739  0
H  H45  1  0.68540505  0.37303404  0.58895724  1  0.032815  0  0.081575  0.164863  0  1.067799  0
H  H46  1  0.81459029  0.87302896  0.08894697  1  0.03279  0  0.081589  0.164877  0  1.067943  0
H  H47  1  0.31459151  0.62696869  0.41105215  1  0.032789  0  0.081591  0.164874  0  1.067909  0
H  H48  1  0.26169943  0.98286488  0.82738061  1  0.046681  0  0.080453  0.158344  0  1.079162  0
H  H49  1  0.76169328  0.51713376  0.67261791  1  0.046821  0  0.08046  0.158341  0  1.079093  0
H  H50  1  0.73830698  0.01712595  0.17260789  1  0.04703  0  0.080486  0.158381  0  1.079069  0
H  H51  1  0.23830328  0.48287194  0.32739048  1  0.046883  0  0.080474  0.158356  0  1.079068  0
H  H52  1  0.47792161  0.44657658  0.85266793  1  0.030005  0  0.080948  0.159571  0  1.072821  0
H  H53  1  0.97792530  0.05342329  0.64732762  1  0.029945  0  0.080926  0.159536  0  1.072851  0
H  H54  1  0.52206905  0.55342119  0.14732519  1  0.029838  0  0.080891  0.159506  0  1.072858  0
H  H55  1  0.02207225  0.94657646  0.35267634  1  0.029884  0  0.080919  0.159541  0  1.072846  0
H  H56  1  0.41011816  0.39284890  0.96687382  1  0.033611  0  0.083769  0.167222  0  1.054736  0
H  H57  1  0.91011594  0.10715098  0.53312495  1  0.033592  0  0.083765  0.167212  0  1.054741  0
H  H58  1  0.58987447  0.60714986  0.03312352  1  0.033611  0  0.08374  0.167228  0  1.05477  0
H  H59  1  0.08988160  0.89284581  0.46687681  1  0.033517  0  0.083781  0.167281  0  1.054684  0
H  H60  1  0.30382313  0.45494077  0.87563523  1  0.042101  0  0.08438  0.168836  0  1.055785  0
H  H61  1  0.80382879  0.04505911  0.62436434  1  0.041859  0  0.084398  0.168827  0  1.055827  0
H  H62  1  0.69616556  0.54505304  0.12435548  1  0.041773  0  0.08444  0.168824  0  1.055817  0
H  H63  1  0.19616876  0.95494164  0.37564063  1  0.041701  0  0.084394  0.168803  0  1.055831  0
H  H64  1  0.50284935  0.20693124  0.59149119  1  0.022806  0  0.081678  0.162604  0  1.065361  0
H  H65  1  0.00284959  0.29306467  0.90850838  1  0.022786  0  0.081698  0.162591  0  1.065391  0
H  H66  1  0.49715411  0.79306753  0.40850936  1  0.023194  0  0.081685  0.162627  0  1.065402  0
H  H67  1  0.99715780  0.70692120  0.09148956  1  0.023101  0  0.081661  0.162576  0  1.065233  0
H  H68  1  0.41559783  0.05431464  0.57178457  1  0.053995  0  0.083732  0.170156  0  1.046219  0
H  H69  1  0.91560152  0.44567929  0.92821379  1  0.054076  0  0.083709  0.170147  0  1.046208  0
H  H70  1  0.58440661  0.94568115  0.42821297  1  0.054154  0  0.083716  0.170138  0  1.046182  0
H  H71  1  0.08441177  0.55430956  0.07179118  1  0.054062  0  0.083717  0.170136  0  1.046176  0
H  H72  1  0.56809850  0.07776132  0.64748858  1  0.042186  0  0.084561  0.16766  0  1.060383  0
H  H73  1  0.06809973  0.42223162  0.85251040  1  0.042261  0  0.08454  0.167649  0  1.060381  0
H  H74  1  0.43190889  0.92223546  0.35250836  1  0.042293  0  0.084559  0.167638  0  1.06044  0
H  H75  1  0.93191357  0.57775525  0.14749096  1  0.042256  0  0.084547  0.167679  0  1.060394  0
C  C76  1  0.74107683  0.98830715  0.88021051  1  -0.576258  0  -0.027329  -0.182951  0  3.978795  0
C  C77  1  0.24108397  0.51168852  0.61978420  1  -0.576359  0  -0.027392  -0.183168  0  3.979084  0
C  C78  1  0.25891973  0.01170450  0.11979587  1  -0.576477  0  -0.027343  -0.183064  0  3.978964  0
C  C79  1  0.75891752  0.48830132  0.38021134  1  -0.57636  0  -0.027368  -0.183102  0  3.978937  0
C  C80  1  0.66826520  0.87195617  0.87266276  1  -0.054186  0  -0.076746  -0.055572  0  3.965062  0
C  C81  1  0.16827036  0.62803553  0.62733355  1  -0.054247  0  -0.076767  -0.055566  0  3.965195  0
C  C82  1  0.33173137  0.12805449  0.12733297  1  -0.054116  0  -0.076653  -0.055224  0  3.964941  0
C  C83  1  0.83173014  0.37195233  0.37266962  1  -0.054007  0  -0.07662  -0.055255  0  3.96492  0
C  C84  1  0.73243948  0.75034634  0.85896551  1  0.027956  0  -0.089765  -0.087604  0  4.001911  0
C  C85  1  0.23243677  0.74965230  0.64103542  1  0.028057  0  -0.08969  -0.087405  0  4.0018  0
C  C86  1  0.26755609  0.24965837  0.14103785  1  0.02764  0  -0.089824  -0.087847  0  4.002253  0
C  C87  1  0.76755585  0.25034051  0.35896072  1  0.027916  0  -0.089823  -0.087787  0  4.002132  0
C  C88  1  0.86970594  0.74392944  0.85264665  1  -0.14575  0  -0.087089  -0.082157  0  4.006675  0
C  C89  1  0.36970520  0.75607218  0.64735327  1  -0.145751  0  -0.087147  -0.08223  0  4.006771  0
C  C90  1  0.13028964  0.25607726  0.14735069  1  -0.146388  0  -0.08707  -0.082097  0  4.006915  0
C  C91  1  0.63029137  0.24392460  0.35264929  1  -0.145907  0  -0.087091  -0.082189  0  4.007041  0
C  C92  1  0.94289851  0.85978269  0.86063435  1  -0.010384  0  -0.093409  -0.094085  0  4.011147  0
C  C93  1  0.44290072  0.64022091  0.63935071  1  -0.010511  0  -0.093422  -0.09418  0  4.011254  0
C  C94  1  0.05709904  0.14022599  0.13936179  1  -0.010513  0  -0.093373  -0.094011  0  4.011085  0
C  C95  1  0.55709781  0.35977984  0.36065426  1  -0.010511  0  -0.093456  -0.094117  0  4.011091  0
C  C96  1  0.87889352  0.98141136  0.87459331  1  -0.048177  0  -0.080153  -0.066896  0  3.988476  0
C  C97  1  0.37890065  0.51859125  0.62539476  1  -0.048133  0  -0.080004  -0.066614  0  3.988403  0
C  C98  1  0.12110895  0.01860128  0.12540523  1  -0.048186  0  -0.080153  -0.066776  0  3.988647  0
C  C99  1  0.62110280  0.48140653  0.37460157  1  -0.048058  0  -0.080052  -0.066676  0  3.988344  0
C  C100  1  0.68738450  0.23288142  0.04266223  1  -0.608759  0  -0.248688  -0.655995  0  3.846322  0
C  C101  1  0.18738278  0.26711350  0.45733152  1  -0.608671  0  -0.248707  -0.656079  0  3.846241  0
C  C102  1  0.31261304  0.76712527  0.95734315  1  -0.608859  0  -0.248695  -0.655967  0  3.84616  0
C  C103  1  0.81261674  0.73288527  0.54266260  1  -0.608747  0  -0.248672  -0.655806  0  3.846278  0
C  C104  1  0.21989367  0.07980081  0.82730385  1  -0.446011  0  -0.338688  -0.743644  0  3.731494  0
C  C105  1  0.71989146  0.42019312  0.67269613  1  -0.445695  0  -0.338654  -0.743552  0  3.731438  0
C  C106  1  0.78010880  0.92018804  0.17268666  1  -0.445724  0  -0.338709  -0.743675  0  3.731665  0
C  C107  1  0.28010904  0.57981159  0.32731206  1  -0.44553  0  -0.338674  -0.743611  0  3.731568  0
C  C108  1  0.39340845  0.39835364  0.88115162  1  -0.435477  0  -0.336607  -0.755124  0  3.755842  0
C  C109  1  0.89341018  0.10164525  0.61884695  1  -0.435266  0  -0.336604  -0.755064  0  3.755955  0
C  C110  1  0.60658418  0.60164414  0.11884472  1  -0.435073  0  -0.336596  -0.755082  0  3.755948  0
C  C111  1  0.10658639  0.89835451  0.38115461  1  -0.434964  0  -0.336606  -0.75514  0  3.75595  0
C  C112  1  0.47742945  0.12549745  0.62955583  1  -0.445251  0  -0.335985  -0.754473  0  3.755425  0
C  C113  1  0.97743118  0.37449846  0.87044374  1  -0.445355  0  -0.335936  -0.754414  0  3.755515  0
C  C114  1  0.52257597  0.87449735  0.37044231  1  -0.445866  0  -0.33596  -0.75446  0  3.755542  0
C  C115  1  0.02258015  0.62549435  0.12955963  1  -0.445619  0  -0.335938  -0.754469  0  3.755399  0
O  O116  1  0.50987242  0.11730083  0.88462930  1  -1.461892  0  -0.341832  -0.703326  0  2.250148  0
O  O117  1  0.00987365  0.38269905  0.61537028  1  -1.461852  0  -0.341836  -0.703315  0  2.250008  0
O  O118  1  0.49012709  0.88270884  0.11537587  1  -1.461812  0  -0.341851  -0.703351  0  2.250121  0
O  O119  1  0.99012587  0.61729674  0.38462968  1  -1.461841  0  -0.341877  -0.703356  0  2.250081  0
O  O120  1  0.71551717  0.22746691  0.82511184  1  -1.480319  0  -0.345494  -0.725712  0  2.297243  0
O  O121  1  0.21552135  0.27253495  0.67488492  1  -1.480328  0  -0.345507  -0.725735  0  2.297184  0
O  O122  1  0.28448629  0.77254077  0.17489454  1  -1.480631  0  -0.345488  -0.725688  0  2.297096  0
O  O123  1  0.78448801  0.72745787  0.32510720  1  -1.480637  0  -0.345516  -0.725698  0  2.297209  0
