# generated using pymatgen
data_CuH12C11(NO)4
_symmetry_space_group_name_H-M   'P 1'
_cell_length_a   8.33406954
_cell_length_b   8.33411037
_cell_length_c   10.16325215
_cell_angle_alpha   69.58064168
_cell_angle_beta   69.58018896
_cell_angle_gamma   86.61741574
_symmetry_Int_Tables_number   1
_chemical_formula_structural   CuH12C11(NO)4
_chemical_formula_sum   'Cu2 H24 C22 N8 O8'
_cell_volume   618.39902423
_cell_formula_units_Z   2
loop_
 _symmetry_equiv_pos_site_id
 _symmetry_equiv_pos_as_xyz
  1  'x, y, z'
loop_
 _atom_site_type_symbol
 _atom_site_label
 _atom_site_symmetry_multiplicity
 _atom_site_fract_x
 _atom_site_fract_y
 _atom_site_fract_z
 _atom_site_occupancy
 _atom_site_hle17_ddec_charge
 _atom_site_hle17_ddec_spin_density
 _atom_site_hle17_ddec_sum_bond_order
 _atom_site_hle17_magmom
 _atom_site_hse06_10hf_ddec_charge
 _atom_site_hse06_10hf_ddec_spin_density
 _atom_site_hse06_10hf_ddec_sum_bond_order
 _atom_site_hse06_10hf_magmom
 _atom_site_hse06_ddec_charge
 _atom_site_hse06_ddec_spin_density
 _atom_site_hse06_ddec_sum_bond_order
 _atom_site_hse06_magmom
 _atom_site_pbe_cm5_charge
 _atom_site_pbe_ddec_charge
 _atom_site_pbe_ddec_spin_density
 _atom_site_pbe_ddec_sum_bond_order
 _atom_site_pbe_magmom
Cu  Cu0  1  0.49999923  0.99999908  0.50000025  1  0.827101  -0.71522  1.803351  -0.498  0.791942  -0.797742  2.194192  -0.608  0.884191  -0.870481  2.122187  -0.687  0.733671  0.733892  -0.747537  2.246115  -0.558
Cu  Cu1  1  0.00000094  0.50000153  0.99999995  1  0.826865  0.715201  1.803424  0.498  0.791725  0.797756  2.19426  0.608  0.884066  0.870492  2.122297  0.687  0.733544  0.733671  0.747532  2.246161  0.558
H  H2  1  0.31516830  0.12449587  0.25387056  1  0.123665  4.5e-05  0.963508  0.0  0.129667  -4e-06  1.029707  0.0  0.133879  3e-06  1.024251  0.0  0.137828  0.126478  -1.3e-05  1.033648  0.0
H  H3  1  0.87549884  0.68482511  0.24613085  1  0.123643  -4.1e-05  0.963359  0.0  0.129606  4e-06  1.02963  0.0  0.133819  -3e-06  1.024169  0.0  0.137835  0.126421  1.3e-05  1.033565  0.0
H  H4  1  0.68483074  0.87550276  0.74613290  1  0.123662  4.2e-05  0.963486  0.0  0.129649  -4e-06  1.029705  0.0  0.133859  3e-06  1.024253  0.0  0.137828  0.12646  -1.3e-05  1.033645  0.0
H  H5  1  0.12450422  0.31517611  0.75386777  1  0.123573  -4.2e-05  0.963394  0.0  0.129557  3e-06  1.029642  0.0  0.13377  -3e-06  1.024181  0.0  0.137809  0.126372  1.3e-05  1.033576  0.0
H  H6  1  0.21113746  0.68574294  0.64976945  1  0.128526  -0.000125  0.978897  0.0  0.133546  -0.000282  1.043467  -0.001  0.1374  -0.000254  1.040966  0.0  0.122339  0.130591  -0.000279  1.045438  -0.001
H  H7  1  0.31424735  0.78885382  0.85023816  1  0.128578  0.000127  0.978878  0.0  0.133534  0.000281  1.043496  0.001  0.137405  0.000254  1.040966  0.0  0.122361  0.13059  0.000278  1.045464  0.001
H  H8  1  0.78886022  0.31425439  0.35023083  1  0.128545  -0.000125  0.978869  0.0  0.133549  -0.000282  1.043457  -0.001  0.137412  -0.000254  1.040947  0.0  0.122333  0.130598  -0.000278  1.045428  -0.001
H  H9  1  0.68575579  0.21114868  0.14976006  1  0.128581  0.000126  0.978832  0.0  0.133497  0.000281  1.043493  0.001  0.137367  0.000254  1.040963  0.0  0.122371  0.130559  0.000278  1.045458  0.001
H  H10  1  0.96358801  0.68942135  0.51913534  1  0.123422  -0.000506  0.949742  -0.001  0.136584  -0.000437  1.004015  -0.001  0.139075  -0.000334  1.003025  0.0  0.127564  0.1347  -0.000518  1.004914  -0.001
H  H11  1  0.31056376  0.03638932  0.98086811  1  0.123427  0.000508  0.949873  0.001  0.136607  0.000437  1.004091  0.001  0.139097  0.000333  1.003099  0.0  0.127545  0.134724  0.000517  1.004998  0.001
H  H12  1  0.03641232  0.31057729  0.48086184  1  0.123427  -0.000511  0.949761  -0.001  0.136587  -0.000437  1.004034  -0.001  0.139078  -0.000334  1.003043  0.0  0.12757  0.134704  -0.000518  1.004935  -0.001
H  H13  1  0.68943793  0.96361060  0.01913225  1  0.123442  0.000507  0.949887  0.001  0.136627  0.000437  1.004102  0.001  0.139118  0.000333  1.003111  0.0  0.127554  0.134745  0.000517  1.005009  0.001
H  H14  1  0.88852786  0.94257210  0.31157095  1  0.102976  -7.7e-05  0.945298  0.0  0.107795  -2e-05  1.020662  0.0  0.109105  9e-06  1.019489  0.0  0.130816  0.10647  -6.1e-05  1.021867  0.0
H  H15  1  0.05742677  0.11146348  0.18842453  1  0.102926  8.6e-05  0.945413  0.0  0.107763  2e-05  1.020757  0.0  0.109071  -1e-05  1.019586  0.0  0.130826  0.106442  6.1e-05  1.021966  0.0
H  H16  1  0.11147247  0.05742654  0.68842919  1  0.102971  -8.4e-05  0.945302  0.0  0.107783  -2e-05  1.020663  0.0  0.109094  1e-05  1.01949  0.0  0.130814  0.106459  -6.1e-05  1.02187  0.0
H  H17  1  0.94257372  0.88853772  0.81157483  1  0.10297  8.3e-05  0.945366  0.0  0.107781  2e-05  1.020733  0.0  0.109093  -1e-05  1.019557  0.0  0.130831  0.106464  6.1e-05  1.021944  0.0
H  H18  1  0.70360048  0.43393830  0.62070900  1  0.084937  -0.000544  0.959919  -0.001  0.094944  -0.000494  1.028188  0.0  0.095729  -0.000309  1.02921  0.0  0.088554  0.094488  -0.000637  1.027397  -0.001
H  H19  1  0.56604514  0.29641477  0.87929000  1  0.085088  0.00055  0.959979  0.001  0.095085  0.000494  1.028162  0.0  0.09589  0.000308  1.029196  0.0  0.088667  0.094633  0.000636  1.027371  0.001
H  H20  1  0.29639849  0.56605904  0.37929091  1  0.084937  -0.00055  0.959936  -0.001  0.094936  -0.000494  1.0282  0.0  0.095722  -0.000309  1.02922  0.0  0.088547  0.094482  -0.000637  1.02741  -0.001
H  H21  1  0.43395415  0.70358770  0.12070933  1  0.085059  0.000547  0.959981  0.001  0.095055  0.000494  1.028181  0.0  0.095863  0.000308  1.029215  0.0  0.088655  0.094603  0.000637  1.02739  0.001
H  H22  1  0.49015622  0.41936911  0.63234435  1  0.117795  0.000177  0.938507  0.0  0.134214  5e-06  0.99562  0.0  0.135929  1.4e-05  0.995768  0.0  0.103007  0.132915  3e-06  0.99583  0.0
H  H23  1  0.58061809  0.50983843  0.86765108  1  0.117863  -0.000171  0.938541  0.0  0.134262  -6e-06  0.995612  0.0  0.135997  -1.5e-05  0.995767  0.0  0.103058  0.132959  -3e-06  0.995822  0.0
H  H24  1  0.50984034  0.58063079  0.36765551  1  0.117788  0.000175  0.9385  0.0  0.1342  5e-06  0.995608  0.0  0.135916  1.4e-05  0.995754  0.0  0.102993  0.132903  3e-06  0.995818  0.0
H  H25  1  0.41938121  0.49016405  0.13234629  1  0.117862  -0.000173  0.938536  0.0  0.13426  -5e-06  0.995619  0.0  0.136  -1.5e-05  0.995774  0.0  0.103027  0.13296  -3e-06  0.995828  0.0
C  C26  1  0.25788215  0.00491049  0.34472036  1  0.16507  0.005612  3.615342  0.005  0.108047  0.001326  3.879138  0.001  0.124355  0.002022  3.891109  0.002  0.144085  0.097803  0.000775  3.87088  0.001
C  C27  1  0.99509923  0.74212548  0.15527843  1  0.165157  -0.005639  3.615536  -0.005  0.108138  -0.001324  3.879386  -0.001  0.124453  -0.002022  3.891356  -0.002  0.144204  0.09789  -0.000775  3.871121  -0.001
C  C28  1  0.74211570  0.99508940  0.65528012  1  0.165048  0.005625  3.615328  0.005  0.108034  0.001326  3.879137  0.001  0.124342  0.002022  3.891106  0.002  0.144062  0.097784  0.000775  3.870875  0.001
C  C29  1  0.00490262  0.25787701  0.84472114  1  0.165315  -0.005636  3.615476  -0.005  0.108277  -0.001324  3.879319  -0.001  0.124592  -0.002021  3.89129  -0.002  0.144256  0.09803  -0.000775  3.87105  -0.001
C  C30  1  0.19491062  0.77680963  0.54939400  1  -3.9e-05  7.3e-05  3.707227  0.0  -0.027833  -0.00106  3.974015  -0.001  -0.025139  -0.000348  3.994392  0.0  0.000382  -0.029466  -0.001584  3.960729  -0.001
C  C31  1  0.22319454  0.80510162  0.95060783  1  -0.000187  -9.4e-05  3.7074  0.0  -0.027911  0.001063  3.974235  0.001  -0.025221  0.000348  3.994585  0.0  0.000335  -0.029559  0.001585  3.960958  0.001
C  C32  1  0.80508971  0.22318900  0.45060712  1  -7.5e-05  5.3e-05  3.707241  0.0  -0.027861  -0.00106  3.974033  -0.001  -0.025175  -0.000348  3.994405  0.0  0.000373  -0.029498  -0.001584  3.960742  -0.001
C  C33  1  0.77680724  0.19489959  0.04939017  1  -0.00016  -8.3e-05  3.707364  0.0  -0.027848  0.001062  3.974221  0.001  -0.025156  0.000348  3.99457  0.0  0.000326  -0.029501  0.001585  3.960948  0.001
C  C34  1  0.07433657  0.77566859  0.48591964  1  -0.062263  -0.004229  3.656764  -0.004  -0.102253  -0.002351  3.911325  -0.002  -0.100874  -0.002065  3.929283  -0.002  0.002102  -0.103288  -0.002524  3.899536  -0.003
C  C35  1  0.22432801  0.92565401  0.01408608  1  -0.062261  0.00424  3.657266  0.004  -0.102259  0.002347  3.911778  0.002  -0.100879  0.002063  3.929733  0.002  0.002109  -0.103304  0.002521  3.900001  0.003
C  C36  1  0.92566247  0.22433003  0.51408087  1  -0.062214  -0.004194  3.656784  -0.004  -0.1022  -0.002352  3.911334  -0.002  -0.10082  -0.002065  3.929292  -0.002  0.002141  -0.103241  -0.002524  3.899545  -0.003
C  C37  1  0.77567624  0.07434593  0.98591157  1  -0.062284  0.004238  3.657419  0.004  -0.102305  0.002348  3.911934  0.002  -0.100926  0.002064  3.92989  0.002  0.002098  -0.10335  0.002522  3.900161  0.003
C  C38  1  0.02669076  0.97330921  0.24999542  1  0.077867  -1.7e-05  3.596719  0.0  0.000849  1e-06  3.836832  0.0  0.009049  -0.0  3.847629  0.0  0.057804  -0.004346  -0.0  3.82981  0.0
C  C39  1  0.97330974  0.02669199  0.75000492  1  0.077812  1e-06  3.596857  0.0  0.000841  -0.0  3.83689  0.0  0.009038  -1e-06  3.847692  0.0  0.057773  -0.004356  -0.0  3.829873  0.0
C  C40  1  0.59009366  0.67090570  0.57622705  1  0.67927  0.00466  3.839775  0.008  0.638091  0.000709  4.148939  0.004  0.674176  0.00121  4.142852  0.004  0.199386  0.613672  0.000206  4.152243  0.004
C  C41  1  0.32911336  0.40990108  0.92376353  1  0.679304  -0.004642  3.839598  -0.008  0.638045  -0.000706  4.14881  -0.004  0.674147  -0.001213  4.142758  -0.004  0.199408  0.613629  -0.000207  4.152109  -0.004
C  C42  1  0.40990667  0.32909293  0.42377309  1  0.679304  0.004646  3.839785  0.008  0.638123  0.00071  4.148934  0.004  0.674196  0.00121  4.142861  0.004  0.199412  0.613702  0.000206  4.152237  0.004
C  C43  1  0.67088585  0.59010011  0.07623717  1  0.679366  -0.004649  3.839557  -0.008  0.638123  -0.000706  4.148757  -0.004  0.674232  -0.001214  4.142702  -0.004  0.199434  0.613707  -0.000207  4.152058  -0.004
C  C44  1  0.57699712  0.48016059  0.66485908  1  -0.233556  -0.010429  3.673383  -0.011  -0.268752  -0.006066  3.914595  -0.007  -0.273746  -0.004203  3.922689  -0.005  -0.170495  -0.265084  -0.007472  3.90878  -0.008
C  C45  1  0.51982414  0.42299576  0.83514833  1  -0.233927  0.010398  3.674237  0.011  -0.268891  0.00606  3.915236  0.007  -0.274004  0.004202  3.923426  0.005  -0.170676  -0.265217  0.007467  3.909417  0.008
C  C46  1  0.42300192  0.51983803  0.33514143  1  -0.233568  -0.010414  3.673384  -0.011  -0.268725  -0.006066  3.914557  -0.007  -0.273713  -0.004203  3.922658  -0.005  -0.170476  -0.265055  -0.007471  3.908742  -0.008
C  C47  1  0.48017508  0.57700543  0.16485140  1  -0.233878  0.010408  3.674162  0.011  -0.268871  0.006061  3.915172  0.007  -0.274  0.004201  3.923381  0.005  -0.170627  -0.265198  0.007467  3.909353  0.008
N  N48  1  0.30762765  0.92079518  0.46047191  1  -0.356233  -0.067467  3.339641  -0.083  -0.3118  -0.04968  3.655663  -0.064  -0.342786  -0.042449  3.674148  -0.058  -0.377623  -0.292865  -0.053358  3.644856  -0.067
N  N49  1  0.07920224  0.69236956  0.03953443  1  -0.35617  0.067479  3.339565  0.083  -0.311732  0.049668  3.655563  0.064  -0.342742  0.042439  3.674073  0.058  -0.37765  -0.292791  0.053347  3.644748  0.067
N  N50  1  0.69237148  0.07920473  0.53952919  1  -0.356193  -0.067469  3.339666  -0.083  -0.311751  -0.04968  3.655669  -0.064  -0.342737  -0.042448  3.674156  -0.058  -0.377614  -0.292817  -0.05336  3.644856  -0.067
N  N51  1  0.92079817  0.30763036  0.96046630  1  -0.356208  0.067469  3.339524  0.083  -0.311776  0.049667  3.655524  0.064  -0.342785  0.042438  3.674033  0.058  -0.377652  -0.292836  0.053347  3.64471  0.067
N  N52  1  0.11629923  0.92010477  0.35672796  1  -0.07687  -0.001333  3.564171  -0.002  0.013684  -0.001194  3.786626  -0.002  -0.001445  -0.000912  3.811773  -0.001  -0.242292  0.023657  -0.001404  3.769456  -0.002
N  N53  1  0.07988699  0.88370323  0.14327403  1  -0.076803  0.001336  3.564476  0.002  0.013747  0.001192  3.786947  0.002  -0.001381  0.000913  3.812091  0.001  -0.242361  0.023722  0.001403  3.769779  0.002
N  N54  1  0.88369973  0.07989257  0.64327195  1  -0.076917  -0.001344  3.564129  -0.002  0.013629  -0.001194  3.786583  -0.002  -0.001499  -0.000912  3.811729  -0.001  -0.242316  0.023601  -0.001404  3.769409  -0.002
N  N55  1  0.92011478  0.11629798  0.85672398  1  -0.076857  0.001335  3.564766  0.002  0.013704  0.001193  3.787217  0.002  -0.001424  0.000911  3.812363  0.001  -0.242344  0.023679  0.001403  3.770048  0.002
O  O56  1  0.50041296  0.76813022  0.64558458  1  -0.592216  -0.107226  2.073532  -0.139  -0.553518  -0.070463  2.349334  -0.1  -0.597906  -0.055634  2.343191  -0.083  -0.32135  -0.523721  -0.079387  2.353357  -0.109
O  O57  1  0.23189726  0.49958832  0.85439527  1  -0.592118  0.107259  2.073458  0.139  -0.553427  0.070472  2.349267  0.1  -0.597858  0.055645  2.343165  0.083  -0.321315  -0.523652  0.079409  2.353329  0.109
O  O58  1  0.49958617  0.23186969  0.35441356  1  -0.592228  -0.107233  2.073546  -0.139  -0.553553  -0.070464  2.349321  -0.1  -0.597933  -0.055635  2.343177  -0.083  -0.321377  -0.523763  -0.079389  2.353361  -0.109
O  O59  1  0.76810195  0.50041288  0.14560544  1  -0.592104  0.107262  2.073448  0.139  -0.553444  0.07047  2.349229  0.1  -0.597882  0.055645  2.343132  0.083  -0.321302  -0.523672  0.079407  2.353303  0.109
O  O60  1  0.68275309  0.72636837  0.43946491  1  -0.656945  -0.00066  1.923392  -0.002  -0.628821  -0.000103  2.171329  -0.001  -0.654351  0.00076  2.16041  0.0  -0.340032  -0.61112  -0.000891  2.178656  -0.002
O  O61  1  0.27362063  0.31723184  0.06054897  1  -0.656928  0.000652  1.922487  0.002  -0.628845  0.000106  2.170506  0.001  -0.654375  -0.00076  2.159592  0.0  -0.340033  -0.611144  0.000894  2.177834  0.002
O  O62  1  0.31725099  0.27362900  0.56053452  1  -0.656955  -0.000651  1.923395  -0.002  -0.628831  -0.000104  2.171341  -0.001  -0.654357  0.000761  2.160426  0.0  -0.340044  -0.61113  -0.000891  2.178669  -0.002
O  O63  1  0.72637731  0.68276934  0.93945112  1  -0.656983  0.000657  1.922511  0.002  -0.628882  0.000106  2.170517  0.001  -0.654411  -0.000759  2.159599  0.0  -0.340054  -0.611181  0.000895  2.177848  0.002
