# generated using pymatgen
data_CuH14(C7O3)3
_symmetry_space_group_name_H-M   'P 1'
_cell_length_a   6.90377869
_cell_length_b   14.89155328
_cell_length_c   19.96650820
_cell_angle_alpha   99.72132753
_cell_angle_beta   89.95899437
_cell_angle_gamma   90.08737245
_symmetry_Int_Tables_number   1
_chemical_formula_structural   CuH14(C7O3)3
_chemical_formula_sum   'Cu4 H56 C84 O36'
_cell_volume   2023.23836258
_cell_formula_units_Z   4
loop_
 _symmetry_equiv_pos_site_id
 _symmetry_equiv_pos_as_xyz
  1  'x, y, z'
loop_
 _atom_site_type_symbol
 _atom_site_label
 _atom_site_symmetry_multiplicity
 _atom_site_fract_x
 _atom_site_fract_y
 _atom_site_fract_z
 _atom_site_occupancy
 _atom_site_pbe_bader_charge
 _atom_site_pbe_bader_spin_density
 _atom_site_pbe_cm5_charge
 _atom_site_pbe_ddec_charge
 _atom_site_pbe_ddec_spin_density
 _atom_site_pbe_ddec_sum_bond_order
 _atom_site_pbe_magmom
Cu  Cu0  1  0.85209978  0.49784564  0.46039438  1  1.05724  -0.000233  0.660049  0.804903  -0.000303  2.290218  0.0
Cu  Cu1  1  0.35345143  0.50184218  0.03907648  1  1.086579  0.554843  0.678924  0.832124  0.71141  2.291989  0.552
Cu  Cu2  1  0.14786887  0.50215381  0.53959378  1  1.056539  0.000232  0.660196  0.804928  0.000301  2.290316  0.0
Cu  Cu3  1  0.64654473  0.49815863  0.96092286  1  1.085853  -0.554844  0.678913  0.832143  -0.711409  2.291999  -0.552
H  H4  1  0.69998975  0.01389627  0.28550011  1  0.663196  -0.0  0.314217  0.379158  -1e-06  0.954099  0.0
H  H5  1  0.20015467  0.98614707  0.21457471  1  0.662109  0.0  0.314209  0.379255  0.0  0.953688  0.0
H  H6  1  0.30002959  0.98610523  0.71449931  1  0.663113  0.0  0.314271  0.379281  1e-06  0.954001  0.0
H  H7  1  0.79986178  0.01385783  0.78542865  1  0.662133  -0.0  0.314207  0.379216  -0.0  0.953752  0.0
H  H8  1  0.61485254  0.57361402  0.37867969  1  0.581826  1e-06  0.321046  0.402556  1e-06  0.876034  0.0
H  H9  1  0.11578127  0.42692590  0.12123919  1  0.581387  -8.2e-05  0.320935  0.401882  -4.9e-05  0.875384  0.0
H  H10  1  0.38514506  0.42638475  0.62131588  1  0.581665  -1e-06  0.321052  0.402514  -1e-06  0.876108  0.0
H  H11  1  0.88420765  0.57307695  0.87876091  1  0.581335  8.3e-05  0.320882  0.401787  4.9e-05  0.875483  0.0
H  H12  1  0.48394508  0.54453987  0.43457550  1  0.632379  0.0  0.298098  0.388671  0.0  0.938807  0.0
H  H13  1  0.98506358  0.45543638  0.06516339  1  0.643358  -6.9e-05  0.297917  0.388762  -0.000105  0.938839  0.0
H  H14  1  0.51604240  0.45546638  0.56542353  1  0.632433  -0.0  0.298188  0.388798  -0.0  0.938651  0.0
H  H15  1  0.01493114  0.54456784  0.93483487  1  0.643378  6.9e-05  0.297911  0.388776  0.000105  0.938839  0.0
H  H16  1  0.51578133  0.27572250  0.51684832  1  0.122034  -0.0  0.110818  0.13576  -0.0  1.027237  0.0
H  H17  1  0.01531850  0.72431748  0.98314486  1  0.121817  0.000208  0.110688  0.135886  0.000185  1.026873  0.0
H  H18  1  0.48419455  0.72427762  0.48315244  1  0.121905  0.0  0.110877  0.135782  0.0  1.027335  0.0
H  H19  1  0.98467186  0.27568128  0.01685422  1  0.121724  -0.000208  0.110697  0.135887  -0.000185  1.026895  0.0
H  H20  1  0.57784079  0.08638898  0.65783848  1  0.119548  0.0  0.116798  0.155481  0.0  1.01379  0.0
H  H21  1  0.07819792  0.91361530  0.84208550  1  0.153353  -3e-06  0.116521  0.154814  -2e-06  1.013922  0.0
H  H22  1  0.42216695  0.91360911  0.34216052  1  0.119462  -0.0  0.116796  0.155513  -0.0  1.013758  0.0
H  H23  1  0.92179244  0.08638278  0.15791299  1  0.153302  3e-06  0.116514  0.154831  2e-06  1.013955  0.0
H  H24  1  0.99093527  0.30459779  0.65935080  1  0.121774  1e-06  0.109547  0.135643  1e-06  1.014133  0.0
H  H25  1  0.49063332  0.69571480  0.84053816  1  0.132394  -0.000269  0.109398  0.135626  -0.000254  1.013778  0.0
H  H26  1  0.00906090  0.69540507  0.34064328  1  0.122172  -1e-06  0.109568  0.135657  -1e-06  1.013986  0.0
H  H27  1  0.50936285  0.30428805  0.15946394  1  0.132307  0.000269  0.109353  0.135539  0.000254  1.013812  0.0
H  H28  1  0.99541146  0.12135857  0.55514447  1  0.103484  0.0  0.103574  0.11815  -0.0  1.031975  0.0
H  H29  1  0.49553983  0.87870829  0.94490858  1  0.103689  0.0  0.103792  0.11842  4e-06  1.031707  0.0
H  H30  1  0.00458037  0.87865041  0.44485240  1  0.103542  -0.0  0.103587  0.11816  0.0  1.03189  0.0
H  H31  1  0.50444474  0.12129320  0.05509335  1  0.103709  -0.0  0.103731  0.11839  -4e-06  1.031652  0.0
H  H32  1  0.52805212  0.11628954  0.44190750  1  0.050915  0.0  0.104577  0.119099  0.0  1.034714  0.0
H  H33  1  0.02795029  0.88371481  0.05802905  1  0.048504  1e-06  0.104469  0.119033  -3e-06  1.034834  0.0
H  H34  1  0.47195417  0.88371263  0.55809953  1  0.050976  -0.0  0.104614  0.119159  -0.0  1.034655  0.0
H  H35  1  0.97204587  0.11627783  0.94196524  1  0.048542  -1e-06  0.104482  0.119036  3e-06  1.034729  0.0
H  H36  1  0.81190129  0.08247913  0.44694138  1  0.081077  0.0  0.103888  0.102599  0.0  1.031822  0.0
H  H37  1  0.31201191  0.91753842  0.05314130  1  0.082547  1e-06  0.103721  0.102464  0.0  1.031778  0.0
H  H38  1  0.18810503  0.91752782  0.55305222  1  0.08102  -0.0  0.103971  0.102717  -0.0  1.03164  0.0
H  H39  1  0.68798134  0.08245898  0.94686311  1  0.082513  -1e-06  0.103725  0.102488  -0.0  1.031798  0.0
H  H40  1  0.34486634  0.07783464  0.33445373  1  0.108552  0.0  0.105019  0.103127  1e-06  1.030398  0.0
H  H41  1  0.84469637  0.92207966  0.16552306  1  0.109155  0.0  0.10507  0.103347  1e-06  1.030467  0.0
H  H42  1  0.65516314  0.92217027  0.66555013  1  0.108341  -0.0  0.105013  0.103097  -1e-06  1.030421  0.0
H  H43  1  0.15530992  0.07791230  0.83447365  1  0.108986  -0.0  0.105028  0.103257  -1e-06  1.030467  0.0
H  H44  1  0.76345826  0.24424045  0.82807155  1  0.078427  -0.000231  0.10897  0.126291  -0.000132  0.999791  0.0
H  H45  1  0.26372545  0.75588638  0.67175999  1  0.079634  -1e-06  0.109043  0.126197  -1e-06  0.999521  0.0
H  H46  1  0.23654370  0.75575968  0.17192770  1  0.078441  0.000231  0.10898  0.126293  0.000132  0.999729  0.0
H  H47  1  0.73626637  0.24411715  0.32824019  1  0.079705  1e-06  0.108985  0.12619  1e-06  0.999637  0.0
H  H48  1  0.26573448  0.18769004  0.70016033  1  0.117198  0.000197  0.106172  0.124609  0.000104  1.019812  0.0
H  H49  1  0.76589036  0.81250096  0.79968078  1  0.119372  -1e-06  0.106423  0.12515  0.0  1.019488  0.0
H  H50  1  0.73427325  0.81230463  0.29984173  1  0.11703  -0.000197  0.106164  0.1246  -0.000104  1.019736  0.0
H  H51  1  0.23410868  0.18749167  0.20031853  1  0.11928  1e-06  0.106413  0.125175  -0.0  1.019463  0.0
H  H52  1  0.96385285  0.34142283  0.91574494  1  0.126522  0.00025  0.106753  0.117535  0.000252  1.029125  0.0
H  H53  1  0.46376782  0.65855813  0.58423102  1  0.1266  -0.0  0.107004  0.117693  -0.0  1.030397  0.0
H  H54  1  0.03614910  0.65857389  0.08425388  1  0.126451  -0.00025  0.106736  0.117523  -0.000252  1.029193  0.0
H  H55  1  0.53621386  0.34144540  0.41576516  1  0.12651  0.0  0.106922  0.117684  0.0  1.03053  0.0
H  H56  1  0.46622846  0.28868322  0.78741569  1  0.090475  -0.000329  0.104542  0.107226  -0.000274  1.009398  0.0
H  H57  1  0.96587965  0.71131221  0.71254501  1  0.091389  0.0  0.104697  0.107633  0.0  1.01  0.0
H  H58  1  0.53377493  0.71131282  0.21258655  1  0.090547  0.000329  0.104523  0.10723  0.000274  1.009371  0.0
H  H59  1  0.03410781  0.28868110  0.28745037  1  0.091347  -0.0  0.104721  0.107635  -0.0  1.009959  0.0
C  C60  1  0.84411200  0.37404044  0.55528618  1  1.526166  0.0  0.220497  0.575313  -0.0  4.146162  0.0
C  C61  1  0.34278438  0.62591751  0.94419405  1  1.52668  0.000312  0.22054  0.578855  9.3e-05  4.14209  0.0
C  C62  1  0.15593341  0.62596719  0.44472553  1  1.525917  -0.0  0.220579  0.575405  -0.0  4.145894  0.0
C  C63  1  0.65721179  0.37408398  0.05580588  1  1.526623  -0.000312  0.22067  0.578987  -9.2e-05  4.142054  0.0
C  C64  1  0.76209714  0.29639013  0.58522631  1  0.023217  3e-06  -0.015182  0.013472  2e-06  4.009617  0.0
C  C65  1  0.26156679  0.70379135  0.91465566  1  0.015598  -0.000478  -0.017043  0.009615  -0.000288  4.012324  0.0
C  C66  1  0.23790192  0.70361000  0.41477295  1  0.02359  -3e-06  -0.015188  0.013591  -2e-06  4.009592  0.0
C  C67  1  0.73842648  0.29621150  0.08534544  1  0.015606  0.000478  -0.017049  0.009592  0.000287  4.012325  0.0
C  C68  1  0.59397430  0.25155109  0.55764583  1  -0.073794  0.0  -0.107736  -0.262876  -0.0  3.968755  0.0
C  C69  1  0.09362262  0.74855368  0.94232148  1  -0.078463  -0.000571  -0.107966  -0.262457  -0.000339  3.968221  -0.001
C  C70  1  0.40601751  0.74845039  0.44235560  1  -0.07493  -0.0  -0.107842  -0.263065  0.0  3.9689  0.0
C  C71  1  0.90636918  0.25144508  0.05768011  1  -0.078226  0.000572  -0.108022  -0.262478  0.00034  3.968278  0.001
C  C72  1  0.53019505  0.17602484  0.58469554  1  0.436699  4e-06  0.086149  0.279141  2e-06  4.065946  0.0
C  C73  1  0.03016128  0.82402702  0.91527745  1  0.436519  -0.000629  0.086131  0.278423  -0.00044  4.066856  -0.001
C  C74  1  0.46979821  0.82397869  0.41530765  1  0.437438  -4e-06  0.086276  0.279361  -2e-06  4.06575  0.0
C  C75  1  0.96982908  0.17597038  0.08472096  1  0.43677  0.000629  0.086109  0.27846  0.00044  4.066981  0.001
C  C76  1  0.63041777  0.14467714  0.63680362  1  0.087527  5e-06  -0.101843  -0.297749  6e-06  3.925375  0.0
C  C77  1  0.13062445  0.85540391  0.86313850  1  0.041658  0.000319  -0.101586  -0.296563  0.00021  3.925293  0.0
C  C78  1  0.36957550  0.85532434  0.36319681  1  0.087871  -5e-06  -0.101858  -0.297813  -6e-06  3.92537  0.0
C  C79  1  0.86936446  0.14459417  0.13686000  1  0.041339  -0.000319  -0.101586  -0.296668  -0.000209  3.925406  0.0
C  C80  1  0.79558796  0.19137807  0.66375150  1  0.440883  7e-06  0.089823  0.285636  9e-06  4.069301  0.0
C  C81  1  0.29578534  0.80887036  0.83618257  1  0.44484  0.00046  0.089385  0.284674  0.000318  4.070172  0.0
C  C82  1  0.20440965  0.80862274  0.33624834  1  0.440997  -7e-06  0.089794  0.285624  -9e-06  4.06928  0.0
C  C83  1  0.70420502  0.19112840  0.16381751  1  0.444685  -0.00046  0.089261  0.28459  -0.000318  4.070092  0.0
C  C84  1  0.86165830  0.26812719  0.63905085  1  -0.060992  1e-06  -0.104412  -0.246002  1e-06  3.966487  0.0
C  C85  1  0.36150674  0.73217908  0.86087609  1  -0.060582  0.000833  -0.104416  -0.244875  0.000497  3.966208  0.001
C  C86  1  0.13834075  0.73187294  0.36094891  1  -0.061323  -1e-06  -0.10442  -0.245977  -1e-06  3.966142  0.0
C  C87  1  0.63848507  0.26782172  0.13912525  1  -0.060608  -0.000834  -0.104341  -0.244722  -0.000497  3.966009  -0.001
C  C88  1  0.27058124  0.12125024  0.50502718  1  0.380835  -1e-06  0.096059  0.279919  -1e-06  4.015658  0.0
C  C89  1  0.77062487  0.87876190  0.99496090  1  0.379259  2.8e-05  0.095987  0.279944  1.1e-05  4.016184  0.0
C  C90  1  0.72941346  0.87875057  0.49497617  1  0.380654  1e-06  0.096138  0.279996  1e-06  4.015586  0.0
C  C91  1  0.22936404  0.12123414  0.00503684  1  0.37914  -2.8e-05  0.095911  0.279893  -1.1e-05  4.016321  0.0
C  C92  1  0.06887693  0.11310542  0.50632706  1  -0.041745  1e-06  -0.099799  -0.19012  0.0  3.990102  0.0
C  C93  1  0.56897024  0.88693626  0.99370709  1  -0.041772  -7.8e-05  -0.099814  -0.190206  -4.9e-05  3.990041  0.0
C  C94  1  0.93112214  0.88690152  0.49367205  1  -0.042267  -1e-06  -0.099845  -0.19018  -0.0  3.990029  0.0
C  C95  1  0.43101867  0.11306250  0.00629249  1  -0.041683  7.8e-05  -0.099788  -0.190247  4.9e-05  3.990158  0.0
C  C96  1  0.37123637  0.10998859  0.44325318  1  0.056556  1e-06  -0.101144  -0.209195  1e-06  3.971312  0.0
C  C97  1  0.87118449  0.88999523  0.05671829  1  0.060039  -8.4e-05  -0.100862  -0.208917  -6.1e-05  3.971719  0.0
C  C98  1  0.62877572  0.89001290  0.55675075  1  0.05669  -1e-06  -0.101208  -0.209373  -1e-06  3.97118  0.0
C  C99  1  0.12881166  0.10999877  0.94327919  1  0.059736  8.4e-05  -0.100929  -0.209014  6.1e-05  3.971685  0.0
C  C100  1  0.96792025  0.09157724  0.44595859  1  0.038477  -1e-06  -0.080245  -0.059838  -0.0  3.984834  0.0
C  C101  1  0.46798742  0.90843325  0.05409427  1  0.03785  1.9e-05  -0.079989  -0.059708  1.2e-05  3.984668  0.0
C  C102  1  0.03209041  0.90843039  0.55403860  1  0.039108  1e-06  -0.080345  -0.059955  0.0  3.984576  0.0
C  C103  1  0.53201018  0.09156347  0.94590705  1  0.037971  -1.9e-05  -0.079989  -0.05973  -1.2e-05  3.984849  0.0
C  C104  1  0.26786177  0.08846290  0.38278328  1  -0.072078  0.0  -0.073284  -0.049345  0.0  3.97053  0.0
C  C105  1  0.76778955  0.91147403  0.11720507  1  -0.071915  1.5e-05  -0.073731  -0.050251  8e-06  3.971577  0.0
C  C106  1  0.73215901  0.91154064  0.61721941  1  -0.071886  -0.0  -0.073322  -0.049208  -0.0  3.970268  0.0
C  C107  1  0.23221095  0.08851861  0.88279273  1  -0.071512  -1.5e-05  -0.073654  -0.049969  -8e-06  3.971172  0.0
C  C108  1  0.06578401  0.07826088  0.38336375  1  0.013137  1e-06  -0.030479  -0.090258  1e-06  4.019343  0.0
C  C109  1  0.56579569  0.92169377  0.11667127  1  0.012024  -9.5e-05  -0.030778  -0.090128  -6.5e-05  4.018959  0.0
C  C110  1  0.93422665  0.92174539  0.61663528  1  0.013004  -1e-06  -0.030463  -0.090327  -1e-06  4.01897  0.0
C  C111  1  0.43420914  0.07829887  0.88333004  1  0.011805  9.5e-05  -0.030684  -0.090151  6.5e-05  4.019034  0.0
C  C112  1  0.95733891  0.05029043  0.31952995  1  1.502122  0.0  0.236563  0.593284  0.0  4.118568  0.0
C  C113  1  0.45737155  0.94965230  0.18052600  1  1.504223  -1.1e-05  0.236453  0.592636  -8e-06  4.118685  0.0
C  C114  1  0.04268623  0.94971380  0.68046931  1  1.502003  -0.0  0.236715  0.593615  -0.0  4.11815  0.0
C  C115  1  0.54263763  0.05034102  0.81947489  1  1.504357  1.1e-05  0.236349  0.592569  8e-06  4.11921  0.0
C  C116  1  0.00489083  0.21203743  0.75969235  1  0.404832  0.000208  0.085699  0.2558  0.000141  4.036603  0.0
C  C117  1  0.50504272  0.78815911  0.74017853  1  0.393265  -1.1e-05  0.085477  0.25575  7e-06  4.03649  0.0
C  C118  1  0.99510823  0.78796134  0.24030573  1  0.404755  -0.000208  0.085574  0.255687  -0.00014  4.036718  0.0
C  C119  1  0.49495344  0.21183897  0.25982147  1  0.39329  1.1e-05  0.085345  0.255576  -7e-06  4.036564  0.0
C  C120  1  0.91736240  0.25403884  0.81978572  1  -0.023131  -0.000773  -0.092597  -0.183285  -0.000546  3.967372  -0.001
C  C121  1  0.41752822  0.74609849  0.68009840  1  -0.009152  2.8e-05  -0.092834  -0.182703  1.9e-05  3.966578  0.0
C  C122  1  0.08263376  0.74596129  0.18021203  1  -0.023102  0.000773  -0.092602  -0.183247  0.000546  3.967153  0.001
C  C123  1  0.58246939  0.25390164  0.31989985  1  -0.009165  -2.8e-05  -0.092761  -0.182721  -1.9e-05  3.966742  0.0
C  C124  1  0.20181891  0.22259572  0.74730673  1  -0.008516  0.000687  -0.097336  -0.194806  0.000505  3.984132  0.001
C  C125  1  0.70184841  0.77759255  0.75254750  1  -0.033604  2.5e-05  -0.097439  -0.195305  2.6e-05  3.984573  0.0
C  C126  1  0.79818738  0.77740237  0.25269526  1  -0.008359  -0.000687  -0.097223  -0.19464  -0.000505  3.98401  -0.001
C  C127  1  0.29814194  0.22240281  0.24745065  1  -0.033643  -2.5e-05  -0.097321  -0.195146  -2.6e-05  3.984445  0.0
C  C128  1  0.02946014  0.30767992  0.86865186  1  -0.031212  -0.000818  -0.075355  -0.050442  -0.000491  3.942974  -0.001
C  C129  1  0.52945786  0.69235515  0.63127711  1  -0.034807  -7e-06  -0.075864  -0.052589  -5e-06  3.944827  0.0
C  C130  1  0.97053891  0.69231885  0.13134571  1  -0.031089  0.000818  -0.075315  -0.050424  0.000492  3.942887  0.001
C  C131  1  0.47054265  0.30764702  0.36872190  1  -0.034726  7e-06  -0.075779  -0.052503  5e-06  3.944872  0.0
C  C132  1  0.31282755  0.27781061  0.79621719  1  -0.111176  0.001416  -0.078746  -0.068109  0.000849  3.965472  0.001
C  C133  1  0.81267753  0.72225578  0.70368609  1  -0.08743  -1e-05  -0.079465  -0.070106  -7e-06  3.966496  0.0
C  C134  1  0.68717874  0.72218680  0.20378372  1  -0.111136  -0.001415  -0.078823  -0.068327  -0.000849  3.965545  -0.001
C  C135  1  0.18731718  0.27774230  0.29631290  1  -0.087491  1e-05  -0.079481  -0.070086  7e-06  3.966309  0.0
C  C136  1  0.22736685  0.32017424  0.85707744  1  0.071189  0.000745  -0.019961  -0.044739  0.000515  3.96729  0.001
C  C137  1  0.72715039  0.67976252  0.64287536  1  0.075479  3.2e-05  -0.017601  -0.039374  2.1e-05  3.961624  0.0
C  C138  1  0.77263365  0.67982521  0.14292122  1  0.071752  -0.000743  -0.019942  -0.044576  -0.000515  3.967374  -0.001
C  C139  1  0.27285157  0.32023965  0.35712465  1  0.075586  -3.2e-05  -0.017643  -0.039518  -2e-05  3.961563  0.0
C  C140  1  0.34051439  0.38107959  0.90993377  1  1.530871  0.000473  0.214485  0.578141  0.000496  4.158392  0.001
C  C141  1  0.84017056  0.61818880  0.59017722  1  1.530103  1e-06  0.214108  0.574902  1e-06  4.16766  0.0
C  C142  1  0.65948177  0.61892122  0.09006557  1  1.530121  -0.000476  0.214378  0.577937  -0.000496  4.158691  -0.001
C  C143  1  0.15988063  0.38181338  0.40983430  1  1.530221  -1e-06  0.21423  0.575213  -1e-06  4.167453  0.0
O  O144  1  0.74078086  0.40363974  0.51023204  1  -1.114005  -3.2e-05  -0.302993  -0.523919  -2.1e-05  2.382199  0.0
O  O145  1  0.23945646  0.59553085  0.98910028  1  -1.120297  0.081012  -0.306901  -0.532299  0.052846  2.376714  0.074
O  O146  1  0.25921382  0.59634403  0.48977266  1  -1.114511  3.2e-05  -0.302998  -0.523793  2.1e-05  2.382737  0.0
O  O147  1  0.76053679  0.40446656  0.01089763  1  -1.120341  -0.081012  -0.306968  -0.532407  -0.052847  2.37672  -0.074
O  O148  1  0.00951287  0.40352354  0.57642587  1  -1.094185  3.3e-05  -0.302347  -0.502752  2.1e-05  2.353459  0.0
O  O149  1  0.50805521  0.59618466  0.92306275  1  -1.096254  -0.08252  -0.306272  -0.511208  -0.053727  2.347521  -0.075
O  O150  1  0.99047897  0.59649839  0.42357664  1  -1.093626  -3.3e-05  -0.302479  -0.503033  -2.1e-05  2.352661  0.0
O  O151  1  0.49194385  0.40381887  0.07693793  1  -1.096244  0.08252  -0.306293  -0.511208  0.053728  2.34751  0.075
O  O152  1  0.35601377  0.13224182  0.56812410  1  -1.110373  7e-06  -0.145469  -0.204931  5e-06  2.598211  0.0
O  O153  1  0.85613497  0.86773909  0.93185522  1  -1.110613  -0.000389  -0.145638  -0.204824  -0.000252  2.599554  0.0
O  O154  1  0.64397948  0.86775694  0.43187899  1  -1.110259  -7e-06  -0.145524  -0.205036  -4e-06  2.598143  0.0
O  O155  1  0.14384670  0.13225627  0.06814193  1  -1.110552  0.000389  -0.14554  -0.204755  0.000252  2.599541  0.0
O  O156  1  0.03051302  0.03726676  0.26188393  1  -1.173005  0.0  -0.290017  -0.527987  0.0  2.271537  0.0
O  O157  1  0.53047320  0.96254972  0.23816446  1  -1.175059  -2e-05  -0.290137  -0.528026  -1.4e-05  2.271389  0.0
O  O158  1  0.96950632  0.96273473  0.73811549  1  -1.173064  -0.0  -0.290058  -0.528173  -0.0  2.271543  0.0
O  O159  1  0.46954612  0.03743952  0.76183591  1  -1.174887  2e-05  -0.290108  -0.528078  1.4e-05  2.271792  0.0
O  O160  1  0.76827630  0.03991061  0.32917052  1  -1.171441  -3e-06  -0.326765  -0.480685  -2e-06  2.330742  0.0
O  O161  1  0.26845573  0.96016288  0.17089757  1  -1.170487  -7e-06  -0.326871  -0.480555  -4e-06  2.329756  0.0
O  O162  1  0.23174159  0.96009362  0.67082874  1  -1.171281  3e-06  -0.326883  -0.48088  2e-06  2.330681  0.0
O  O163  1  0.73155636  0.03983861  0.82910586  1  -1.170605  7e-06  -0.326773  -0.48039  4e-06  2.329958  0.0
O  O164  1  0.89081569  0.15446031  0.71320393  1  -1.10549  3.9e-05  -0.158053  -0.225923  2.2e-05  2.572  0.0
O  O165  1  0.39105925  0.84578807  0.78663223  1  -1.104405  0.000334  -0.157685  -0.225719  0.000214  2.571049  0.0
O  O166  1  0.10919641  0.84554051  0.28679140  1  -1.105423  -3.9e-05  -0.157984  -0.225984  -2.2e-05  2.57191  0.0
O  O167  1  0.60893691  0.15421001  0.21336877  1  -1.104164  -0.000334  -0.157607  -0.225674  -0.000214  2.571091  0.0
O  O168  1  0.25149628  0.40807338  0.96591107  1  -1.107523  0.091046  -0.317947  -0.535361  0.058922  2.400411  0.082
O  O169  1  0.75012175  0.59073254  0.53457647  1  -1.103052  -3.4e-05  -0.31477  -0.529668  -2.2e-05  2.401433  0.0
O  O170  1  0.74850277  0.59192607  0.03409010  1  -1.107499  -0.091043  -0.317918  -0.535282  -0.05892  2.400437  -0.082
O  O171  1  0.24985990  0.40926484  0.46543446  1  -1.103717  3.4e-05  -0.314902  -0.529815  2.2e-05  2.402185  0.0
O  O172  1  0.51300961  0.40295552  0.89575726  1  -1.101553  -0.087371  -0.313621  -0.513785  -0.056533  2.307148  -0.078
O  O173  1  0.01206348  0.59682425  0.60485585  1  -1.097637  4e-05  -0.309711  -0.507072  2.5e-05  2.30927  0.0
O  O174  1  0.48698511  0.59704801  0.10424093  1  -1.101595  0.087369  -0.313524  -0.513656  0.056531  2.307311  0.078
O  O175  1  0.98796167  0.40317930  0.39513382  1  -1.097202  -4e-05  -0.309694  -0.507247  -2.5e-05  2.30862  0.0
O  O176  1  0.58350120  0.52182297  0.40064735  1  -1.180007  2e-06  -0.576102  -0.730802  1e-06  2.029421  0.0
O  O177  1  0.08514903  0.47839946  0.09888352  1  -1.190035  -0.001771  -0.575452  -0.729098  -0.000983  2.028536  -0.001
O  O178  1  0.41651089  0.47817784  0.59935399  1  -1.179939  -2e-06  -0.576252  -0.730937  -1e-06  2.029142  0.0
O  O179  1  0.91484858  0.52160272  0.90111549  1  -1.190021  0.001771  -0.575398  -0.729007  0.000983  2.028615  0.001
