# generated using pymatgen
data_CdH22C14(NO3)2
_symmetry_space_group_name_H-M   'P 1'
_cell_length_a   9.24489003
_cell_length_b   10.32676039
_cell_length_c   10.60708924
_cell_angle_alpha   114.86393806
_cell_angle_beta   100.95118536
_cell_angle_gamma   107.10576220
_symmetry_Int_Tables_number   1
_chemical_formula_structural   CdH22C14(NO3)2
_chemical_formula_sum   'Cd2 H44 C28 N4 O12'
_cell_volume   818.69622359
_cell_formula_units_Z   2
loop_
 _symmetry_equiv_pos_site_id
 _symmetry_equiv_pos_as_xyz
  1  'x, y, z'
loop_
 _atom_site_type_symbol
 _atom_site_label
 _atom_site_symmetry_multiplicity
 _atom_site_fract_x
 _atom_site_fract_y
 _atom_site_fract_z
 _atom_site_occupancy
 _atom_site_hle17_bader_spin_density
 _atom_site_hle17_ddec_charge
 _atom_site_hle17_ddec_spin_density
 _atom_site_hle17_ddec_sum_bond_order
 _atom_site_hle17_magmom
 _atom_site_hse06_10hf_bader_spin_density
 _atom_site_hse06_10hf_ddec_charge
 _atom_site_hse06_10hf_ddec_spin_density
 _atom_site_hse06_10hf_ddec_sum_bond_order
 _atom_site_hse06_10hf_magmom
 _atom_site_hse06_bader_spin_density
 _atom_site_hse06_ddec_charge
 _atom_site_hse06_ddec_spin_density
 _atom_site_hse06_ddec_sum_bond_order
 _atom_site_hse06_magmom
 _atom_site_pbe_bader_spin_density
 _atom_site_pbe_cm5_charge
 _atom_site_pbe_ddec_charge
 _atom_site_pbe_ddec_spin_density
 _atom_site_pbe_ddec_sum_bond_order
 _atom_site_pbe_magmom
Cd  Cd0  1  0.18819048  0.45634823  0.36172165  1  0  1.159937  0  1.601351  0  0  0.974654  0  2.036943  0  0  1.034129  0  1.982648  0  0  0.753993  0.933632  0  2.072566  0
Cd  Cd1  1  0.81181053  0.54365359  0.63827990  1  0  1.15992  0  1.60136  0  0  0.974634  0  2.036962  0  0  1.034113  0  1.98266  0  0  0.753979  0.933611  0  2.072586  0
H  H2  1  0.88287032  0.30217528  0.34713830  1  0  0.418435  0  0.887945  0  0  0.387217  0  0.953774  0  0  0.398016  0  0.938062  0  0  0.287912  0.379523  0  0.96492  0
H  H3  1  0.11712969  0.69782419  0.65286118  1  0  0.418428  0  0.887961  0  0  0.387206  0  0.953795  0  0  0.398005  0  0.938083  0  0  0.287899  0.37951  0  0.964942  0
H  H4  1  0.98852104  0.30826717  0.48196645  1  0  0.421166  0  0.883207  0  0  0.390103  0  0.947844  0  0  0.401052  0  0.932007  0  0  0.286994  0.382263  0  0.959182  0
H  H5  1  0.01148007  0.69173230  0.51803322  1  0  0.421164  0  0.883214  0  0  0.390104  0  0.947844  0  0  0.401054  0  0.932006  0  0  0.286992  0.382266  0  0.95918  0
H  H6  1  0.50237208  0.61593407  0.38259597  1  0  0.413132  0  0.899788  0  0  0.37942  0  0.96899  0  0  0.3912  0  0.951979  0  0  0.280361  0.371368  0  0.980463  0
H  H7  1  0.49762903  0.38406540  0.61740276  1  0  0.41314  0  0.899778  0  0  0.379428  0  0.96898  0  0  0.391207  0  0.95197  0  0  0.28037  0.371375  0  0.980454  0
H  H8  1  0.44110666  0.75038808  0.46187962  1  0  0.365631  0  0.950394  0  0  0.322067  0  1.050022  0  0  0.333755  0  1.036135  0  0  0.27516  0.314079  0  1.057559  0
H  H9  1  0.55889496  0.24961256  0.53811967  1  0  0.365601  0  0.950462  0  0  0.32205  0  1.050053  0  0  0.333738  0  1.036159  0  0  0.275149  0.314061  0  1.057592  0
H  H10  1  0.08618472  0.22007758  0.01380588  1  0  0.086603  0  0.949724  0  0  0.095162  0  1.013935  0  0  0.097616  0  1.012063  0  0  0.118352  0.093256  0  1.015575  0
H  H11  1  0.91381289  0.77992659  0.98619794  1  0  0.086625  0  0.949676  0  0  0.095169  0  1.013904  0  0  0.097622  0  1.012034  0  0  0.118357  0.093263  0  1.015545  0
H  H12  1  0.12301083  0.98328825  0.84028469  1  0  0.118343  0  0.953165  0  0  0.1292  0  1.008248  0  0  0.132818  0  1.0068  0  0  0.108614  0.126339  0  1.009898  0
H  H13  1  0.87698356  0.01671356  0.15971857  1  0  0.118293  0  0.953184  0  0  0.129211  0  1.008212  0  0  0.132828  0  1.006767  0  0  0.108598  0.126351  0  1.009861  0
H  H14  1  0.30102834  0.88940357  0.95026499  1  0  0.102836  0  0.949162  0  0  0.113638  0  1.011549  0  0  0.116616  0  1.009334  0  0  0.107703  0.111372  0  1.013348  0
H  H15  1  0.69896615  0.11059588  0.04973450  1  0  0.102834  0  0.94919  0  0  0.113628  0  1.011577  0  0  0.116606  0  1.009363  0  0  0.107701  0.111363  0  1.013374  0
H  H16  1  0.40043606  0.27319551  0.38302537  1  0  0.085223  0  0.989658  0  0  0.092463  0  1.059298  0  0  0.095404  0  1.056097  0  0  0.118172  0.090037  0  1.061979  0
H  H17  1  0.59956827  0.72680632  0.61697674  1  0  0.085289  0  0.989621  0  0  0.092529  0  1.059258  0  0  0.095471  0  1.056058  0  0  0.118199  0.090102  0  1.061941  0
H  H18  1  0.46122612  0.90519701  0.16810143  1  0  0.055318  0  0.935402  0  0  0.07071  0  1.005357  0  0  0.071299  0  1.004797  0  0  0.098121  0.069943  0  1.006014  0
H  H19  1  0.53877329  0.09480363  0.83189748  1  0  0.055315  0  0.935381  0  0  0.070703  0  1.005339  0  0  0.07129  0  1.004777  0  0  0.098118  0.069933  0  1.005994  0
H  H20  1  0.61162006  0.10071876  0.25594581  1  0  0.084418  0  0.94436  0  0  0.099667  0  1.010738  0  0  0.100045  0  1.010832  0  0  0.111003  0.099283  0  1.010733  0
H  H21  1  0.38837885  0.89928070  0.74405254  1  0  0.084457  0  0.944303  0  0  0.0997  0  1.010675  0  0  0.100078  0  1.010769  0  0  0.111021  0.099313  0  1.010668  0
H  H22  1  0.31301136  0.83040826  0.31278327  1  0  0.070302  0  0.932951  0  0  0.087859  0  0.996723  0  0  0.088355  0  0.996751  0  0  0.103131  0.087375  0  0.996596  0
H  H23  1  0.68698925  0.16959003  0.68721489  1  0  0.070331  0  0.932943  0  0  0.087858  0  0.996741  0  0  0.088348  0  0.996764  0  0  0.103135  0.087374  0  0.996613  0
H  H24  1  0.25187154  0.98772567  0.35658882  1  0  0.071415  0  0.92103  0  0  0.091325  0  0.97594  0  0  0.091223  0  0.976845  0  0  0.10747  0.090911  0  0.976178  0
H  H25  1  0.74812796  0.01227262  0.64341010  1  0  0.071411  0  0.921042  0  0  0.091322  0  0.975939  0  0  0.091215  0  0.976839  0  0  0.107469  0.090908  0  0.976176  0
H  H26  1  0.74885270  0.10163040  0.45993008  1  0  0.085825  0  0.928352  0  0  0.10358  0  0.986074  0  0  0.10457  0  0.985732  0  0  0.111348  0.102781  0  0.986485  0
H  H27  1  0.25114781  0.89837024  0.54006997  1  0  0.085823  0  0.928382  0  0  0.103553  0  0.986108  0  0  0.104557  0  0.985752  0  0  0.111354  0.102755  0  0.986519  0
H  H28  1  0.61369600  0.89876992  0.37515233  1  0  0.056967  0  0.930714  0  0  0.073579  0  0.995282  0  0  0.074478  0  0.994654  0  0  0.098463  0.07294  0  0.995597  0
H  H29  1  0.38630451  0.10123072  0.62484677  1  0  0.056972  0  0.930705  0  0  0.073571  0  0.995266  0  0  0.074468  0  0.99464  0  0  0.098462  0.072932  0  0.99558  0
H  H30  1  0.53895827  0.45170479  0.13893260  1  0  0.10715  0  0.940282  0  0  0.124415  0  0.996275  0  0  0.126439  0  0.996011  0  0  0.100175  0.123191  0  0.996035  0
H  H31  1  0.46104395  0.54829468  0.86106726  1  0  0.107178  0  0.940192  0  0  0.124407  0  0.99622  0  0  0.126422  0  0.995963  0  0  0.100167  0.123183  0  0.995981  0
H  H32  1  0.61167199  0.30211696  0.09818354  1  0  0.099734  0  0.95097  0  0  0.110212  0  1.020088  0  0  0.112629  0  1.019236  0  0  0.094855  0.10852  0  1.020795  0
H  H33  1  0.38833013  0.69788486  0.90181725  1  0  0.09973  0  0.950962  0  0  0.110196  0  1.020088  0  0  0.11261  0  1.019236  0  0  0.094851  0.108507  0  1.020794  0
H  H34  1  0.64093985  0.47282083  0.93654884  1  0  0.093873  0  0.967475  0  0  0.114185  0  1.033432  0  0  0.115799  0  1.033122  0  0  0.080589  0.113156  0  1.033384  0
H  H35  1  0.35906135  0.52717629  0.06345083  1  0  0.093811  0  0.967437  0  0  0.114112  0  1.033413  0  0  0.115725  0  1.033105  0  0  0.080563  0.113084  0  1.033364  0
H  H36  1  0.73565710  0.34390374  0.92912613  1  0  0.10012  0  0.972432  0  0  0.11509  0  1.044867  0  0  0.117729  0  1.043024  0  0  0.082335  0.113208  0  1.046265  0
H  H37  1  0.26434359  0.65609220  0.07087297  1  0  0.100046  0  0.97239  0  0  0.115003  0  1.044852  0  0  0.11764  0  1.043013  0  0  0.082307  0.113122  0  1.046249  0
H  H38  1  0.85161527  0.53475573  0.96689214  1  0  0.112061  0  0.964704  0  0  0.132147  0  1.026143  0  0  0.133719  0  1.026576  0  0  0.087769  0.131057  0  1.025955  0
H  H39  1  0.14838321  0.46524021  0.03310848  1  0  0.112078  0  0.964684  0  0  0.132162  0  1.026113  0  0  0.133734  0  1.026545  0  0  0.087777  0.131063  0  1.025938  0
H  H40  1  0.92727611  0.77486900  0.22779788  1  0  0.100286  0  0.947677  0  0  0.124315  0  1.00451  0  0  0.125761  0  1.004491  0  0  0.087156  0.122951  0  1.005276  0
H  H41  1  0.07272450  0.22512929  0.77220028  1  0  0.100329  0  0.947649  0  0  0.124359  0  1.004474  0  0  0.125806  0  1.004455  0  0  0.087157  0.122995  0  1.005239  0
H  H42  1  0.83545500  0.74727528  0.35258813  1  0  0.111153  0  0.953635  0  0  0.130959  0  1.013928  0  0  0.133352  0  1.0128  0  0  0.087507  0.129128  0  1.014873  0
H  H43  1  0.16454560  0.25272301  0.64741097  1  0  0.111191  0  0.953658  0  0  0.131007  0  1.013924  0  0  0.1334  0  1.012796  0  0  0.087544  0.129176  0  1.014869  0
H  H44  1  0.71427357  0.71576560  0.18186500  1  0  0.092288  0  0.953813  0  0  0.114059  0  1.018129  0  0  0.115311  0  1.018524  0  0  0.082609  0.113043  0  1.017964  0
H  H45  1  0.28572652  0.28423152  0.81813354  1  0  0.092327  0  0.95375  0  0  0.114089  0  1.018076  0  0  0.115342  0  1.018472  0  0  0.082619  0.113072  0  1.017911  0
C  C46  1  0.16715751  0.17670887  0.05488861  1  0  0.113949  0  3.725315  0  0  0.080727  0  3.977729  0  0  0.086784  0  3.999047  0  0  0.045616  0.077213  0  3.962836  0
C  C47  1  0.83284019  0.82329295  0.94511427  1  0  0.113993  0  3.725322  0  0  0.080793  0  3.977757  0  0  0.086852  0  3.999071  0  0  0.045657  0.077278  0  3.962865  0
C  C48  1  0.18818579  0.04694217  0.96034430  1  0  -0.116332  0  3.740728  0  0  -0.12661  0  3.990254  0  0  -0.133916  0  4.012888  0  0  -0.083942  -0.121491  0  3.974792  0
C  C49  1  0.81180971  0.95305964  0.03965726  1  0  -0.11635  0  3.740725  0  0  -0.126708  0  3.990288  0  0  -0.134014  0  4.012917  0  0  -0.083974  -0.121591  0  3.974826  0
C  C50  1  0.28901455  0.99505383  0.02225521  1  0  -0.050629  0  3.679851  0  0  -0.077171  0  3.925523  0  0  -0.074931  0  3.944867  0  0  -0.064718  -0.07809  0  3.912087  0
C  C51  1  0.71098427  0.00494798  0.97774408  1  0  -0.050662  0  3.679918  0  0  -0.07717  0  3.925616  0  0  -0.07493  0  3.944959  0  0  -0.064715  -0.07809  0  3.912181  0
C  C52  1  0.37062947  0.07604074  0.17669168  1  0  0.032289  0  3.723186  0  0  0.057535  0  3.962775  0  0  0.052805  0  3.987767  0  0  -0.002387  0.059663  0  3.946742  0
C  C53  1  0.62937096  0.92396225  0.82330930  1  0  0.0324  0  3.723112  0  0  0.057594  0  3.962745  0  0  0.052865  0  3.987737  0  0  -0.002423  0.059719  0  3.946709  0
C  C54  1  0.34227965  0.20519101  0.26251120  1  0  0.077161  0  3.680312  0  0  0.036845  0  3.929655  0  0  0.04348  0  3.947454  0  0  0.041079  0.032461  0  3.918802  0
C  C55  1  0.65772136  0.79481081  0.73749129  1  0  0.077033  0  3.680166  0  0  0.036722  0  3.929533  0  0  0.043356  0  3.947334  0  0  0.041046  0.032339  0  3.918683  0
C  C56  1  0.49010792  0.02985979  0.24546342  1  0  -0.046435  0  3.69419  0  0  -0.113733  0  3.954463  0  0  -0.110152  0  3.968105  0  0  -0.06148  -0.115719  0  3.944967  0
C  C57  1  0.50989048  0.97013849  0.75453436  1  0  -0.04652  0  3.694171  0  0  -0.11378  0  3.954434  0  0  -0.110197  0  3.968077  0  0  -0.061471  -0.115752  0  3.944921  0
C  C58  1  0.34853165  0.95560353  0.39294214  1  0  -0.026509  0  3.646139  0  0  -0.085755  0  3.904344  0  0  -0.082411  0  3.916686  0  0  -0.069518  -0.087554  0  3.895694  0
C  C59  1  0.65146785  0.04439476  0.60705583  1  0  -0.026519  0  3.646172  0  0  -0.085716  0  3.904325  0  0  -0.082336  0  3.916618  0  0  -0.069479  -0.087512  0  3.895673  0
C  C60  1  0.63501201  0.02103018  0.45268015  1  0  -0.022458  0  3.635399  0  0  -0.077212  0  3.889346  0  0  -0.074148  0  3.901004  0  0  -0.067082  -0.079122  0  3.881295  0
C  C61  1  0.36498750  0.97896811  0.54731783  1  0  -0.022466  0  3.635428  0  0  -0.077145  0  3.889326  0  0  -0.074085  0  3.900998  0  0  -0.067058  -0.079056  0  3.881276  0
C  C62  1  0.93841844  0.50563669  0.21779768  1  0  0.625254  0  3.82665  0  0  0.579121  0  4.110525  0  0  0.611181  0  4.107508  0  0  0.201077  0.557422  0  4.111949  0
C  C63  1  0.06158428  0.49436396  0.78220274  1  0  0.625243  0  3.826568  0  0  0.57921  0  4.110415  0  0  0.611267  0  4.107401  0  0  0.201088  0.557509  0  4.111839  0
C  C64  1  0.78998335  0.52870797  0.15362015  1  0  0.102  0  3.583298  0  0  0.138723  0  3.807254  0  0  0.134911  0  3.826287  0  0  -0.013402  0.140894  0  3.794423  0
C  C65  1  0.21001987  0.47129385  0.84638178  1  0  0.102145  0  3.583048  0  0  0.138586  0  3.807395  0  0  0.134775  0  3.826416  0  0  -0.013412  0.14076  0  3.794561  0
C  C66  1  0.64274524  0.42676645  0.17259662  1  0  -0.307352  0  3.624802  0  0  -0.348487  0  3.861744  0  0  -0.35503  0  3.870221  0  0  -0.161187  -0.343794  0  3.855556  0
C  C67  1  0.35725426  0.57323184  0.82740324  1  0  -0.307389  0  3.624664  0  0  -0.348398  0  3.861639  0  0  -0.354925  0  3.870107  0  0  -0.161164  -0.343712  0  3.855454  0
C  C68  1  0.67874763  0.45977244  0.33095072  1  0  0.698805  0  3.86002  0  0  0.648339  0  4.156567  0  0  0.681383  0  4.151692  0  0  0.203081  0.626033  0  4.159037  0
C  C69  1  0.32125187  0.54022585  0.66904820  1  0  0.698707  0  3.860094  0  0  0.648212  0  4.156667  0  0  0.681251  0  4.151796  0  0  0.203026  0.625906  0  4.159136  0
C  C70  1  0.75212510  0.46650538  0.98681693  1  0  -0.32558  0  3.675452  0  0  -0.409812  0  3.919963  0  0  -0.412301  0  3.929321  0  0  -0.24963  -0.407741  0  3.913331  0
C  C71  1  0.24787338  0.53349056  0.01318274  1  0  -0.325461  0  3.675245  0  0  -0.409598  0  3.919817  0  0  -0.412083  0  3.929168  0  0  -0.249569  -0.407526  0  3.913186  0
C  C72  1  0.81884529  0.70199844  0.23457908  1  0  -0.32521  0  3.689557  0  0  -0.410023  0  3.930233  0  0  -0.412214  0  3.939809  0  0  -0.247757  -0.40823  0  3.923836  0
C  C73  1  0.18115531  0.29799986  0.76542002  1  0  -0.325403  0  3.689464  0  0  -0.410158  0  3.930214  0  0  -0.412344  0  3.939777  0  0  -0.247817  -0.408366  0  3.923816  0
N  N74  1  0.24239662  0.25355576  0.20367808  1  0  -0.330116  0  3.273835  0  0  -0.246991  0  3.537692  0  0  -0.268495  0  3.559346  0  0  -0.329449  -0.233033  0  3.522799  0
N  N75  1  0.75760490  0.74644724  0.79632593  1  0  -0.330119  0  3.27387  0  0  -0.246986  0  3.537708  0  0  -0.268492  0  3.559362  0  0  -0.329432  -0.233027  0  3.522811  0
N  N76  1  0.50153248  0.05588268  0.39506314  1  0  -0.223527  0  3.213821  0  0  -0.130922  0  3.444258  0  0  -0.147066  0  3.464675  0  0  -0.328742  -0.120075  0  3.429753  0
N  N77  1  0.49846592  0.94411561  0.60493559  1  0  -0.22351  0  3.213831  0  0  -0.130927  0  3.444249  0  0  -0.147081  0  3.464663  0  0  -0.328767  -0.120086  0  3.429743  0
O  O78  1  0.04005136  0.61161281  0.34991004  1  0  -0.663468  0  2.016416  0  0  -0.588097  0  2.246709  0  0  -0.617779  0  2.23863  0  0  -0.327939  -0.567467  0  2.251427  0
O  O79  1  0.95994975  0.38838666  0.65009057  1  0  -0.663481  0  2.016417  0  0  -0.588106  0  2.246661  0  0  -0.617792  0  2.23859  0  0  -0.327915  -0.567475  0  2.251379  0
O  O80  1  0.95372184  0.38114735  0.14130325  1  0  -0.635463  0  1.940959  0  0  -0.575049  0  2.173  0  0  -0.602587  0  2.166261  0  0  -0.326645  -0.556136  0  2.177162  0
O  O81  1  0.04628088  0.61885330  0.85869623  1  0  -0.63547  0  1.940952  0  0  -0.575067  0  2.172953  0  0  -0.602607  0  2.166215  0  0  -0.326657  -0.556156  0  2.177117  0
O  O82  1  0.65088451  0.56737883  0.42440047  1  0  -0.656131  0  1.999928  0  0  -0.586024  0  2.229957  0  0  -0.614309  0  2.220871  0  0  -0.31816  -0.566091  0  2.235207  0
O  O83  1  0.34911440  0.43262064  0.57559977  1  0  -0.6561  0  2.000023  0  0  -0.585985  0  2.23005  0  0  -0.614272  0  2.220969  0  0  -0.318141  -0.566047  0  2.235287  0
O  O84  1  0.74361908  0.38262922  0.37010035  1  0  -0.672679  0  2.037858  0  0  -0.600858  0  2.279314  0  0  -0.629609  0  2.269717  0  0  -0.322794  -0.580486  0  2.284712  0
O  O85  1  0.25638204  0.61737024  0.62989837  1  0  -0.672672  0  2.037855  0  0  -0.600827  0  2.279307  0  0  -0.629572  0  2.269715  0  0  -0.322785  -0.580454  0  2.28471  0
O  O86  1  0.97269335  0.27383469  0.37546854  1  0  -0.830261  0  1.846381  0  0  -0.775328  0  2.034678  0  0  -0.797573  0  2.001837  0  0  -0.59159  -0.759629  0  2.057647  0
O  O87  1  0.02730776  0.72616478  0.62453113  1  0  -0.830261  0  1.846408  0  0  -0.775322  0  2.034706  0  0  -0.797567  0  2.001865  0  0  -0.591576  -0.759622  0  2.057676  0
O  O88  1  0.40709979  0.64354341  0.37148982  1  0  -0.829497  0  1.922639  0  0  -0.765252  0  2.160411  0  0  -0.789363  0  2.126946  0  0  -0.594243  -0.748388  0  2.18075  0
O  O89  1  0.59290022  0.35645605  0.62850871  1  0  -0.829457  0  1.922688  0  0  -0.765216  0  2.160452  0  0  -0.789325  0  2.126979  0  0  -0.594232  -0.748351  0  2.18079  0
