# generated using pymatgen
data_CaH18C10Br2(NO2)2
_symmetry_space_group_name_H-M   'P 1'
_cell_length_a   7.66614597
_cell_length_b   9.85258225
_cell_length_c   10.96305922
_cell_angle_alpha   95.07799333
_cell_angle_beta   110.45834213
_cell_angle_gamma   90.01594387
_symmetry_Int_Tables_number   1
_chemical_formula_structural   CaH18C10Br2(NO2)2
_chemical_formula_sum   'Ca2 H36 C20 Br4 N4 O8'
_cell_volume   772.34882455
_cell_formula_units_Z   2
loop_
 _symmetry_equiv_pos_site_id
 _symmetry_equiv_pos_as_xyz
  1  'x, y, z'
loop_
 _atom_site_type_symbol
 _atom_site_label
 _atom_site_symmetry_multiplicity
 _atom_site_fract_x
 _atom_site_fract_y
 _atom_site_fract_z
 _atom_site_occupancy
 _atom_site_pbe_bader_spin_density
 _atom_site_pbe_cm5_charge
 _atom_site_pbe_ddec_charge
 _atom_site_pbe_ddec_spin_density
 _atom_site_pbe_ddec_sum_bond_order
 _atom_site_pbe_magmom
Ca  Ca0  1  0.31528067  0.24453949  0.48689231  1  0  0.723723  1.317582  0  1.624241  0
Ca  Ca1  1  0.82813871  0.75545763  0.51325729  1  0  0.724241  1.319506  0  1.621518  0
H  H2  1  0.35879692  0.88150817  0.87568247  1  0  0.106104  0.087672  0  0.991219  0
H  H3  1  0.48362287  0.11843064  0.12474122  1  0  0.10575  0.087026  0  0.991419  0
H  H4  1  0.59521452  0.83141349  0.91304390  1  0  0.100341  0.083123  0  1.002331  0
H  H5  1  0.68254933  0.16841521  0.08712417  1  0  0.100062  0.082731  0  1.001312  0
H  H6  1  0.53126060  0.60982630  0.63457714  1  0  0.127076  0.096932  0  1.006967  0
H  H7  1  0.89721733  0.39043829  0.36557304  1  0  0.12702  0.096947  0  1.006405  0
H  H8  1  0.47103665  0.65246841  0.00134822  1  0  0.09304  0.1054  0  1.003947  0
H  H9  1  0.47004873  0.34729238  0.99876198  1  0  0.093053  0.105471  0  1.004189  0
H  H10  1  0.25288391  0.64532952  0.86857947  1  0  0.083533  0.091988  0  1.023912  0
H  H11  1  0.38492902  0.35456656  0.13165200  1  0  0.08344  0.092019  0  1.024023  0
H  H12  1  0.42541278  0.45696910  0.79793052  1  0  0.093613  0.094291  0  1.038552  0
H  H13  1  0.62807645  0.54296782  0.20194879  1  0  0.093792  0.094223  0  1.03865  0
H  H14  1  0.63369768  0.56034545  0.85510041  1  0  0.091702  0.101149  0  0.991591  0
H  H15  1  0.77913666  0.43951598  0.14480344  1  0  0.091447  0.100223  0  0.992298  0
H  H16  1  0.51710387  0.82975347  0.69284047  1  0  0.311803  0.274786  0  0.944999  0
H  H17  1  0.82489269  0.17033784  0.30738466  1  0  0.311652  0.274332  0  0.944673  0
H  H18  1  0.28760349  0.80606703  0.66124930  1  0  0.323995  0.281466  0  0.922555  0
H  H19  1  0.62704906  0.19409766  0.33904063  1  0  0.323647  0.281011  0  0.922009  0
H  H20  1  0.17849434  0.82657053  0.42477531  1  0  0.125816  0.091078  0  1.018737  0
H  H21  1  0.75365582  0.17329968  0.57503131  1  0  0.125616  0.090869  0  1.018749  0
H  H22  1  0.27181964  0.88074556  0.11434237  1  0  0.10554  0.091687  0  0.971748  0
H  H23  1  0.15732766  0.11951736  0.88554934  1  0  0.105683  0.091718  0  0.973046  0
H  H24  1  0.02231429  0.87011435  0.03983462  1  0  0.095624  0.089231  0  1.020212  0
H  H25  1  0.98235006  0.13007538  0.96007867  1  0  0.095979  0.089407  0  1.020234  0
H  H26  1  0.00943367  0.65714128  0.13976990  1  0  0.092454  0.092831  0  0.993178  0
H  H27  1  0.86932708  0.34292741  0.85981899  1  0  0.092303  0.093033  0  0.993946  0
H  H28  1  0.19674310  0.63149889  0.08144248  1  0  0.09792  0.103661  0  0.996065  0
H  H29  1  0.11499680  0.36873657  0.91826448  1  0  0.09811  0.104179  0  0.994435  0
H  H30  1  0.42729828  0.69331051  0.29575827  1  0  0.091504  0.084857  0  1.054107  0
H  H31  1  0.13156359  0.30657761  0.70406816  1  0  0.091635  0.084843  0  1.05355  0
H  H32  1  0.25554489  0.61406549  0.34205845  1  0  0.10288  0.111006  0  0.993084  0
H  H33  1  0.91359068  0.38587151  0.65758334  1  0  0.103036  0.111294  0  0.99323  0
H  H34  1  0.99242063  0.90391329  0.24549044  1  0  0.272352  0.250027  0  0.991178  0
H  H35  1  0.74684978  0.09612308  0.75443387  1  0  0.272492  0.249752  0  0.990836  0
H  H36  1  0.16612440  0.01767921  0.25989961  1  0  0.288576  0.245941  0  1.000545  0
H  H37  1  0.90611927  0.98237788  0.74007467  1  0  0.288459  0.244678  0  1.001977  0
C  C38  1  0.23685916  0.57519419  0.58182613  1  0  0.242932  0.632621  0  4.150539  0
C  C39  1  0.65525016  0.42480325  0.41809921  1  0  0.243654  0.632746  0  4.149087  0
C  C40  1  0.44870481  0.79989646  0.86160841  1  0  -0.06326  -0.024669  0  3.78585  0
C  C41  1  0.58763118  0.20001287  0.13865196  1  0  -0.062665  -0.023138  0  3.783995  0
C  C42  1  0.42689066  0.62568177  0.68172417  1  0  0.014334  -0.018614  0  3.709322  0
C  C43  1  0.74572955  0.37443778  0.31833818  1  0  0.01467  -0.018541  0  3.708363  0
C  C44  1  0.40453153  0.66053508  0.89608800  1  0  -0.167529  -0.175004  0  3.898463  0
C  C45  1  0.50898955  0.33933392  0.10406151  1  0  -0.167603  -0.175617  0  3.899032  0
C  C46  1  0.48098910  0.56207627  0.81225292  1  0  -0.157776  -0.181567  0  3.882094  0
C  C47  1  0.66931985  0.43786258  0.18771933  1  0  -0.157936  -0.180694  0  3.88252  0
C  C48  1  0.43235294  0.92266325  0.43594904  1  0  0.230316  0.617753  0  4.183279  0
C  C49  1  0.99646562  0.07719768  0.56412244  1  0  0.230647  0.617637  0  4.18319  0
C  C50  1  0.25422357  0.83831122  0.35753659  1  0  0.013506  -0.013268  0  3.705626  0
C  C51  1  0.89656632  0.16164307  0.64231720  1  0  0.01407  -0.013031  0  3.703627  0
C  C52  1  0.14171219  0.84466740  0.12363792  1  0  -0.066074  -0.028493  0  3.790249  0
C  C53  1  0.01790071  0.15549690  0.87624360  1  0  -0.066656  -0.030184  0  3.791681  0
C  C54  1  0.14912078  0.69524025  0.14983540  1  0  -0.160695  -0.165291  0  3.911544  0
C  C55  1  0.99902219  0.30488617  0.84988833  1  0  -0.160615  -0.165947  0  3.911478  0
C  C56  1  0.28286036  0.69863071  0.29216356  1  0  -0.157831  -0.184873  0  3.853722  0
C  C57  1  0.99065562  0.30134163  0.70759062  1  0  -0.157966  -0.184971  0  3.852975  0
Br  Br58  1  0.47231223  0.15758737  0.75577406  1  0  -0.294188  -0.589622  0  0.904205  0
Br  Br59  1  0.71611372  0.84273868  0.24440977  1  0  -0.294467  -0.590034  0  0.902725  0
Br  Br60  1  0.10582863  0.24821898  0.21080430  1  0  -0.291935  -0.598802  0  0.966624  0
Br  Br61  1  0.89390948  0.75170498  0.78929564  1  0  -0.291917  -0.599297  0  0.96656  0
N  N62  1  0.41960352  0.77709279  0.71771457  1  0  -0.469795  -0.222937  0  3.478428  0
N  N63  1  0.70256192  0.22298057  0.28249241  1  0  -0.469626  -0.222188  0  3.475711  0
N  N64  1  0.13047847  0.91367247  0.24771502  1  0  -0.475579  -0.216858  0  3.526995  0
N  N65  1  0.88266789  0.08636316  0.75221518  1  0  -0.475923  -0.214041  0  3.523823  0
O  O66  1  0.21857629  0.45046231  0.54211318  1  0  -0.381395  -0.622449  0  2.280613  0
O  O67  1  0.67603524  0.54958043  0.45759320  1  0  -0.381365  -0.622398  0  2.279969  0
O  O68  1  0.11311461  0.66307988  0.54456843  1  0  -0.380283  -0.627277  0  2.280871  0
O  O69  1  0.56912470  0.33669867  0.45545867  1  0  -0.380585  -0.627183  0  2.281459  0
O  O70  1  0.43835391  0.04753696  0.41866550  1  0  -0.377147  -0.638848  0  2.295181  0
O  O71  1  0.01971109  0.95237692  0.58161944  1  0  -0.377502  -0.639503  0  2.296807  0
O  O72  1  0.55981519  0.86087432  0.51740117  1  0  -0.385421  -0.637049  0  2.279992  0
O  O73  1  0.04281778  0.13883974  0.48270212  1  0  -0.385407  -0.636337  0  2.278301  0
