# generated using pymatgen
data_PH16Pb2C16NO11
_symmetry_space_group_name_H-M   'P 1'
_cell_length_a   6.73277815
_cell_length_b   9.27711360
_cell_length_c   16.71962129
_cell_angle_alpha   102.11822122
_cell_angle_beta   91.81127590
_cell_angle_gamma   98.67625170
_symmetry_Int_Tables_number   1
_chemical_formula_structural   PH16Pb2C16NO11
_chemical_formula_sum   'P2 H32 Pb4 C32 N2 O22'
_cell_volume   1007.19924596
_cell_formula_units_Z   2
loop_
 _symmetry_equiv_pos_site_id
 _symmetry_equiv_pos_as_xyz
  1  'x, y, z'
loop_
 _atom_site_type_symbol
 _atom_site_label
 _atom_site_symmetry_multiplicity
 _atom_site_fract_x
 _atom_site_fract_y
 _atom_site_fract_z
 _atom_site_occupancy
 _atom_site_pbe_bader_spin_density
 _atom_site_pbe_cm5_charge
 _atom_site_pbe_ddec_charge
 _atom_site_pbe_ddec_spin_density
 _atom_site_pbe_ddec_sum_bond_order
 _atom_site_pbe_magmom
P  P0  1  0.80938753  0.21240523  0.07862724  1  0  0.314033  1.217469  0  5.599081  0
P  P1  1  0.19058986  0.78763045  0.92138933  1  0  0.313831  1.216809  0  5.600149  0
H  H2  1  0.25360934  0.79056255  0.50966586  1  0  0.311402  0.385776  0  0.951011  0
H  H3  1  0.74638898  0.20943395  0.49033800  1  0  0.311336  0.385643  0  0.95115  0
H  H4  1  0.11341383  0.39360200  0.19074191  1  0  0.308112  0.24885  0  0.978806  0
H  H5  1  0.88660968  0.60640674  0.80925480  1  0  0.308216  0.249127  0  0.978633  0
H  H6  1  0.90650656  0.45549490  0.04654311  1  0  0.115632  0.128117  0  1.011688  0
H  H7  1  0.09354354  0.54449259  0.95343533  1  0  0.115726  0.128234  0  1.011723  0
H  H8  1  0.09835809  0.34265728  0.02657386  1  0  0.120834  0.128078  0  0.992093  0
H  H9  1  0.90166066  0.65730447  0.97342080  1  0  0.120835  0.128067  0  0.992143  0
H  H10  1  0.29988869  0.60300801  0.09027851  1  0  0.112435  0.105225  0  0.971176  0
H  H11  1  0.70012516  0.39701081  0.90972403  1  0  0.112321  0.105024  0  0.971112  0
H  H12  1  0.38770372  0.43745216  0.10636487  1  0  0.112928  0.091375  0  0.987773  0
H  H13  1  0.61235133  0.56257766  0.89363421  1  0  0.112911  0.091288  0  0.98768  0
H  H14  1  0.57583954  0.66935405  0.19887566  1  0  0.106432  0.119507  0  0.973578  0
H  H15  1  0.42419378  0.33065904  0.80112889  1  0  0.106444  0.119561  0  0.973276  0
H  H16  1  0.45079348  0.54476520  0.25504058  1  0  0.099922  0.114403  0  0.992888  0
H  H17  1  0.54925754  0.45522001  0.74494118  1  0  0.099991  0.114308  0  0.993127  0
H  H18  1  0.39732236  0.79956778  0.31520364  1  0  0.107531  0.105244  0  0.980469  0
H  H19  1  0.60271326  0.20041622  0.68479869  1  0  0.107518  0.105351  0  0.980521  0
H  H20  1  0.01295440  0.76492165  0.29574848  1  0  0.104619  0.115217  0  0.977332  0
H  H21  1  0.98708926  0.23507798  0.70425283  1  0  0.104563  0.115105  0  0.977338  0
H  H22  1  0.10595571  0.60716798  0.31637478  1  0  0.094943  0.101293  0  0.998624  0
H  H23  1  0.89406033  0.39280160  0.68362256  1  0  0.0949  0.101093  0  0.998802  0
H  H24  1  0.84238746  0.52247366  0.20525598  1  0  0.118463  0.114975  0  0.996649  0
H  H25  1  0.15765078  0.47753493  0.79474811  1  0  0.118473  0.114985  0  0.996774  0
H  H26  1  0.96238405  0.65425175  0.14949562  1  0  0.110293  0.096389  0  0.989137  0
H  H27  1  0.03762912  0.34573797  0.85050526  1  0  0.110295  0.096419  0  0.989135  0
H  H28  1  0.22763830  0.49947815  0.42306542  1  0  0.109988  0.11302  0  0.997391  0
H  H29  1  0.77234200  0.50048487  0.57693600  1  0  0.110055  0.113016  0  0.997317  0
H  H30  1  0.28101888  0.28040628  0.62307577  1  0  0.113145  0.118167  0  1.015825  0
H  H31  1  0.71891743  0.71961178  0.37693271  1  0  0.113216  0.118218  0  1.015711  0
H  H32  1  0.26124269  0.02869178  0.37454031  1  0  0.112955  0.11738  0  1.010865  0
H  H33  1  0.73871826  0.97127132  0.62546502  1  0  0.112935  0.117327  0  1.010993  0
Pb  Pb34  1  0.72329927  0.17652863  0.27505914  1  0  0.659022  1.179003  0  1.859935  0
Pb  Pb35  1  0.27675410  0.82350681  0.72493878  1  0  0.658953  1.178899  0  1.860191  0
Pb  Pb36  1  0.28650286  0.06280263  0.09520761  1  0  0.637013  1.125472  0  1.928118  0
Pb  Pb37  1  0.71346568  0.93725127  0.90478048  1  0  0.636998  1.12542  0  1.92827  0
C  C38  1  0.98923750  0.37931443  0.07087689  1  0  -0.07585  -0.369807  0  3.810198  0
C  C39  1  0.01079220  0.62066292  0.92912097  1  0  -0.076002  -0.369699  0  3.810889  0
C  C40  1  0.31301343  0.53140782  0.13443700  1  0  -0.057739  -0.054685  0  3.768036  0
C  C41  1  0.68703297  0.46860979  0.86555572  1  0  -0.057555  -0.054295  0  3.767822  0
C  C42  1  0.42701377  0.61966296  0.21386307  1  0  -0.158304  -0.185437  0  3.880159  0
C  C43  1  0.57302848  0.38034914  0.78612295  1  0  -0.158436  -0.185349  0  3.880576  0
C  C44  1  0.31443675  0.74418163  0.25620359  1  0  -0.089948  -0.119256  0  3.866504  0
C  C45  1  0.68558448  0.25584285  0.74378778  1  0  -0.089841  -0.119541  0  3.86756  0
C  C46  1  0.10038075  0.67674168  0.27093105  1  0  -0.163381  -0.188303  0  3.9146  0
C  C47  1  0.89965368  0.32325015  0.72907159  1  0  -0.163263  -0.187832  0  3.914839  0
C  C48  1  0.98649641  0.58319618  0.19263079  1  0  -0.063416  -0.065037  0  3.753506  0
C  C49  1  0.01353362  0.41680239  0.80737199  1  0  -0.063373  -0.06499  0  3.753322  0
C  C50  1  0.32099544  0.86310058  0.20472156  1  0  0.209195  0.575153  0  4.139439  0
C  C51  1  0.67899233  0.13691401  0.79526874  1  0  0.209188  0.575142  0  4.139206  0
C  C52  1  0.24609567  0.26407182  0.38966061  1  0  -0.015822  -0.054494  0  4.008504  0
C  C53  1  0.75383399  0.73589710  0.61033896  1  0  -0.015607  -0.054289  0  4.007977  0
C  C54  1  0.24119561  0.39878464  0.44519847  1  0  -0.062764  -0.070907  0  3.902093  0
C  C55  1  0.75871604  0.60116418  0.55480443  1  0  -0.062992  -0.070916  0  3.901704  0
C  C56  1  0.25939266  0.40628305  0.52945212  1  0  -0.01369  -0.032639  0  3.971798  0
C  C57  1  0.74058564  0.59371022  0.47054926  1  0  -0.013637  -0.032934  0  3.972024  0
C  C58  1  0.27042922  0.27613729  0.55756028  1  0  -0.064631  -0.081277  0  3.891434  0
C  C59  1  0.72952095  0.72385045  0.44245019  1  0  -0.064881  -0.081321  0  3.891796  0
C  C60  1  0.26615956  0.13949281  0.50231186  1  0  -0.018872  -0.050126  0  3.990979  0
C  C61  1  0.73378870  0.86048606  0.49768976  1  0  -0.018697  -0.049861  0  3.991252  0
C  C62  1  0.25928010  0.13393927  0.41787692  1  0  -0.065115  -0.089716  0  3.899218  0
C  C63  1  0.74071170  0.86603491  0.58212240  1  0  -0.065237  -0.089928  0  3.899556  0
C  C64  1  0.23598192  0.26164539  0.29996642  1  0  0.23175  0.590963  0  4.198043  0
C  C65  1  0.76399015  0.73833340  0.70003077  1  0  0.231722  0.591047  0  4.198372  0
C  C66  1  0.26762887  0.55209510  0.58953507  1  0  0.209022  0.564667  0  4.233235  0
C  C67  1  0.73237438  0.44789021  0.41046514  1  0  0.209105  0.564895  0  4.233061  0
C  C68  1  0.27108022  0.00483947  0.53703266  1  0  0.233909  0.5897  0  4.118889  0
C  C69  1  0.72887820  0.99514494  0.46296977  1  0  0.233785  0.589549  0  4.119014  0
N  N70  1  0.10231694  0.46562820  0.14915753  1  0  -0.343529  0.019671  0  3.547154  0
N  N71  1  0.89772909  0.53439492  0.85084541  1  0  -0.343629  0.019265  0  3.547634  0
O  O72  1  0.67784721  0.26311525  0.14971967  1  0  -0.35519  -0.756327  0  2.244047  0
O  O73  1  0.32208611  0.73690854  0.85027629  1  0  -0.355194  -0.756179  0  2.244445  0
O  O74  1  0.93117919  0.09313691  0.09412752  1  0  -0.365313  -0.786948  0  2.246635  0
O  O75  1  0.06879188  0.90691864  0.90592481  1  0  -0.365124  -0.786678  0  2.246772  0
O  O76  1  0.68857030  0.17200393  0.99526907  1  0  -0.364371  -0.760421  0  2.219319  0
O  O77  1  0.31145333  0.82801253  0.00474052  1  0  -0.364332  -0.760317  0  2.219416  0
O  O78  1  0.15525153  0.89744859  0.18094690  1  0  -0.291888  -0.519441  0  2.176415  0
O  O79  1  0.84475334  0.10258264  0.81904981  1  0  -0.291927  -0.519459  0  2.176667  0
O  O80  1  0.49154864  0.92183740  0.18569247  1  0  -0.301052  -0.584091  0  2.210808  0
O  O81  1  0.50840686  0.07818525  0.81429232  1  0  -0.301041  -0.584087  0  2.210175  0
O  O82  1  0.09854885  0.32254356  0.27244479  1  0  -0.293617  -0.565943  0  2.302351  0
O  O83  1  0.90145075  0.67746425  0.72754547  1  0  -0.293487  -0.565914  0  2.302622  0
O  O84  1  0.36168368  0.19944790  0.25541754  1  0  -0.27419  -0.561518  0  2.381257  0
O  O85  1  0.63829046  0.80054654  0.74458093  1  0  -0.274283  -0.561647  0  2.381262  0
O  O86  1  0.24847093  0.66920865  0.56337012  1  0  -0.31113  -0.601803  0  2.29877  0
O  O87  1  0.75153119  0.33078453  0.43662623  1  0  -0.311127  -0.601813  0  2.299185  0
O  O88  1  0.29428116  0.55365162  0.66551575  1  0  -0.293955  -0.537826  0  2.19603  0
O  O89  1  0.70570055  0.44634382  0.33449013  1  0  -0.293955  -0.537876  0  2.196017  0
O  O90  1  0.29104152  0.01403672  0.61188665  1  0  -0.283716  -0.547484  0  2.219699  0
O  O91  1  0.70896945  0.98595638  0.38811340  1  0  -0.283667  -0.547439  0  2.219696  0
O  O92  1  0.25224633  0.87694604  0.48111424  1  0  -0.32611  -0.481609  0  2.291624  0
O  O93  1  0.74773581  0.12303822  0.51889031  1  0  -0.326012  -0.48145  0  2.291643  0
