# generated using pymatgen
data_CuH9C7NCl
_symmetry_space_group_name_H-M   'P 1'
_cell_length_a   4.12459098
_cell_length_b   9.97176529
_cell_length_c   9.34263925
_cell_angle_alpha   90.00001874
_cell_angle_beta   89.99851612
_cell_angle_gamma   89.99770955
_symmetry_Int_Tables_number   1
_chemical_formula_structural   CuH9C7NCl
_chemical_formula_sum   'Cu2 H18 C14 N2 Cl2'
_cell_volume   384.25764330
_cell_formula_units_Z   2
loop_
 _symmetry_equiv_pos_site_id
 _symmetry_equiv_pos_as_xyz
  1  'x, y, z'
loop_
 _atom_site_type_symbol
 _atom_site_label
 _atom_site_symmetry_multiplicity
 _atom_site_fract_x
 _atom_site_fract_y
 _atom_site_fract_z
 _atom_site_occupancy
 _atom_site_hle17_bader_spin_density
 _atom_site_hle17_ddec_charge
 _atom_site_hle17_ddec_spin_density
 _atom_site_hle17_ddec_sum_bond_order
 _atom_site_hle17_magmom
 _atom_site_hse06_10hf_bader_spin_density
 _atom_site_hse06_10hf_ddec_charge
 _atom_site_hse06_10hf_ddec_spin_density
 _atom_site_hse06_10hf_ddec_sum_bond_order
 _atom_site_hse06_10hf_magmom
 _atom_site_hse06_bader_spin_density
 _atom_site_hse06_ddec_charge
 _atom_site_hse06_ddec_spin_density
 _atom_site_hse06_ddec_sum_bond_order
 _atom_site_hse06_magmom
 _atom_site_pbe_bader_spin_density
 _atom_site_pbe_cm5_charge
 _atom_site_pbe_ddec_charge
 _atom_site_pbe_ddec_spin_density
 _atom_site_pbe_ddec_sum_bond_order
 _atom_site_pbe_magmom
Cu  Cu0  1  0.29258602  0.49999164  0.11078333  1  0  0.461249  0  1.713065  0  0  0.34742  0  2.168233  0  0  0.363399  0  2.121315  0  0  0.392035  0.339715  0  2.19691  0
Cu  Cu1  1  0.70741973  0.00000410  0.61077834  1  0  0.461274  0  1.712932  0  0  0.347458  0  2.168051  0  0  0.363472  0  2.121183  0  0  0.392041  0.339745  0  2.196714  0
H  H2  1  0.28181417  0.75546355  0.26856023  1  0  0.124503  0  0.955357  0  0  0.146281  0  1.016917  0  0  0.147437  0  1.017288  0  0  0.091073  0.145305  0  1.016771  0
H  H3  1  0.28185812  0.24450187  0.26858226  1  0  0.124576  0  0.955485  0  0  0.146411  0  1.016919  0  0  0.147556  0  1.0173  0  0  0.091148  0.145435  0  1.016768  0
H  H4  1  0.71816759  0.25548687  0.76856583  1  0  0.124573  0  0.955341  0  0  0.146416  0  1.016785  0  0  0.147556  0  1.017173  0  0  0.091136  0.14544  0  1.016636  0
H  H5  1  0.71817319  0.74454571  0.76856206  1  0  0.124448  0  0.955514  0  0  0.146264  0  1.017  0  0  0.147408  0  1.017385  0  0  0.091072  0.145287  0  1.016854  0
H  H6  1  0.61020255  0.73882446  0.14757330  1  0  0.113651  0  0.965179  0  0  0.132184  0  1.034321  0  0  0.134277  0  1.032571  0  0  0.088462  0.130777  0  1.035396  0
H  H7  1  0.61021338  0.26112870  0.14759094  1  0  0.113875  0  0.964882  0  0  0.132424  0  1.034007  0  0  0.134513  0  1.032259  0  0  0.088545  0.131005  0  1.035097  0
H  H8  1  0.38981206  0.23886928  0.64758056  1  0  0.113806  0  0.96484  0  0  0.132367  0  1.033961  0  0  0.134455  0  1.032217  0  0  0.088533  0.130945  0  1.035046  0
H  H9  1  0.38979666  0.76116497  0.64758097  1  0  0.113673  0  0.965029  0  0  0.132208  0  1.034201  0  0  0.134304  0  1.032442  0  0  0.088472  0.130799  0  1.035275  0
H  H10  1  0.65814719  0.83244593  0.31010495  1  0  0.12846  0  0.973317  0  0  0.1443  0  1.038786  0  0  0.146505  0  1.038027  0  0  0.0832  0.142347  0  1.040094  0
H  H11  1  0.65815732  0.16751952  0.31014247  1  0  0.12845  0  0.973579  0  0  0.14431  0  1.03899  0  0  0.146516  0  1.038231  0  0  0.083202  0.142359  0  1.040297  0
H  H12  1  0.34185871  0.33248252  0.81011597  1  0  0.12861  0  0.973676  0  0  0.144409  0  1.039122  0  0  0.146614  0  1.038361  0  0  0.083256  0.142458  0  1.040428  0
H  H13  1  0.34187170  0.66755458  0.81012984  1  0  0.128417  0  0.973522  0  0  0.144303  0  1.038913  0  0  0.146508  0  1.038153  0  0  0.083189  0.14235  0  1.040223  0
H  H14  1  0.91461623  0.71707367  0.50274106  1  0  0.102573  0  0.977176  0  0  0.111074  0  1.043974  0  0  0.114406  0  1.043034  0  0  0.097608  0.107851  0  1.046075  0
H  H15  1  0.91465164  0.28290280  0.50273714  1  0  0.102619  0  0.977083  0  0  0.111084  0  1.043901  0  0  0.114451  0  1.042923  0  0  0.0976  0.107802  0  1.04606  0
H  H16  1  0.08534583  0.21710529  0.00273998  1  0  0.102653  0  0.977086  0  0  0.111104  0  1.043929  0  0  0.114457  0  1.042965  0  0  0.097598  0.107822  0  1.046092  0
H  H17  1  0.08535501  0.78293389  0.00275095  1  0  0.102618  0  0.97699  0  0  0.111109  0  1.043823  0  0  0.114441  0  1.042879  0  0  0.097589  0.107872  0  1.04595  0
H  H18  1  0.07902038  0.49998503  0.62101512  1  0  0.097383  0  0.938322  0  0  0.111108  0  0.992591  0  0  0.113181  0  0.991804  0  0  0.106008  0.110004  0  0.992358  0
H  H19  1  0.92097994  0.00002282  0.12102364  1  0  0.09741  0  0.938459  0  0  0.111187  0  0.992642  0  0  0.11326  0  0.991855  0  0  0.106031  0.110085  0  0.992407  0
C  C20  1  0.65152094  0.61810688  0.33578901  1  0  0.306807  0  3.730572  0  0  0.311567  0  3.972135  0  0  0.322619  0  3.990247  0  0  0.112673  0.304152  0  3.96007  0
C  C21  1  0.65151532  0.38186185  0.33580157  1  0  0.306699  0  3.730401  0  0  0.311465  0  3.972013  0  0  0.322503  0  3.990143  0  0  0.112731  0.304058  0  3.959925  0
C  C22  1  0.34847741  0.11813434  0.83579247  1  0  0.306768  0  3.73043  0  0  0.311507  0  3.972082  0  0  0.322562  0  3.990185  0  0  0.112732  0.304101  0  3.959996  0
C  C23  1  0.34846980  0.88189580  0.83578886  1  0  0.306954  0  3.730653  0  0  0.311687  0  3.972283  0  0  0.322735  0  3.990399  0  0  0.112721  0.304277  0  3.960211  0
C  C24  1  0.54645694  0.74355973  0.26181867  1  0  -0.395495  0  3.718555  0  0  -0.475924  0  3.952083  0  0  -0.478979  0  3.957658  0  0  -0.25134  -0.473368  0  3.948362  0
C  C25  1  0.54645610  0.25638420  0.26183634  1  0  -0.395899  0  3.718544  0  0  -0.476351  0  3.952027  0  0  -0.479387  0  3.957605  0  0  -0.251591  -0.473794  0  3.948321  0
C  C26  1  0.45354575  0.24362455  0.76183911  1  0  -0.395964  0  3.718316  0  0  -0.476389  0  3.951868  0  0  -0.47943  0  3.95745  0  0  -0.251619  -0.473829  0  3.948159  0
C  C27  1  0.45353808  0.75643245  0.76183527  1  0  -0.395454  0  3.718636  0  0  -0.475947  0  3.952206  0  0  -0.478994  0  3.957786  0  0  -0.251362  -0.47339  0  3.94848  0
C  C28  1  0.84085482  0.62023572  0.45954416  1  0  -0.180112  0  3.702471  0  0  -0.194697  0  3.943576  0  0  -0.204908  0  3.965439  0  0  -0.092168  -0.188156  0  3.930178  0
C  C29  1  0.84084213  0.37973668  0.45955566  1  0  -0.179965  0  3.702802  0  0  -0.194548  0  3.943933  0  0  -0.204782  0  3.965775  0  0  -0.092149  -0.187958  0  3.930566  0
C  C30  1  0.15913616  0.12026332  0.95954873  1  0  -0.179979  0  3.702809  0  0  -0.194565  0  3.943995  0  0  -0.204792  0  3.965847  0  0  -0.09214  -0.187974  0  3.93064  0
C  C31  1  0.15916512  0.87977076  0.95955050  1  0  -0.180242  0  3.702561  0  0  -0.194846  0  3.943713  0  0  -0.205052  0  3.965573  0  0  -0.092174  -0.188294  0  3.93033  0
C  C32  1  0.93408981  0.49998061  0.52333328  1  0  0.025561  0  3.710295  0  0  0.007068  0  3.956146  0  0  0.014233  0  3.973661  0  0  -0.068112  0.002255  0  3.9436  0
C  C33  1  0.06588707  0.00002660  0.02334313  1  0  0.025456  0  3.710278  0  0  0.006973  0  3.956081  0  0  0.014136  0  3.973593  0  0  -0.068113  0.002163  0  3.943538  0
N  N34  1  0.55591400  0.49997996  0.27671029  1  0  -0.412274  0  3.389882  0  0  -0.331631  0  3.668205  0  0  -0.35008  0  3.676251  0  0  -0.381962  -0.320745  0  3.662783  0
N  N35  1  0.44405548  0.00002287  0.77670836  1  0  -0.412334  0  3.390065  0  0  -0.33167  0  3.668393  0  0  -0.350136  0  3.676477  0  0  -0.381974  -0.320779  0  3.662956  0
Cl  Cl36  1  0.93199965  0.50000908  0.95077674  1  0  -0.572691  0  1.196449  0  0  -0.483568  0  1.538703  0  0  -0.50348  0  1.506429  0  0  -0.306983  -0.469064  0  1.559442  0
Cl  Cl37  1  0.06802080  0.99997629  0.45076613  1  0  -0.572658  0  1.196415  0  0  -0.483554  0  1.538663  0  0  -0.503484  0  1.506431  0  0  -0.306972  -0.469055  0  1.559395  0
