# generated using pymatgen
data_Mn3H34C54(N2O3)4
_symmetry_space_group_name_H-M   'P 1'
_cell_length_a   9.71041148
_cell_length_b   11.66977272
_cell_length_c   11.58164353
_cell_angle_alpha   104.32316812
_cell_angle_beta   105.72495454
_cell_angle_gamma   110.34545000
_symmetry_Int_Tables_number   1
_chemical_formula_structural   Mn3H34C54(N2O3)4
_chemical_formula_sum   'Mn3 H34 C54 N8 O12'
_cell_volume   1096.34947519
_cell_formula_units_Z   1
loop_
 _symmetry_equiv_pos_site_id
 _symmetry_equiv_pos_as_xyz
  1  'x, y, z'
loop_
 _atom_site_type_symbol
 _atom_site_label
 _atom_site_symmetry_multiplicity
 _atom_site_fract_x
 _atom_site_fract_y
 _atom_site_fract_z
 _atom_site_occupancy
 _atom_site_pbe_cm5_charge
 _atom_site_pbe_ddec_charge
 _atom_site_pbe_ddec_spin_density
 _atom_site_pbe_ddec_sum_bond_order
 _atom_site_pbe_magmom
Mn  Mn0  1  0.99896291  0.49791616  0.49865353  1  0.622645  1.061837  -4.60159  2.355823  -4.414
Mn  Mn1  1  0.08182686  0.44637263  0.76512493  1  0.617049  0.675006  -1.198446  3.103174  -1.152
Mn  Mn2  1  0.90539296  0.56337198  0.24443510  1  0.620504  0.87925  -4.660563  2.396801  -4.445
H  H3  1  0.57637055  0.44411657  0.73060661  1  0.10566  0.109561  0.000326  1.020582  0.0
H  H4  1  0.42991336  0.55421990  0.27927687  1  0.108272  0.111982  -8.9e-05  1.019842  0.0
H  H5  1  0.44552356  0.71245849  0.58630946  1  0.107923  0.115272  0.0007  1.02233  0.0
H  H6  1  0.54571330  0.27719458  0.41632808  1  0.107718  0.112231  0.000464  1.019439  0.0
H  H7  1  0.90058979  0.71555360  0.62333355  1  0.110185  0.114318  0.000562  1.032766  0.0
H  H8  1  0.09060888  0.28011089  0.37167824  1  0.110408  0.113725  -0.00037  1.030879  0.0
H  H9  1  0.97567417  0.93971771  0.69808095  1  0.096426  0.096312  9.1e-05  1.044982  0.0
H  H10  1  0.01483734  0.05097200  0.30627614  1  0.098611  0.101564  9.9e-05  1.034268  0.0
H  H11  1  0.04992509  0.14462345  0.65398847  1  0.108896  0.112995  0.000156  0.998782  0.0
H  H12  1  0.94687215  0.85130389  0.35983378  1  0.107716  0.108875  -0.000999  1.002431  0.0
H  H13  1  0.56862878  0.99474679  0.38167659  1  0.097645  0.096773  2.4e-05  1.025488  0.0
H  H14  1  0.43295730  0.00845769  0.62575591  1  0.098696  0.096981  -1e-05  1.032565  0.0
H  H15  1  0.48966155  0.79144322  0.43008926  1  0.102897  0.112351  -5.4e-05  1.009139  0.0
H  H16  1  0.50468868  0.20732222  0.56985509  1  0.10223  0.108355  -8.6e-05  1.006982  0.0
H  H17  1  0.73969798  0.99356768  0.18945484  1  0.10803  0.120601  7.8e-05  1.024794  0.0
H  H18  1  0.26488442  0.00882162  0.80644849  1  0.109675  0.11989  -6e-06  1.024404  0.0
H  H19  1  0.46553395  0.85148233  0.77722095  1  0.111934  0.129716  0.000209  1.052968  0.0
H  H20  1  0.53563796  0.15185953  0.21906690  1  0.113168  0.128188  0.000144  1.030081  0.0
H  H21  1  0.56845951  0.80543257  0.18388932  1  0.12418  0.127662  -2.5e-05  1.019759  0.0
H  H22  1  0.42149299  0.19991284  0.81576804  1  0.123996  0.126111  -0.000384  1.021642  0.0
H  H23  1  0.32494286  0.36547136  0.96578778  1  0.124757  0.121508  0.000249  1.00185  0.0
H  H24  1  0.67326819  0.64253468  0.02336381  1  0.12289  0.118551  -0.00025  1.001693  0.0
H  H25  1  0.95967080  0.15962324  0.16782949  1  0.106045  0.113785  5.3e-05  1.042865  0.0
H  H26  1  0.04241980  0.84136672  0.82680287  1  0.107512  0.114256  0.000326  1.042914  0.0
H  H27  1  0.17785893  0.19031086  0.06924253  1  0.122086  0.127547  6.8e-05  1.020301  0.0
H  H28  1  0.82627793  0.81856110  0.92329894  1  0.122768  0.127183  -0.000435  1.022241  0.0
H  H29  1  0.68840923  0.01427034  0.75739921  1  0.106406  0.110121  -2e-06  1.033138  0.0
H  H30  1  0.30958012  0.98754566  0.23764044  1  0.107842  0.112493  2.2e-05  1.026502  0.0
H  H31  1  0.82861086  0.24766566  0.81098121  1  0.143395  0.111272  0.000347  1.01044  0.0
H  H32  1  0.16703015  0.75144460  0.17970027  1  0.142375  0.111975  -0.0005  1.014311  0.0
H  H33  1  0.28212850  0.72548031  0.79579436  1  0.143915  0.122579  0.001006  1.041115  0.0
H  H34  1  0.72643467  0.26554956  0.19207020  1  0.143684  0.122932  0.000333  1.022998  0.0
H  H35  1  0.28863600  0.57724371  0.09394737  1  0.120167  0.120642  0.000259  1.038815  0.0
H  H36  1  0.71136591  0.41948407  0.89887330  1  0.115465  0.110439  2.6e-05  1.049286  0.0
C  C37  1  0.49490129  0.57264944  0.65861117  1  -0.015953  -0.02698  0.000465  3.960545  -0.002
C  C38  1  0.50207824  0.41952928  0.34670039  1  -0.019065  -0.03563  0.001431  4.004791  0.001
C  C39  1  0.75249669  0.57658640  0.68234410  1  -0.023105  -0.049  0.005272  4.038448  0.001
C  C40  1  0.24870878  0.42179366  0.32140223  1  -0.018572  -0.040507  0.002762  4.011169  0.002
C  C41  1  0.68250670  0.73405353  0.60574679  1  -0.011326  0.061286  -0.001172  4.014426  -0.002
C  C42  1  0.30886140  0.25914970  0.39453347  1  -0.010541  0.055398  0.002204  4.007624  0.002
C  C43  1  0.60577304  0.52424326  0.69558036  1  -0.078159  -0.116227  0.012681  3.931506  0.007
C  C44  1  0.39612437  0.47219012  0.31124618  1  -0.074139  -0.105502  -0.008346  3.948275  -0.007
C  C45  1  0.53401265  0.67641263  0.61357127  1  -0.080224  -0.137298  0.023882  3.908135  0.014
C  C46  1  0.45915975  0.31520873  0.38931097  1  -0.076391  -0.130254  -0.007156  3.931304  -0.006
C  C47  1  0.72694441  0.85052985  0.56911591  1  -0.005514  0.073516  0.001975  3.984931  0.001
C  C48  1  0.26489835  0.14380810  0.43278612  1  -0.007158  0.073616  -0.000727  3.992656  -0.001
C  C49  1  0.81303841  0.08478095  0.51731955  1  -0.020902  -0.046611  -0.001234  3.994576  -0.002
C  C50  1  0.18655949  0.91539589  0.49466738  1  -0.021806  -0.050609  -0.001603  3.984252  -0.002
C  C51  1  0.85621385  0.20453161  0.48277886  1  0.214695  0.570226  0.0021  4.18026  0.0
C  C52  1  0.15161113  0.79812703  0.53397406  1  0.21572  0.581563  -0.008038  4.183453  -0.008
C  C53  1  0.33044571  0.51949780  0.66053140  1  0.218151  0.564682  -0.001215  4.158462  -0.004
C  C54  1  0.66248054  0.47215105  0.34109295  1  0.219781  0.582857  -0.020931  4.183887  -0.018
C  C55  1  0.78878167  0.68014542  0.63693372  1  -0.081659  -0.145499  0.012968  3.925312  0.007
C  C56  1  0.20497972  0.31538841  0.36182358  1  -0.075465  -0.131715  -0.005907  3.908561  -0.005
C  C57  1  0.88499817  0.95094091  0.62883048  1  -0.093211  -0.134441  -0.000541  3.969318  -0.001
C  C58  1  0.10770984  0.04232706  0.37618883  1  -0.092514  -0.133915  0.000318  3.956169  0.0
C  C59  1  0.92736743  0.06716535  0.60528871  1  -0.086061  -0.094444  0.001031  4.001163  0.001
C  C60  1  0.06927299  0.92913622  0.40538306  1  -0.084238  -0.092191  -0.001608  3.999494  -0.001
C  C61  1  0.65650603  0.98260886  0.45290966  1  -0.091022  -0.105251  8.8e-05  4.014702  0.0
C  C62  1  0.34266230  0.01813825  0.55436012  1  -0.090367  -0.100043  -0.000929  4.01755  -0.001
C  C63  1  0.87376464  0.52919820  0.71428720  1  0.204233  0.530125  0.008051  4.09226  0.001
C  C64  1  0.14114607  0.48481152  0.29342463  1  0.215043  0.578017  -0.025985  4.152046  -0.021
C  C65  1  0.61286014  0.86829576  0.47981386  1  -0.093305  -0.137692  -0.000452  3.965242  0.0
C  C66  1  0.38199128  0.12962390  0.52306083  1  -0.095242  -0.143204  0.000333  3.980643  0.0
C  C67  1  0.58954892  0.90445398  0.98340758  1  0.094647  0.162123  0.004135  4.001924  0.002
C  C68  1  0.41139401  0.09635681  0.01247303  1  0.097478  0.163225  -0.001086  4.015879  -0.001
C  C69  1  0.84060802  0.09550562  0.96079486  1  0.088937  0.152414  0.003688  4.016112  0.002
C  C70  1  0.16123955  0.90743030  0.03350181  1  0.091675  0.156087  -0.001222  4.032738  -0.001
C  C71  1  0.72894423  0.99291316  0.09316721  1  -0.088999  -0.160876  0.001  3.984692  0.0
C  C72  1  0.27331214  0.00853539  0.90194486  1  -0.085774  -0.149611  -0.000537  3.982422  0.0
C  C73  1  0.57445797  0.91546479  0.86324273  1  -0.090544  -0.158716  0.002342  3.971395  0.001
C  C74  1  0.42692734  0.08648043  0.13297912  1  -0.087332  -0.153765  -0.00081  3.970981  -0.001
C  C75  1  0.46907752  0.75488281  0.09056225  1  -0.002615  -0.114721  -0.000299  3.917172  0.0
C  C76  1  0.52659764  0.24603371  0.90501897  1  -0.00122  -0.112204  -0.001447  3.916909  -0.001
C  C77  1  0.19996969  0.31427590  0.94833438  1  0.007864  -0.026871  -0.003233  3.945558  -0.004
C  C78  1  0.79889556  0.69225389  0.04179231  1  0.00585  -0.023881  -0.005204  3.966994  -0.006
C  C79  1  0.85385925  0.08806783  0.08162698  1  -0.087333  -0.146716  0.000957  3.97432  0.0
C  C80  1  0.14825059  0.91352284  0.91262464  1  -0.085885  -0.145129  -0.000616  3.979157  0.0
C  C81  1  0.12929400  0.22842661  0.00044272  1  0.00454  -0.09465  -0.00239  3.902444  -0.002
C  C82  1  0.87214139  0.77846916  0.99116065  1  0.006482  -0.090328  -0.001204  3.903399  -0.001
C  C83  1  0.69920352  0.00987350  0.85209330  1  -0.089513  -0.153427  -0.000584  4.000721  -0.001
C  C84  1  0.30122660  0.99240534  0.14341698  1  -0.088264  -0.155518  -0.000333  4.002483  0.0
C  C85  1  0.94348031  0.25432267  0.86367497  1  0.153011  0.105172  -0.01504  3.860534  -0.013
C  C86  1  0.05355104  0.74735119  0.12698412  1  0.155458  0.107773  -0.016081  3.897045  -0.013
C  C87  1  0.32247147  0.71455847  0.88768209  1  0.145567  0.096249  0.011353  3.831379  0.005
C  C88  1  0.68344619  0.27863486  0.10173352  1  0.147719  0.103605  -0.017325  3.876929  -0.014
C  C89  1  0.33081194  0.64043075  0.04408949  1  0.004969  -0.030655  -0.001833  3.965623  -0.002
C  C90  1  0.66927040  0.35534613  0.94795238  1  0.000897  -0.02823  -0.005278  4.003291  -0.005
N  N91  1  0.46431788  0.80077928  0.98988382  1  -0.224184  0.01004  0.002243  3.771266  0.001
N  N92  1  0.53588326  0.19836089  0.00454763  1  -0.226554  0.009523  -0.004092  3.785321  -0.004
N  N93  1  0.96632759  0.19066105  0.94559655  1  -0.221752  0.014334  -0.002197  3.787442  -0.002
N  N94  1  0.03390745  0.81315774  0.04681988  1  -0.224366  0.013204  -0.003811  3.80678  -0.004
N  N95  1  0.08262697  0.33001120  0.86283886  1  -0.368328  -0.247072  0.011817  3.63408  0.018
N  N96  1  0.91361522  0.67384721  0.12601459  1  -0.357197  -0.297877  -0.036107  3.571929  -0.006
N  N97  1  0.24166246  0.61464520  0.91640006  1  -0.363207  -0.242659  0.012431  3.595518  0.014
N  N98  1  0.76574026  0.37512924  0.07091117  1  -0.350137  -0.30513  -0.034823  3.477202  -0.017
O  O99  1  0.95740443  0.31990591  0.57335868  1  -0.301827  -0.542729  -0.040977  2.459582  -0.024
O  O100  1  0.03431356  0.68511843  0.45108619  1  -0.310426  -0.593278  -0.07805  2.410445  -0.052
O  O101  1  0.86979408  0.44666449  0.77042198  1  -0.285839  -0.465659  -0.010626  2.255087  -0.011
O  O102  1  0.17408468  0.57760887  0.25287266  1  -0.299655  -0.539632  -0.041848  2.144348  -0.037
O  O103  1  0.99969777  0.57339339  0.68737944  1  -0.295257  -0.527472  -0.026786  2.448165  -0.006
O  O104  1  0.00998773  0.43976568  0.31283650  1  -0.316891  -0.587756  -0.072755  2.464581  -0.043
O  O105  1  0.29712713  0.45887329  0.73463921  1  -0.290517  -0.494601  0.000991  2.241406  0.001
O  O106  1  0.69119209  0.54295960  0.27449679  1  -0.314734  -0.537766  -0.050921  2.228118  -0.038
O  O107  1  0.23300456  0.54594267  0.58598293  1  -0.310011  -0.566768  -0.044209  2.459984  -0.025
O  O108  1  0.76080570  0.43682128  0.40164110  1  -0.310236  -0.575715  -0.051791  2.432158  -0.03
O  O109  1  0.79553138  0.18916685  0.36650968  1  -0.307635  -0.535039  -1.4e-05  2.147034  0.0
O  O110  1  0.23564189  0.81524100  0.64555470  1  -0.30432  -0.528412  -0.008869  2.183112  -0.01
