# generated using pymatgen
data_SrH7C11N2ClO5
_symmetry_space_group_name_H-M   'P 1'
_cell_length_a   6.64806109
_cell_length_b   12.72261571
_cell_length_c   14.29900000
_cell_angle_alpha   94.68518730
_cell_angle_beta   90.00000000
_cell_angle_gamma   90.00000000
_symmetry_Int_Tables_number   1
_chemical_formula_structural   SrH7C11N2ClO5
_chemical_formula_sum   'Sr4 H28 C44 N8 Cl4 O20'
_cell_volume   1205.37857726
_cell_formula_units_Z   4
loop_
 _symmetry_equiv_pos_site_id
 _symmetry_equiv_pos_as_xyz
  1  'x, y, z'
loop_
 _atom_site_type_symbol
 _atom_site_label
 _atom_site_symmetry_multiplicity
 _atom_site_fract_x
 _atom_site_fract_y
 _atom_site_fract_z
 _atom_site_occupancy
 _atom_site_hle17_bader_spin_density
 _atom_site_hle17_ddec_charge
 _atom_site_hle17_ddec_spin_density
 _atom_site_hle17_ddec_sum_bond_order
 _atom_site_hle17_magmom
 _atom_site_hse06_10hf_bader_spin_density
 _atom_site_hse06_10hf_ddec_charge
 _atom_site_hse06_10hf_ddec_spin_density
 _atom_site_hse06_10hf_ddec_sum_bond_order
 _atom_site_hse06_10hf_magmom
 _atom_site_hse06_bader_spin_density
 _atom_site_hse06_ddec_charge
 _atom_site_hse06_ddec_spin_density
 _atom_site_hse06_ddec_sum_bond_order
 _atom_site_hse06_magmom
 _atom_site_pbe_bader_charge
 _atom_site_pbe_bader_spin_density
 _atom_site_pbe_cm5_charge
 _atom_site_pbe_ddec_charge
 _atom_site_pbe_ddec_spin_density
 _atom_site_pbe_ddec_sum_bond_order
 _atom_site_pbe_magmom
Sr  Sr0  1  0.05966552  0.66700007  0.96857490  1  0  1.620973  0  1.103133  0  0  1.484494  0  1.456135  0  0  1.52522  0  1.411443  0  1.679295  0  0.971976  1.454461  0  1.487795  0
Sr  Sr1  1  0.55966243  0.83300029  0.03142590  1  0  1.620954  0  1.103125  0  0  1.484471  0  1.45612  0  0  1.525197  0  1.411429  0  1.679302  0  0.971981  1.45444  0  1.487769  0
Sr  Sr2  1  0.94033733  0.33300122  0.03142548  1  0  1.62094  0  1.103191  0  0  1.484453  0  1.456201  0  0  1.52518  0  1.411507  0  1.679308  0  0.971963  1.454452  0  1.48781  0
Sr  Sr3  1  0.44033891  0.16700021  0.96857442  1  0  1.620949  0  1.103144  0  0  1.484467  0  1.456143  0  0  1.525191  0  1.411451  0  1.679265  0  0.971976  1.45444  0  1.48779  0
H  H4  1  0.43064436  0.99919058  0.37844624  1  0  0.094784  0  0.963005  0  0  0.103012  0  1.032094  0  0  0.10646  0  1.02956  0  0.077969  0  0.098995  0.100508  0  1.034011  0
H  H5  1  0.93064879  0.50080821  0.62155444  1  0  0.094813  0  0.963025  0  0  0.103026  0  1.032131  0  0  0.106476  0  1.029598  0  0.077998  0  0.098987  0.100522  0  1.03405  0
H  H6  1  0.56934796  0.00081072  0.62155483  1  0  0.094846  0  0.963044  0  0  0.103054  0  1.032142  0  0  0.106504  0  1.029612  0  0.077963  0  0.098997  0.100551  0  1.034059  0
H  H7  1  0.06935255  0.49919151  0.37844442  1  0  0.094814  0  0.963016  0  0  0.103043  0  1.032107  0  0  0.106489  0  1.029573  0  0.078  0  0.099012  0.100539  0  1.034025  0
H  H8  1  0.30823273  0.30104171  0.27371500  1  0  0.12903  0  0.963417  0  0  0.135914  0  1.029554  0  0  0.139676  0  1.027038  0  0.129811  0  0.113022  0.133187  0  1.031389  0
H  H9  1  0.80822512  0.19895737  0.72628403  1  0  0.128976  0  0.963448  0  0  0.135854  0  1.029607  0  0  0.139623  0  1.027094  0  0.129696  0  0.113002  0.133118  0  1.031467  0
H  H10  1  0.69177463  0.69895722  0.72628101  1  0  0.128974  0  0.963421  0  0  0.135874  0  1.029542  0  0  0.139634  0  1.027042  0  0.129726  0  0.113  0.133134  0  1.031412  0
H  H11  1  0.19177622  0.80104314  0.27371629  1  0  0.128993  0  0.96343  0  0  0.135863  0  1.029604  0  0  0.13964  0  1.027074  0  0.129676  0  0.113002  0.133129  0  1.03146  0
H  H12  1  0.68245913  0.08337945  0.48911934  1  0  0.083696  0  0.974653  0  0  0.090827  0  1.042278  0  0  0.093494  0  1.041133  0  0.090899  0  0.092073  0.088929  0  1.043172  0
H  H13  1  0.18246222  0.41661805  0.51088027  1  0  0.08372  0  0.974614  0  0  0.090859  0  1.042231  0  0  0.093529  0  1.04108  0  0.090852  0  0.092087  0.08896  0  1.043126  0
H  H14  1  0.31753168  0.91662185  0.51088243  1  0  0.083659  0  0.974601  0  0  0.090814  0  1.042213  0  0  0.093484  0  1.041062  0  0.090827  0  0.092076  0.088916  0  1.043107  0
H  H15  1  0.81753461  0.58338009  0.48911708  1  0  0.083621  0  0.974569  0  0  0.09076  0  1.042202  0  0  0.093428  0  1.041055  0  0.090868  0  0.092053  0.088862  0  1.043097  0
H  H16  1  0.74765107  0.27652140  0.49275889  1  0  0.09996  0  0.997803  0  0  0.107264  0  1.065624  0  0  0.108773  0  1.067342  0  0.096523  0  0.096186  0.106162  0  1.064504  0
H  H17  1  0.24764815  0.22347609  0.50724072  1  0  0.09996  0  0.997792  0  0  0.107266  0  1.065611  0  0  0.108774  0  1.067331  0  0.096524  0  0.09618  0.106163  0  1.064489  0
H  H18  1  0.25233823  0.72347990  0.50724358  1  0  0.099984  0  0.99773  0  0  0.107313  0  1.065543  0  0  0.108822  0  1.067262  0  0.09649  0  0.096192  0.10621  0  1.064423  0
H  H19  1  0.75233815  0.77652126  0.49275308  1  0  0.09995  0  0.997862  0  0  0.107301  0  1.065645  0  0  0.108802  0  1.067372  0  0.096577  0  0.096181  0.106199  0  1.064524  0
H  H20  1  0.17080168  0.62150991  0.74288967  1  0  0.400329  0  0.874525  0  0  0.371393  0  0.953997  0  0  0.379472  0  0.942376  0  0.605419  0  0.2943  0.365647  0  0.962269  0
H  H21  1  0.67080310  0.87849125  0.25711118  1  0  0.400344  0  0.874487  0  0  0.371429  0  0.953963  0  0  0.37951  0  0.942339  0  0.605405  0  0.294316  0.365684  0  0.962234  0
H  H22  1  0.82919966  0.37849060  0.25710995  1  0  0.400328  0  0.874555  0  0  0.37139  0  0.954  0  0  0.37947  0  0.942378  0  0.605424  0  0.294301  0.365645  0  0.96227  0
H  H23  1  0.32919824  0.12150926  0.74289053  1  0  0.400378  0  0.874436  0  0  0.371468  0  0.953904  0  0  0.379546  0  0.942283  0  0.605418  0  0.294327  0.365722  0  0.962176  0
H  H24  1  0.34107238  0.94844178  0.21639940  1  0  0.325277  0  0.905953  0  0  0.304647  0  0.971355  0  0  0.313404  0  0.963843  0  0.561836  0  0.317676  0.298437  0  0.976766  0
H  H25  1  0.84106778  0.55155780  0.78360064  1  0  0.325297  0  0.90597  0  0  0.304663  0  0.971379  0  0  0.313419  0  0.963867  0  0.56185  0  0.317681  0.298454  0  0.97679  0
H  H26  1  0.65892896  0.05155873  0.78360162  1  0  0.325287  0  0.905955  0  0  0.304666  0  0.971346  0  0  0.313423  0  0.963834  0  0.561841  0  0.317663  0.298455  0  0.976761  0
H  H27  1  0.15893205  0.44844192  0.21640032  1  0  0.325273  0  0.905958  0  0  0.304641  0  0.971394  0  0  0.313397  0  0.963883  0  0.561856  0  0.317656  0.29843  0  0.97681  0
H  H28  1  0.03031711  0.72231508  0.76542594  1  0  0.397266  0  0.918111  0  0  0.354879  0  1.004089  0  0  0.366678  0  0.987113  0  0.624493  0  0.284114  0.346581  0  1.016002  0
H  H29  1  0.53032004  0.77768529  0.23457486  1  0  0.397285  0  0.918101  0  0  0.3549  0  1.004067  0  0  0.366698  0  0.987092  0  0.624486  0  0.284134  0.346602  0  1.015981  0
H  H30  1  0.96968273  0.27768622  0.23457444  1  0  0.397247  0  0.918154  0  0  0.35485  0  1.00414  0  0  0.366648  0  0.987164  0  0.62452  0  0.284094  0.34655  0  1.016055  0
H  H31  1  0.46968281  0.22231364  0.76542604  1  0  0.397315  0  0.918074  0  0  0.354929  0  1.004031  0  0  0.366727  0  0.987056  0  0.624509  0  0.284143  0.346631  0  1.015945  0
C  C32  1  0.05871938  0.88318758  0.08719304  1  0  0.666053  0  3.944979  0  0  0.618227  0  4.238309  0  0  0.653665  0  4.227346  0  1.599903  0  0.225699  0.594103  0  4.245052  0
C  C33  1  0.55871929  0.61681121  0.91280764  1  0  0.666048  0  3.944766  0  0  0.618173  0  4.238176  0  0  0.65361  0  4.227216  0  1.599967  0  0.225665  0.59405  0  4.244909  0
C  C34  1  0.94128196  0.11681214  0.91280722  1  0  0.666085  0  3.944882  0  0  0.618261  0  4.238214  0  0  0.653699  0  4.227251  0  1.599962  0  0.225716  0.59414  0  4.244959  0
C  C35  1  0.44128355  0.38318930  0.08719127  1  0  0.666052  0  3.944798  0  0  0.61816  0  4.238241  0  0  0.653596  0  4.227283  0  1.599935  0  0.225663  0.594033  0  4.244978  0
C  C36  1  0.93693333  0.06979911  0.16532798  1  0  0.037021  0  3.687105  0  0  0.027408  0  3.953493  0  0  0.028122  0  3.969277  0  0.445168  0  0.099667  0.026876  0  3.943032  0
C  C37  1  0.43692890  0.43020074  0.83467250  1  0  0.036859  0  3.687133  0  0  0.027245  0  3.953521  0  0  0.027954  0  3.969302  0  0.445129  0  0.099597  0.026719  0  3.943053  0
C  C38  1  0.06306651  0.93020060  0.83467368  1  0  0.036975  0  3.68711  0  0  0.027387  0  3.953468  0  0  0.028102  0  3.969251  0  0.445158  0  0.099657  0.026856  0  3.943008  0
C  C39  1  0.56307094  0.56979819  0.16532771  1  0  0.036923  0  3.687127  0  0  0.027308  0  3.95354  0  0  0.028016  0  3.969324  0  0.445126  0  0.099607  0.026778  0  3.943071  0
C  C40  1  0.05655784  0.97902197  0.15334036  1  0  0.00548  0  3.657711  0  0  -0.010708  0  3.924363  0  0  -0.012587  0  3.94054  0  0.372118  0  0.096339  -0.009657  0  3.913728  0
C  C41  1  0.55655174  0.52097761  0.84665968  1  0  0.005611  0  3.657458  0  0  -0.010567  0  3.924133  0  0  -0.012449  0  3.940312  0  0.372111  0  0.096384  -0.009522  0  3.913503  0
C  C42  1  0.94344350  0.02097854  0.84665996  1  0  0.005504  0  3.657626  0  0  -0.010681  0  3.924286  0  0  -0.01256  0  3.940462  0  0.372153  0  0.096342  -0.009641  0  3.913665  0
C  C43  1  0.44344659  0.47902290  0.15333993  1  0  0.00548  0  3.657533  0  0  -0.010681  0  3.924238  0  0  -0.012562  0  3.940419  0  0.372107  0  0.096341  -0.009626  0  3.913597  0
C  C44  1  0.20077583  0.09763406  0.25444722  1  0  0.337562  0  3.74534  0  0  0.301784  0  4.017384  0  0  0.315621  0  4.030996  0  0.978496  0  0.227288  0.292793  0  4.007879  0
C  C45  1  0.70077274  0.40236580  0.74555256  1  0  0.337505  0  3.745268  0  0  0.301699  0  4.017396  0  0  0.315532  0  4.031017  0  0.978505  0  0.227235  0.292705  0  4.00789  0
C  C46  1  0.79922551  0.90236724  0.74555316  1  0  0.337459  0  3.745346  0  0  0.301648  0  4.017466  0  0  0.315482  0  4.031084  0  0.978521  0  0.227241  0.292656  0  4.007958  0
C  C47  1  0.29923161  0.59763471  0.25444845  1  0  0.337431  0  3.745189  0  0  0.301673  0  4.017291  0  0  0.315508  0  4.030906  0  0.978276  0  0.227234  0.29268  0  4.007785  0
C  C48  1  0.34963578  0.14519519  0.32019973  1  0  0.021406  0  3.781202  0  0  0.043455  0  4.016114  0  0  0.041985  0  4.037071  0  -0.005023  0  0.001838  0.044179  0  4.001986  0
C  C49  1  0.84963269  0.35480467  0.67980075  1  0  0.021327  0  3.781259  0  0  0.043335  0  4.016278  0  0  0.041867  0  4.037236  0  -0.005037  0  0.001834  0.044071  0  4.002133  0
C  C50  1  0.65036406  0.85480611  0.67979994  1  0  0.021439  0  3.781269  0  0  0.043512  0  4.016187  0  0  0.042045  0  4.037142  0  -0.005013  0  0.001873  0.044247  0  4.00204  0
C  C51  1  0.15036865  0.64519505  0.32019951  1  0  0.021422  0  3.781177  0  0  0.043409  0  4.016202  0  0  0.04194  0  4.037162  0  -0.005032  0  0.001844  0.044144  0  4.002056  0
C  C52  1  0.45815614  0.08375089  0.38013731  1  0  -0.104355  0  3.722583  0  0  -0.135191  0  3.978145  0  0  -0.135962  0  3.996905  0  -0.016992  0  -0.093132  -0.134475  0  3.965449  0
C  C53  1  0.95815606  0.41624818  0.61986381  1  0  -0.104329  0  3.722659  0  0  -0.135136  0  3.978248  0  0  -0.135911  0  3.997012  0  -0.016997  0  -0.093122  -0.134422  0  3.965546  0
C  C54  1  0.54184219  0.91625119  0.61986382  1  0  -0.104524  0  3.722669  0  0  -0.13537  0  3.978285  0  0  -0.136146  0  3.997049  0  -0.016994  0  -0.093182  -0.134657  0  3.965591  0
C  C55  1  0.04184378  0.58375233  0.38013581  1  0  -0.10437  0  3.722675  0  0  -0.135194  0  3.978265  0  0  -0.135961  0  3.997022  0  -0.017008  0  -0.093113  -0.134478  0  3.965562  0
C  C56  1  0.38671576  0.25399083  0.32225860  1  0  -0.138631  0  3.670581  0  0  -0.171007  0  3.913791  0  0  -0.172098  0  3.931183  0  0.063648  0  -0.085126  -0.170028  0  3.902159  0
C  C57  1  0.88670966  0.24600903  0.67774118  1  0  -0.138463  0  3.670487  0  0  -0.170827  0  3.913739  0  0  -0.171925  0  3.931121  0  0.063665  0  -0.085114  -0.169855  0  3.902104  0
C  C58  1  0.61328859  0.74600968  0.67773962  1  0  -0.138485  0  3.670495  0  0  -0.170877  0  3.913738  0  0  -0.171967  0  3.931128  0  0.063539  0  -0.085109  -0.169902  0  3.902095  0
C  C59  1  0.11329017  0.75399148  0.32225844  1  0  -0.13857  0  3.670449  0  0  -0.170926  0  3.913718  0  0  -0.172029  0  3.9311  0  0.063672  0  -0.085138  -0.169952  0  3.902083  0
C  C60  1  0.59969966  0.13095003  0.44214508  1  0  -0.050543  0  3.774881  0  0  -0.060327  0  4.025786  0  0  -0.062151  0  4.04591  0  -0.074849  0  -0.092444  -0.05916  0  4.012139  0
C  C61  1  0.09970125  0.36904825  0.55785598  1  0  -0.050683  0  3.774967  0  0  -0.060475  0  4.025887  0  0  -0.062299  0  4.046011  0  -0.074722  0  -0.092494  -0.059308  0  4.012242  0
C  C62  1  0.40029265  0.86905047  0.55785594  1  0  -0.050393  0  3.774677  0  0  -0.060186  0  4.025564  0  0  -0.062009  0  4.045687  0  -0.074782  0  -0.092413  -0.05902  0  4.011918  0
C  C63  1  0.90029708  0.63095068  0.44214142  1  0  -0.05048  0  3.77491  0  0  -0.060263  0  4.025826  0  0  -0.062086  0  4.045948  0  -0.07472  0  -0.092458  -0.059097  0  4.012179  0
C  C64  1  0.53006282  0.29872942  0.38417007  1  0  0.131377  0  3.803876  0  0  0.147946  0  4.062594  0  0  0.150342  0  4.082976  0  -0.053889  0  0.01253  0.146038  0  4.048909  0
C  C65  1  0.03005989  0.20126965  0.61583035  1  0  0.131351  0  3.803808  0  0  0.147933  0  4.06252  0  0  0.15032  0  4.082918  0  -0.05382  0  0.012554  0.146027  0  4.048834  0
C  C66  1  0.46993702  0.70127187  0.61582681  1  0  0.13136  0  3.803958  0  0  0.147924  0  4.0627  0  0  0.150309  0  4.083098  0  -0.053643  0  0.012577  0.146018  0  4.049011  0
C  C67  1  0.96993994  0.79872770  0.38416904  1  0  0.131386  0  3.803813  0  0  0.147955  0  4.062534  0  0  0.150352  0  4.082917  0  -0.05374  0  0.012556  0.146048  0  4.048848  0
C  C68  1  0.63726250  0.23899095  0.44489041  1  0  -0.128954  0  3.746598  0  0  -0.151691  0  3.989459  0  0  -0.152788  0  4.00926  0  0.008551  0  -0.098493  -0.150755  0  3.976011  0
C  C69  1  0.13726107  0.26100733  0.55510996  1  0  -0.12884  0  3.746515  0  0  -0.151564  0  3.989352  0  0  -0.152659  0  4.009156  0  0.008551  0  -0.098428  -0.150629  0  3.975904  0
C  C70  1  0.36273734  0.76101035  0.55510996  1  0  -0.129031  0  3.746652  0  0  -0.151795  0  3.989519  0  0  -0.15289  0  4.009323  0  0.008553  0  -0.09852  -0.150859  0  3.976072  0
C  C71  1  0.86273575  0.73899239  0.44488821  1  0  -0.12894  0  3.746752  0  0  -0.151717  0  3.989585  0  0  -0.152809  0  4.009391  0  0.008419  0  -0.098457  -0.150782  0  3.976138  0
C  C72  1  0.74599194  0.09813642  0.11819308  1  0  0.673632  0  3.928322  0  0  0.625911  0  4.223102  0  0  0.660274  0  4.21251  0  1.606528  0  0.220646  0.602483  0  4.229709  0
C  C73  1  0.24599202  0.40185713  0.88180765  1  0  0.673802  0  3.928037  0  0  0.626099  0  4.222785  0  0  0.660477  0  4.212158  0  1.606553  0  0.2207  0.602671  0  4.229392  0
C  C74  1  0.25400789  0.90186487  0.88180730  1  0  0.673538  0  3.928412  0  0  0.625803  0  4.223201  0  0  0.660165  0  4.212611  0  1.606518  0  0.220595  0.60238  0  4.229797  0
C  C75  1  0.75401082  0.59814101  0.11819320  1  0  0.673651  0  3.928297  0  0  0.625906  0  4.22311  0  0  0.660287  0  4.212482  0  1.606565  0  0.220642  0.60248  0  4.229713  0
N  N76  1  0.03029304  0.14281823  0.22725336  1  0  -0.410283  0  3.028535  0  0  -0.364447  0  3.285292  0  0  -0.379141  0  3.29789  0  -1.154695  0  -0.309148  -0.354435  0  3.276658  0
N  N77  1  0.53028694  0.35718163  0.77274642  1  0  -0.410202  0  3.028465  0  0  -0.364346  0  3.285223  0  0  -0.379039  0  3.297826  0  -1.154714  0  -0.309124  -0.354333  0  3.276585  0
N  N78  1  0.96970679  0.85718148  0.77274759  1  0  -0.410176  0  3.028459  0  0  -0.364337  0  3.285219  0  0  -0.379029  0  3.297817  0  -1.154679  0  -0.309123  -0.354325  0  3.276582  0
N  N79  1  0.46971440  0.64281809  0.22725384  1  0  -0.410144  0  3.028406  0  0  -0.364292  0  3.285153  0  0  -0.378986  0  3.297755  0  -1.154515  0  -0.309107  -0.35428  0  3.276516  0
N  N80  1  0.22001904  0.99925446  0.21113149  1  0  -0.347874  0  3.443834  0  0  -0.291  0  3.67868  0  0  -0.306843  0  3.693383  0  -1.282178  0  -0.363728  -0.280335  0  3.668794  0
N  N81  1  0.72001745  0.50074670  0.78886866  1  0  -0.347974  0  3.443715  0  0  -0.291083  0  3.678578  0  0  -0.306924  0  3.693281  0  -1.282124  0  -0.363721  -0.280412  0  3.668692  0
N  N82  1  0.77998381  0.00074684  0.78886958  1  0  -0.347903  0  3.443821  0  0  -0.291045  0  3.678706  0  0  -0.306887  0  3.693408  0  -1.282238  0  -0.363716  -0.280376  0  3.668821  0
N  N83  1  0.27998539  0.49925381  0.21113166  1  0  -0.347848  0  3.44361  0  0  -0.291005  0  3.678489  0  0  -0.306846  0  3.693191  0  -1.282103  0  -0.363675  -0.280339  0  3.668604  0
Cl  Cl84  1  0.58126722  0.43291129  0.38505132  1  0  -0.097426  0  1.420909  0  0  -0.074631  0  1.663188  0  0  -0.079775  0  1.660589  0  -0.230205  0  0.027806  -0.070855  0  1.665157  0
Cl  Cl85  1  0.08125978  0.06708699  0.61494905  1  0  -0.097458  0  1.420909  0  0  -0.074654  0  1.663202  0  0  -0.079794  0  1.660607  0  -0.230227  0  0.027787  -0.070876  0  1.66517  0
Cl  Cl86  1  0.41873562  0.56709001  0.61494905  1  0  -0.097431  0  1.420924  0  0  -0.074624  0  1.66321  0  0  -0.079763  0  1.660616  0  -0.230153  0  0.027791  -0.070846  0  1.665178  0
Cl  Cl87  1  0.91873404  0.93291194  0.38504836  1  0  -0.097459  0  1.420889  0  0  -0.074646  0  1.663184  0  0  -0.079791  0  1.660585  0  -0.230194  0  0.027784  -0.070868  0  1.665152  0
O  O88  1  0.92633324  0.86956309  0.02369639  1  0  -0.71138  0  2.047728  0  0  -0.652325  0  2.291038  0  0  -0.679199  0  2.282579  0  -1.205071  0  -0.387623  -0.63338  0  2.29627  0
O  O89  1  0.42633333  0.63043413  0.97630697  1  0  -0.711343  0  2.047439  0  0  -0.652283  0  2.290797  0  0  -0.679146  0  2.282323  0  -1.205136  0  -0.387608  -0.633366  0  2.2961  0
O  O90  1  0.07366960  0.13043821  0.97630398  1  0  -0.711398  0  2.047645  0  0  -0.652356  0  2.290977  0  0  -0.679222  0  2.282503  0  -1.205064  0  -0.387651  -0.63342  0  2.296222  0
O  O91  1  0.57366801  0.36956638  0.02369405  1  0  -0.711357  0  2.04751  0  0  -0.652293  0  2.290886  0  0  -0.679155  0  2.282411  0  -1.205086  0  -0.387625  -0.633388  0  2.296206  0
O  O92  1  0.20414373  0.81848306  0.09616146  1  0  -0.731362  0  1.97287  0  0  -0.669089  0  2.213003  0  0  -0.695554  0  2.202771  0  -1.219646  0  -0.396772  -0.650267  0  2.219402  0
O  O93  1  0.70414365  0.68151415  0.90383981  1  0  -0.731329  0  1.972867  0  0  -0.669042  0  2.213032  0  0  -0.695505  0  2.202797  0  -1.219656  0  -0.396734  -0.650231  0  2.219456  0
O  O94  1  0.79585610  0.18151744  0.90383886  1  0  -0.731373  0  1.972876  0  0  -0.669099  0  2.21301  0  0  -0.695564  0  2.202779  0  -1.219712  0  -0.396764  -0.65027  0  2.219392  0
O  O95  1  0.29585919  0.31848478  0.09615969  1  0  -0.731325  0  1.972911  0  0  -0.669026  0  2.213078  0  0  -0.695491  0  2.202844  0  -1.219635  0  -0.396722  -0.650211  0  2.21949  0
O  O96  1  0.71518145  0.19568058  0.11016575  1  0  -0.72941  0  2.0285  0  0  -0.670073  0  2.265205  0  0  -0.696888  0  2.256869  0  -1.205232  0  -0.381455  -0.651155  0  2.270346  0
O  O97  1  0.21518154  0.30431770  0.88983321  1  0  -0.729436  0  2.028561  0  0  -0.670114  0  2.265285  0  0  -0.696931  0  2.256934  0  -1.205342  0  -0.381448  -0.651194  0  2.270421  0
O  O98  1  0.28481989  0.80431914  0.88983451  1  0  -0.729362  0  2.028521  0  0  -0.670043  0  2.26526  0  0  -0.696859  0  2.256924  0  -1.205201  0  -0.38143  -0.651111  0  2.270373  0
O  O99  1  0.78481980  0.69568044  0.11016623  1  0  -0.729376  0  2.028662  0  0  -0.670043  0  2.265396  0  0  -0.696861  0  2.257046  0  -1.205288  0  -0.381422  -0.651114  0  2.270515  0
O  O100  1  0.62321028  0.02706918  0.08653683  1  0  -0.726306  0  1.970782  0  0  -0.670434  0  2.214997  0  0  -0.696376  0  2.204678  0  -1.230911  0  -0.382531  -0.652165  0  2.221672  0
O  O101  1  0.12320585  0.47292753  0.91346762  1  0  -0.726418  0  1.970502  0  0  -0.670567  0  2.21474  0  0  -0.696519  0  2.204413  0  -1.230874  0  -0.382584  -0.652294  0  2.221412  0
O  O102  1  0.37679106  0.97293133  0.91346279  1  0  -0.726266  0  1.970789  0  0  -0.670383  0  2.215008  0  0  -0.696325  0  2.204691  0  -1.23095  0  -0.382512  -0.652117  0  2.221679  0
O  O103  1  0.87680001  0.52707062  0.08653603  1  0  -0.72637  0  1.97066  0  0  -0.670477  0  2.214864  0  0  -0.696429  0  2.204538  0  -1.2309  0  -0.382558  -0.652206  0  2.221535  0
O  O104  1  0.04435579  0.64406493  0.77266161  1  0  -0.847325  0  1.917293  0  0  -0.796214  0  2.118171  0  0  -0.813803  0  2.087248  0  -1.262003  0  -0.589699  -0.783682  0  2.139808  0
O  O105  1  0.54435571  0.85593465  0.22733913  1  0  -0.847358  0  1.917284  0  0  -0.796287  0  2.118069  0  0  -0.813877  0  2.087146  0  -1.261985  0  -0.589726  -0.783758  0  2.139705  0
O  O106  1  0.95564555  0.35593558  0.22733940  1  0  -0.847292  0  1.917355  0  0  -0.796164  0  2.11824  0  0  -0.813754  0  2.087315  0  -1.262028  0  -0.589683  -0.783638  0  2.139877  0
O  O107  1  0.45564563  0.14406507  0.77266043  1  0  -0.847407  0  1.917225  0  0  -0.796345  0  2.118007  0  0  -0.813933  0  2.087086  0  -1.262017  0  -0.589745  -0.783816  0  2.139644  0
