# generated using pymatgen
data_NiH27C34N3O8
_symmetry_space_group_name_H-M   'P 1'
_cell_length_a   11.13462369
_cell_length_b   16.79723167
_cell_length_c   19.70724770
_cell_angle_alpha   89.99949666
_cell_angle_beta   100.42395261
_cell_angle_gamma   90.00019174
_symmetry_Int_Tables_number   1
_chemical_formula_structural   NiH27C34N3O8
_chemical_formula_sum   'Ni4 H108 C136 N12 O32'
_cell_volume   3625.03157294
_cell_formula_units_Z   4
loop_
 _symmetry_equiv_pos_site_id
 _symmetry_equiv_pos_as_xyz
  1  'x, y, z'
loop_
 _atom_site_type_symbol
 _atom_site_label
 _atom_site_symmetry_multiplicity
 _atom_site_fract_x
 _atom_site_fract_y
 _atom_site_fract_z
 _atom_site_occupancy
 _atom_site_pbe_bader_charge
 _atom_site_pbe_bader_spin_density
 _atom_site_pbe_cm5_charge
 _atom_site_pbe_ddec_charge
 _atom_site_pbe_ddec_spin_density
 _atom_site_pbe_ddec_sum_bond_order
 _atom_site_pbe_magmom
Ni  Ni0  1  0.71713553  0.26894251  0.27248379  1  1.170187  1.550125  0.66878  0.724368  1.780599  2.63339  1.535
Ni  Ni1  1  0.28285687  0.76894430  0.22751424  1  1.170049  1.550125  0.668778  0.724335  1.780607  2.633575  1.535
Ni  Ni2  1  0.28285736  0.73105868  0.72750643  1  1.170108  1.550121  0.668785  0.72437  1.780599  2.633259  1.535
Ni  Ni3  1  0.71714765  0.23105987  0.77248892  1  1.170061  1.550126  0.668868  0.724501  1.780605  2.633412  1.535
H  H4  1  0.28749641  0.17218893  0.55303557  1  0.629776  1.2e-05  0.340974  0.380493  1.6e-05  0.859873  0.0
H  H5  1  0.71247618  0.67220309  0.94697142  1  0.629359  1.2e-05  0.340926  0.380465  1.6e-05  0.859809  0.0
H  H6  1  0.71249545  0.82780988  0.44696012  1  0.62955  1.2e-05  0.340976  0.380525  1.6e-05  0.85993  0.0
H  H7  1  0.28754739  0.32778560  0.05304040  1  0.628887  1.2e-05  0.340954  0.38055  1.6e-05  0.859762  0.0
H  H8  1  0.69033941  0.18436126  0.16216797  1  0.620563  0.000485  0.318308  0.397319  0.000387  0.883901  0.0
H  H9  1  0.30967934  0.68436434  0.33782898  1  0.620478  0.000486  0.318366  0.397372  0.000387  0.883994  0.0
H  H10  1  0.30967819  0.81564053  0.83782240  1  0.62033  0.000486  0.318286  0.397269  0.000387  0.884074  0.0
H  H11  1  0.69033801  0.31564161  0.66217353  1  0.620369  0.000486  0.318291  0.397274  0.000387  0.884026  0.0
H  H12  1  0.83438280  0.21176163  0.18841979  1  0.642354  -1e-05  0.282201  0.368819  0.000111  0.982988  0.0
H  H13  1  0.16562754  0.71176229  0.31158923  1  0.642452  -1e-05  0.282188  0.368766  0.000112  0.983075  0.0
H  H14  1  0.16562915  0.78824195  0.81157808  1  0.642561  -1e-05  0.282219  0.36885  0.000111  0.983013  0.0
H  H15  1  0.83438966  0.28823950  0.68842088  1  0.642334  -1e-05  0.282222  0.368786  0.000111  0.983003  0.0
H  H16  1  0.81067489  0.76327849  0.22430818  1  0.035421  0.000119  0.092088  0.091754  2.1e-05  1.058083  0.0
H  H17  1  0.18932581  0.26328443  0.27568622  1  0.035446  0.000119  0.092117  0.091827  2.1e-05  1.05789  0.0
H  H18  1  0.18932433  0.23672152  0.77568577  1  0.035484  0.000119  0.092098  0.091841  2.1e-05  1.057832  0.0
H  H19  1  0.81067150  0.73671141  0.72431158  1  0.035638  0.000119  0.092093  0.09191  2.1e-05  1.057689  0.0
H  H20  1  0.62093058  0.83995126  0.18020052  1  0.059861  0.000145  0.092888  0.096839  3.3e-05  1.034871  0.0
H  H21  1  0.37906298  0.33995717  0.31979507  1  0.060014  0.000145  0.092917  0.096968  3.3e-05  1.034885  0.0
H  H22  1  0.37906879  0.16004458  0.81978584  1  0.059835  0.000145  0.092964  0.097013  3.3e-05  1.034715  0.0
H  H23  1  0.62093503  0.66002617  0.68021347  1  0.060176  0.000145  0.092952  0.096959  3.3e-05  1.034589  0.0
H  H24  1  0.63161272  0.98925208  0.17594223  1  0.084596  9.5e-05  0.094873  0.096451  2.5e-05  1.017356  0.0
H  H25  1  0.36838293  0.48925852  0.32405958  1  0.084554  9.5e-05  0.094943  0.096466  2.5e-05  1.017297  0.0
H  H26  1  0.36838101  0.01074554  0.82405164  1  0.084537  9.5e-05  0.094914  0.096445  2.5e-05  1.017409  0.0
H  H27  1  0.63163512  0.51072481  0.67595367  1  0.084434  9.5e-05  0.09492  0.096418  2.5e-05  1.017332  0.0
H  H28  1  0.82553040  0.05814630  0.21221224  1  0.068126  0.000618  0.095361  0.112829  0.00047  1.085845  0.0
H  H29  1  0.17446410  0.55815020  0.28779064  1  0.067888  0.000618  0.095497  0.113049  0.00047  1.085633  0.0
H  H30  1  0.17446412  0.94185013  0.78778780  1  0.067919  0.000618  0.095458  0.113012  0.00047  1.085638  0.0
H  H31  1  0.82555851  0.44184385  0.71222311  1  0.068308  0.000618  0.095433  0.113015  0.00047  1.085679  0.0
H  H32  1  0.97785646  0.09654408  0.28547198  1  0.06086  3.7e-05  0.100662  0.075004  -5.9e-05  1.007106  0.0
H  H33  1  0.02213547  0.59654781  0.21452729  1  0.060808  3.7e-05  0.100644  0.074972  -5.9e-05  1.007131  0.0
H  H34  1  0.02213992  0.90345651  0.71452674  1  0.060685  3.7e-05  0.100659  0.075011  -5.9e-05  1.007082  0.0
H  H35  1  0.97787776  0.40345993  0.78549812  1  0.059741  3.7e-05  0.100643  0.074963  -5.9e-05  1.006972  0.0
H  H36  1  0.02644450  0.09024480  0.20443268  1  0.094316  0.000119  0.107531  0.08555  6.5e-05  0.963801  0.0
H  H37  1  0.97355647  0.59024979  0.29557117  1  0.094184  0.000119  0.107546  0.085571  6.5e-05  0.963722  0.0
H  H38  1  0.97354912  0.90975223  0.79556676  1  0.094371  0.000119  0.107555  0.085638  6.5e-05  0.963637  0.0
H  H39  1  0.02644125  0.40974307  0.70445155  1  0.0947  0.000119  0.107538  0.085374  6.5e-05  0.963867  0.0
H  H40  1  0.12605193  0.10268169  0.39421195  1  0.095947  -6e-05  0.098899  0.100585  -0.000104  1.049173  0.0
H  H41  1  0.87393711  0.60270092  0.10579558  1  0.095745  -6e-05  0.098893  0.10062  -0.000104  1.049396  0.0
H  H42  1  0.87394266  0.89732070  0.60578505  1  0.095928  -6e-05  0.098947  0.10067  -0.000104  1.049134  0.0
H  H43  1  0.12608445  0.39730384  0.89422515  1  0.096266  -6e-05  0.098916  0.100574  -0.000104  1.049337  0.0
H  H44  1  0.48352506  0.18805457  0.37802549  1  0.140255  0.000117  0.104557  0.104263  6.9e-05  1.056542  0.0
H  H45  1  0.51646127  0.68805975  0.12199075  1  0.140161  0.000117  0.104576  0.104232  6.9e-05  1.05653  0.0
H  H46  1  0.51647486  0.81192996  0.62197920  1  0.140485  0.000117  0.104561  0.104231  6.9e-05  1.056575  0.0
H  H47  1  0.48355880  0.31193430  0.87801307  1  0.139807  0.000117  0.10461  0.104302  6.9e-05  1.056528  0.0
H  H48  1  0.24175981  0.10705558  0.19699803  1  0.111819  3.5e-05  0.109376  0.112039  -9e-06  1.001104  0.0
H  H49  1  0.75824470  0.60705883  0.30301368  1  0.11223  3.5e-05  0.109295  0.111914  -9e-06  1.000999  0.0
H  H50  1  0.75823572  0.89294502  0.80299704  1  0.112111  3.5e-05  0.109436  0.112134  -9e-06  1.001088  0.0
H  H51  1  0.24176495  0.39295368  0.69700728  1  0.11211  3.5e-05  0.109449  0.112125  -9e-06  1.001196  0.0
H  H52  1  0.70731269  0.09713128  0.30518964  1  0.141386  0.002183  0.123012  0.101473  0.00076  0.997321  0.001
H  H53  1  0.29269484  0.59713402  0.19480777  1  0.141175  0.002183  0.123058  0.101437  0.000759  0.997518  0.001
H  H54  1  0.29269200  0.90287170  0.69480542  1  0.141421  0.002183  0.123053  0.1014  0.00076  0.997415  0.001
H  H55  1  0.70731887  0.40287312  0.80519385  1  0.141505  0.002183  0.122988  0.10131  0.00076  0.997449  0.001
H  H56  1  0.81364205  0.00060195  0.39162394  1  0.083551  0.001143  0.106648  0.110923  0.000544  1.017593  0.0
H  H57  1  0.18635870  0.50060356  0.10837954  1  0.083389  0.001143  0.106674  0.110982  0.000544  1.017528  0.0
H  H58  1  0.18636264  0.99940163  0.60837112  1  0.083582  0.001142  0.106709  0.111048  0.000544  1.017591  0.0
H  H59  1  0.81363738  0.49939822  0.89163386  1  0.083516  0.001142  0.106633  0.110926  0.000544  1.017553  0.0
H  H60  1  0.01694488  0.19957559  0.49446147  1  0.078193  0.001081  0.112604  0.125916  0.000518  0.989362  0.0
H  H61  1  0.98303530  0.69957229  0.00554387  1  0.077881  0.001081  0.112582  0.125967  0.000518  0.989344  0.0
H  H62  1  0.98304328  0.80043573  0.50553636  1  0.077933  0.001081  0.112555  0.125924  0.000518  0.989231  0.0
H  H63  1  0.01694614  0.30042831  0.99446947  1  0.07809  0.001081  0.112624  0.125867  0.000518  0.989355  0.0
H  H64  1  0.90669743  0.28672773  0.39991896  1  0.104122  0.002076  0.126921  0.105944  0.000771  0.97641  0.001
H  H65  1  0.09329311  0.78672625  0.10008330  1  0.104197  0.002077  0.126887  0.105957  0.000772  0.976351  0.001
H  H66  1  0.09330640  0.71327823  0.60007346  1  0.103896  0.002077  0.126984  0.106099  0.000772  0.976339  0.001
H  H67  1  0.90669477  0.21327554  0.89992871  1  0.104125  0.002077  0.126959  0.106051  0.000772  0.97636  0.001
H  H68  1  0.72458126  0.44698902  0.29239537  1  0.131101  0.002321  0.117902  0.092291  0.000813  1.007633  0.002
H  H69  1  0.27540819  0.94699159  0.20759086  1  0.131258  0.002321  0.117973  0.092272  0.000813  1.007622  0.002
H  H70  1  0.27541717  0.55301218  0.70759241  1  0.131413  0.00232  0.117988  0.09229  0.000812  1.007699  0.002
H  H71  1  0.72458384  0.05301139  0.79239623  1  0.131082  0.002321  0.117914  0.092253  0.000813  1.007691  0.002
H  H72  1  0.63187108  0.54490289  0.36469854  1  0.165517  0.000998  0.10392  0.122933  0.000471  1.053934  0.001
H  H73  1  0.36812460  0.04490175  0.13528934  1  0.165274  0.000998  0.103884  0.122951  0.000471  1.053907  0.001
H  H74  1  0.36813910  0.45510307  0.63529609  1  0.165467  0.000998  0.103876  0.122896  0.000471  1.053941  0.001
H  H75  1  0.63187029  0.95509468  0.86469247  1  0.165441  0.000998  0.103947  0.122898  0.000471  1.054215  0.001
H  H76  1  0.53037792  0.57183471  0.45690410  1  0.076997  0.000143  0.110713  0.116208  0.000114  0.992113  0.0
H  H77  1  0.46961623  0.07182761  0.04307225  1  0.076487  0.000143  0.110671  0.116325  0.000114  0.992289  0.0
H  H78  1  0.46962595  0.42817065  0.54308579  1  0.076519  0.000143  0.110758  0.116348  0.000114  0.992154  0.0
H  H79  1  0.53037328  0.92815751  0.95690390  1  0.076787  0.000143  0.11075  0.116325  0.000114  0.991999  0.0
H  H80  1  0.54276918  0.34323263  0.48417172  1  0.112286  0.001089  0.110735  0.126767  0.000522  1.007127  0.001
H  H81  1  0.45721366  0.84322985  0.01581152  1  0.112174  0.001089  0.110733  0.126795  0.000522  1.006971  0.001
H  H82  1  0.45721567  0.65677154  0.51580901  1  0.112047  0.001089  0.110768  0.126857  0.000522  1.006816  0.001
H  H83  1  0.54277202  0.15675765  0.98417335  1  0.112409  0.001089  0.110676  0.126683  0.000522  1.007196  0.001
H  H84  1  0.63066183  0.25670697  0.40526317  1  0.068494  0.00252  0.117248  0.086557  0.000924  1.023177  0.002
H  H85  1  0.36931523  0.75670318  0.09472263  1  0.068742  0.002519  0.117202  0.086555  0.000923  1.023024  0.002
H  H86  1  0.36931572  0.74329958  0.59471625  1  0.068672  0.002521  0.117203  0.086557  0.000924  1.022986  0.002
H  H87  1  0.63067665  0.24328730  0.90527256  1  0.06871  0.002519  0.117243  0.086577  0.000923  1.023164  0.002
H  H88  1  0.79087116  0.33657820  0.14677309  1  0.115037  0.001798  0.118731  0.087144  0.000534  1.042592  0.001
H  H89  1  0.20911688  0.83657912  0.35322345  1  0.114867  0.001798  0.118705  0.087233  0.000535  1.042489  0.001
H  H90  1  0.20911632  0.66343074  0.85321300  1  0.114984  0.001798  0.118676  0.087099  0.000535  1.04258  0.001
H  H91  1  0.79088494  0.16342982  0.64677789  1  0.114764  0.001798  0.118727  0.087276  0.000534  1.042427  0.001
H  H92  1  0.71095748  0.42974514  0.05280194  1  0.088601  0.001003  0.107345  0.112827  0.000458  1.005779  0.0
H  H93  1  0.28903710  0.92973395  0.44720020  1  0.088531  0.001004  0.107384  0.112907  0.000458  1.005692  0.0
H  H94  1  0.28902529  0.57027451  0.94719125  1  0.08961  0.001003  0.107421  0.112993  0.000458  1.005554  0.0
H  H95  1  0.71097019  0.07026844  0.55280173  1  0.088934  0.001003  0.107375  0.112923  0.000458  1.005653  0.0
H  H96  1  0.40167831  0.53161165  0.03920629  1  0.056496  4.1e-05  0.103706  0.100668  4.5e-05  1.011917  0.0
H  H97  1  0.59831529  0.03160468  0.46079262  1  0.056625  4.1e-05  0.103654  0.10058  4.5e-05  1.01176  0.0
H  H98  1  0.59830532  0.46839788  0.96078952  1  0.056777  4.1e-05  0.103635  0.100491  4.5e-05  1.011605  0.0
H  H99  1  0.40169649  0.96839235  0.53921386  1  0.056744  4.1e-05  0.103649  0.100543  4.5e-05  1.011708  0.0
H  H100  1  0.38286506  0.44946245  0.14067650  1  0.075693  0.00112  0.104221  0.107473  0.000529  1.020763  0.0
H  H101  1  0.61711962  0.94946361  0.35931985  1  0.075857  0.00112  0.104207  0.107342  0.000529  1.020917  0.0
H  H102  1  0.61711763  0.55054351  0.85932023  1  0.076119  0.00112  0.104202  0.107315  0.000529  1.020933  0.0
H  H103  1  0.38288764  0.05053401  0.64068411  1  0.076116  0.00112  0.104185  0.107342  0.000529  1.020918  0.0
H  H104  1  0.47591780  0.35233656  0.23043308  1  0.136063  0.001925  0.117047  0.084842  0.000608  1.033306  0.001
H  H105  1  0.52406762  0.85234559  0.26955951  1  0.136059  0.001926  0.117023  0.084827  0.000608  1.033252  0.001
H  H106  1  0.52407684  0.64766523  0.76956139  1  0.136549  0.001927  0.117009  0.084747  0.000609  1.033249  0.001
H  H107  1  0.47593335  0.14766037  0.73043869  1  0.136065  0.001925  0.117009  0.084782  0.000608  1.033349  0.001
H  H108  1  0.05045979  0.07050230  0.54686469  1  0.094747  8.8e-05  0.107617  0.109875  8e-05  0.996725  0.0
H  H109  1  0.94952251  0.57049549  0.95314665  1  0.083015  8.6e-05  0.107635  0.109942  8e-05  0.996616  0.0
H  H110  1  0.94952636  0.92950782  0.45314206  1  0.095039  8.8e-05  0.10764  0.109948  8e-05  0.996584  0.0
H  H111  1  0.05046620  0.42949975  0.04686900  1  0.094533  8.8e-05  0.107548  0.109756  8e-05  0.996771  0.0
C  C112  1  0.03841022  0.81532472  0.25948574  1  1.58877  -0.001038  0.206954  0.596781  -0.001502  4.187377  -0.001
C  C113  1  0.96158316  0.31533273  0.24051560  1  1.588067  -0.00103  0.20695  0.596864  -0.001501  4.187459  -0.001
C  C114  1  0.96159060  0.18466993  0.74051955  1  1.588456  -0.001035  0.207076  0.597176  -0.001501  4.187234  -0.001
C  C115  1  0.03841876  0.68467025  0.75948067  1  1.587625  -0.001029  0.207023  0.597017  -0.001502  4.186974  -0.001
C  C116  1  0.92586819  0.86597402  0.24155127  1  -0.044212  0.005748  -0.032856  -0.137548  0.003349  3.960793  0.004
C  C117  1  0.07413361  0.36597631  0.25844755  1  -0.044419  0.00575  -0.032822  -0.137498  0.003351  3.960814  0.004
C  C118  1  0.07413000  0.13402539  0.75844815  1  -0.044369  0.005746  -0.032756  -0.137404  0.003348  3.960748  0.004
C  C119  1  0.92587556  0.63401893  0.74155255  1  -0.044011  0.005749  -0.032808  -0.137397  0.00335  3.960376  0.004
C  C120  1  0.81320662  0.82804334  0.22169961  1  -0.037887  0.002803  -0.098416  -0.093958  0.001501  4.013749  0.002
C  C121  1  0.18678507  0.32804806  0.27829638  1  -0.037703  0.0028  -0.098417  -0.093979  0.001499  4.013677  0.002
C  C122  1  0.18679077  0.17195130  0.77829466  1  -0.037809  0.002802  -0.098536  -0.094199  0.0015  4.013504  0.002
C  C123  1  0.81320758  0.67194242  0.72170549  1  -0.037741  0.002802  -0.098453  -0.094289  0.0015  4.013343  0.002
C  C124  1  0.70679386  0.87119867  0.19761153  1  0.012659  0.000141  -0.116945  -0.126499  -3e-05  4.058073  0.0
C  C125  1  0.29320706  0.37120457  0.30238615  1  0.012481  0.000141  -0.11701  -0.126776  -2.9e-05  4.057785  0.0
C  C126  1  0.29320998  0.12879299  0.80238039  1  0.012856  0.000141  -0.11689  -0.126691  -3e-05  4.057657  0.0
C  C127  1  0.70680013  0.62877936  0.69762085  1  0.011873  0.000141  -0.11688  -0.126549  -3e-05  4.057478  0.0
C  C128  1  0.71325695  0.95402961  0.19459342  1  -0.13145  0.002307  -0.100578  -0.061476  0.001287  4.04125  0.001
C  C129  1  0.28673322  0.45403784  0.30540349  1  -0.131333  0.002303  -0.100633  -0.061291  0.001284  4.041462  0.001
C  C130  1  0.28673769  0.04596028  0.80540105  1  -0.131392  0.002305  -0.100643  -0.061229  0.001285  4.041302  0.001
C  C131  1  0.71327391  0.54594609  0.69460655  1  -0.13076  0.002305  -0.100642  -0.061234  0.001286  4.040802  0.001
C  C132  1  0.82445044  0.99348732  0.21531958  1  0.01563  0.000361  -0.123838  -0.244648  0.000181  4.036058  0.0
C  C133  1  0.17555072  0.49349135  0.28468229  1  0.015795  0.000362  -0.12397  -0.244993  0.000182  4.036461  0.0
C  C134  1  0.17555232  0.00651031  0.78468034  1  0.015726  0.000361  -0.123943  -0.244931  0.000182  4.03639  0.0
C  C135  1  0.82446921  0.50650091  0.71532863  1  0.015732  0.000362  -0.124019  -0.24497  0.000182  4.036441  0.0
C  C136  1  0.93123422  0.95000693  0.23902467  1  0.439859  0.001544  0.079527  0.233366  0.00083  4.034262  0.001
C  C137  1  0.06876040  0.45001217  0.26097783  1  0.439183  0.001542  0.079461  0.233371  0.000829  4.0339  0.001
C  C138  1  0.06876303  0.04998771  0.76097618  1  0.439276  0.001543  0.079464  0.233239  0.00083  4.034023  0.001
C  C139  1  0.93124677  0.54998069  0.73903018  1  0.438315  0.001543  0.079467  0.233101  0.00083  4.034218  0.001
C  C140  1  0.04732488  0.07079074  0.25868319  1  0.408396  0.000187  -0.060691  -0.011559  9.6e-05  3.892338  0.0
C  C141  1  0.95266693  0.57079862  0.24131880  1  0.408676  0.000187  -0.060669  -0.011454  9.6e-05  3.892122  0.0
C  C142  1  0.95266692  0.92920867  0.74131555  1  0.408622  0.000187  -0.060671  -0.011686  9.6e-05  3.892313  0.0
C  C143  1  0.04734551  0.42920674  0.75870044  1  0.409633  0.000187  -0.060661  -0.011306  9.6e-05  3.892352  0.0
C  C144  1  0.17213391  0.09898880  0.29245035  1  0.069906  0.00079  -0.009621  0.080657  0.000438  3.968997  0.001
C  C145  1  0.82786341  0.59900033  0.20755456  1  0.069826  0.00079  -0.009699  0.080501  0.000438  3.968934  0.001
C  C146  1  0.82785791  0.90101061  0.70754787  1  0.070082  0.00079  -0.009714  0.080755  0.000438  3.969009  0.001
C  C147  1  0.17215828  0.40100682  0.79245959  1  0.069696  0.00079  -0.00974  0.080462  0.000438  3.969528  0.001
C  C148  1  0.19640296  0.11389746  0.36358143  1  -0.083052  -0.000987  -0.076378  -0.12676  -0.001076  3.908334  -0.001
C  C149  1  0.80359063  0.61390670  0.13642854  1  -0.082399  -0.000986  -0.076355  -0.126768  -0.001075  3.908533  -0.001
C  C150  1  0.80359520  0.88610016  0.63642002  1  -0.083229  -0.000987  -0.076396  -0.126926  -0.001076  3.90843  -0.001
C  C151  1  0.19643280  0.38608854  0.86358986  1  -0.082975  -0.000986  -0.0763  -0.126756  -0.001076  3.908858  -0.001
C  C152  1  0.30913210  0.14617656  0.39455685  1  -0.005612  0.000119  -0.023891  -0.052287  1.8e-05  4.023487  0.0
C  C153  1  0.69086052  0.64619003  0.10546039  1  -0.007297  0.000119  -0.02375  -0.052188  1.8e-05  4.022436  0.0
C  C154  1  0.69086335  0.85381988  0.60544278  1  -0.005362  0.000119  -0.023837  -0.052159  1.8e-05  4.023054  0.0
C  C155  1  0.30916472  0.35381116  0.89455973  1  -0.005863  0.000119  -0.023881  -0.051796  1.8e-05  4.02272  0.0
C  C156  1  0.34067315  0.17083742  0.46793086  1  1.458741  -9e-06  0.229166  0.570134  -4.1e-05  4.116626  0.0
C  C157  1  0.65930043  0.67085277  0.03208058  1  1.458018  -9e-06  0.229095  0.569894  -4.1e-05  4.116361  0.0
C  C158  1  0.65931598  0.82915425  0.53206454  1  1.458584  -9e-06  0.229137  0.570054  -4.1e-05  4.116359  0.0
C  C159  1  0.34071846  0.32914187  0.96793631  1  1.457157  -9e-06  0.228969  0.569541  -4.1e-05  4.11674  0.0
C  C160  1  0.39725646  0.16174133  0.35412273  1  -0.091726  -0.0007  -0.074286  -0.097637  -0.000901  3.941728  -0.001
C  C161  1  0.60273069  0.66174884  0.14589481  1  -0.089404  -0.0007  -0.074597  -0.097977  -0.0009  3.941791  -0.001
C  C162  1  0.60274349  0.83824676  0.64588044  1  -0.092233  -0.0007  -0.074276  -0.097665  -0.0009  3.941584  -0.001
C  C163  1  0.39728190  0.33825117  0.85411683  1  -0.090634  -0.0007  -0.074508  -0.098269  -0.000901  3.941173  -0.001
C  C164  1  0.37536289  0.14733216  0.28327157  1  0.00029  0.00853  -0.015256  -0.023287  0.004993  3.940976  0.006
C  C165  1  0.62463071  0.64734017  0.21674221  1  -0.000612  0.008528  -0.015191  -0.023051  0.004992  3.940919  0.006
C  C166  1  0.62463805  0.85266368  0.71672815  1  0.000329  0.008528  -0.01535  -0.023311  0.004992  3.940988  0.006
C  C167  1  0.37537648  0.35267293  0.78326478  1  -5.5e-05  0.008529  -0.015084  -0.022617  0.004992  3.940504  0.006
C  C168  1  0.26188961  0.11571984  0.25280259  1  -0.091568  0.000427  -0.067697  -0.124009  -4.1e-05  3.899301  0.0
C  C169  1  0.73810583  0.61572600  0.24720656  1  -0.092377  0.000427  -0.067441  -0.123732  -4.1e-05  3.898711  0.0
C  C170  1  0.73810768  0.88427659  0.74719623  1  -0.091811  0.000426  -0.0677  -0.12414  -4.1e-05  3.899262  0.0
C  C171  1  0.26190398  0.38428532  0.75280681  1  -0.091904  0.000427  -0.067798  -0.124315  -4.1e-05  3.899743  0.0
C  C172  1  0.47306460  0.17239792  0.24234904  1  1.60736  0.000724  0.196329  0.566638  0.00081  4.23927  0.001
C  C173  1  0.52692815  0.67239695  0.25766497  1  1.607759  0.000726  0.196311  0.566682  0.000812  4.239033  0.001
C  C174  1  0.52693006  0.82759732  0.75764442  1  1.607321  0.000724  0.196526  0.566867  0.000811  4.238664  0.001
C  C175  1  0.47307811  0.32760960  0.74234294  1  1.607563  0.000726  0.196284  0.566635  0.000812  4.239011  0.001
C  C176  1  0.77715377  0.11665816  0.34794025  1  0.473389  -0.004484  0.048654  0.091237  -0.005067  3.951767  -0.003
C  C177  1  0.22285005  0.61665881  0.15206168  1  0.473469  -0.004485  0.048561  0.091289  -0.005068  3.951943  -0.003
C  C178  1  0.22285547  0.88334541  0.65205581  1  0.473315  -0.004484  0.048671  0.091401  -0.005068  3.951631  -0.003
C  C179  1  0.77715160  0.38334595  0.84794776  1  0.473557  -0.004483  0.048694  0.091481  -0.005067  3.951768  -0.003
C  C180  1  0.83634427  0.06367782  0.39670200  1  -0.106442  0.004653  -0.085435  -0.185531  0.002608  3.949982  0.004
C  C181  1  0.16365385  0.56367765  0.10330376  1  -0.1064  0.004653  -0.085482  -0.185655  0.002608  3.950013  0.004
C  C182  1  0.16365943  0.93632992  0.60329700  1  -0.10678  0.004653  -0.085498  -0.185669  0.002608  3.949931  0.004
C  C183  1  0.83634041  0.43632533  0.89670894  1  -0.106567  0.004652  -0.085402  -0.185513  0.002608  3.949952  0.004
C  C184  1  0.92590630  0.09183644  0.45118922  1  0.026941  -0.00749  0.003677  0.137194  -0.008104  4.042566  -0.005
C  C185  1  0.07409000  0.59183188  0.04881969  1  0.027159  -0.007491  0.003622  0.137115  -0.008105  4.042347  -0.005
C  C186  1  0.07409454  0.90817190  0.54881506  1  0.027123  -0.007489  0.003646  0.137029  -0.008103  4.042647  -0.005
C  C187  1  0.92590056  0.40816753  0.95119514  1  0.027078  -0.00749  0.003576  0.137028  -0.008104  4.042446  -0.005
C  C188  1  0.94872822  0.17433279  0.45346430  1  0.012328  0.004235  -0.079546  -0.174435  0.002303  3.930561  0.003
C  C189  1  0.05125647  0.67432879  0.04654121  1  0.012373  0.004236  -0.079553  -0.174476  0.002303  3.930487  0.003
C  C190  1  0.05126633  0.82567615  0.54653473  1  0.011805  0.004234  -0.079539  -0.174313  0.002303  3.930483  0.003
C  C191  1  0.94872865  0.32567121  0.95347151  1  0.012107  0.004234  -0.079508  -0.174178  0.002302  3.930388  0.003
C  C192  1  0.88794503  0.22310769  0.40150082  1  0.463979  -0.005688  0.052511  0.093228  -0.006417  3.94034  -0.004
C  C193  1  0.11205264  0.72310448  0.09850269  1  0.464292  -0.005689  0.052588  0.093221  -0.006418  3.940421  -0.004
C  C194  1  0.11205969  0.77689826  0.59849272  1  0.46504  -0.005687  0.052375  0.092838  -0.006417  3.94043  -0.004
C  C195  1  0.88794165  0.27689552  0.90150900  1  0.464046  -0.005689  0.052402  0.092903  -0.006417  3.940392  -0.004
C  C196  1  0.68220342  0.42743374  0.33527176  1  0.426714  -0.003815  0.045635  0.091924  -0.004562  3.941864  -0.002
C  C197  1  0.31779418  0.92743209  0.16471651  1  0.427305  -0.003812  0.045657  0.092168  -0.004559  3.941669  -0.002
C  C198  1  0.31779592  0.57256865  0.66471662  1  0.427279  -0.003814  0.045674  0.09211  -0.004561  3.941635  -0.002
C  C199  1  0.68220699  0.07256435  0.83527157  1  0.42726  -0.003812  0.045534  0.091831  -0.00456  3.941856  -0.002
C  C200  1  0.63388801  0.48126199  0.37658145  1  -0.09841  0.005294  -0.084489  -0.183432  0.002943  3.910291  0.004
C  C201  1  0.36610334  0.98126444  0.12340625  1  -0.098244  0.005295  -0.084547  -0.183636  0.002943  3.90988  0.004
C  C202  1  0.36611495  0.51873861  0.62340885  1  -0.098697  0.005294  -0.084499  -0.183531  0.002943  3.910062  0.004
C  C203  1  0.63388787  0.01873140  0.87657669  1  -0.098752  0.005294  -0.084412  -0.183192  0.002944  3.910178  0.004
C  C204  1  0.58093485  0.45312724  0.43167756  1  -0.000634  -0.005998  0.00804  0.150595  -0.006511  4.026495  -0.004
C  C205  1  0.41906464  0.95312622  0.06831072  1  -0.000531  -0.005996  0.008249  0.151006  -0.006509  4.02632  -0.004
C  C206  1  0.41906721  0.54686919  0.56831163  1  -0.000348  -0.005996  0.00826  0.151106  -0.006509  4.02624  -0.004
C  C207  1  0.58092838  0.04686545  0.93167291  1  -0.000563  -0.005997  0.008071  0.150602  -0.00651  4.026425  -0.004
C  C208  1  0.52669797  0.50968629  0.47293173  1  0.031031  -0.002645  -0.075592  -0.114921  -0.00299  3.948159  -0.001
C  C209  1  0.47329032  0.00968353  0.02705510  1  -0.071589  -0.00266  -0.075726  -0.11557  -0.002988  3.948149  -0.001
C  C210  1  0.47330128  0.49031371  0.52706070  1  -0.072123  -0.002661  -0.075802  -0.115542  -0.002989  3.948481  -0.001
C  C211  1  0.52669266  0.99030517  0.97292694  1  0.030741  -0.002645  -0.075576  -0.114944  -0.00299  3.947818  -0.001
C  C212  1  0.58205068  0.37032009  0.44295486  1  0.011735  0.005296  -0.080188  -0.172507  0.003071  3.918871  0.004
C  C213  1  0.41793400  0.87032513  0.05703092  1  0.011626  0.005295  -0.080301  -0.172769  0.003069  3.91917  0.004
C  C214  1  0.41793779  0.62967575  0.55702778  1  0.011651  0.005297  -0.080414  -0.172992  0.00307  3.918901  0.004
C  C215  1  0.58205257  0.12966892  0.94295506  1  0.012895  0.005294  -0.080223  -0.172553  0.00307  3.919104  0.004
C  C216  1  0.63065752  0.32097772  0.39872080  1  0.451908  -0.003257  0.042036  0.081318  -0.003915  3.978136  -0.002
C  C217  1  0.36933067  0.82097921  0.10126623  1  0.451628  -0.003257  0.042127  0.081582  -0.003914  3.977807  -0.002
C  C218  1  0.36932913  0.67901990  0.60126164  1  0.452058  -0.003258  0.042169  0.08159  -0.003912  3.978034  -0.002
C  C219  1  0.63066586  0.17901722  0.89872490  1  0.450698  -0.003255  0.042019  0.081342  -0.003915  3.978101  -0.002
C  C220  1  0.69999276  0.36194301  0.14308423  1  0.456726  -0.004159  0.046132  0.094378  -0.00478  3.938891  -0.003
C  C221  1  0.29999710  0.86194588  0.35691588  1  0.456331  -0.004159  0.046087  0.094129  -0.004779  3.938943  -0.003
C  C222  1  0.29999557  0.63806235  0.85690500  1  0.454403  -0.004158  0.046129  0.09424  -0.00478  3.939148  -0.003
C  C223  1  0.70000650  0.13806187  0.64308769  1  0.456381  -0.004158  0.046115  0.094075  -0.00478  3.93887  -0.003
C  C224  1  0.65421023  0.41386905  0.09034155  1  -0.044082  0.004897  -0.078424  -0.155246  0.002798  3.918089  0.004
C  C225  1  0.34577985  0.91386254  0.40965463  1  -0.044027  0.004894  -0.078308  -0.155104  0.002797  3.918467  0.004
C  C226  1  0.34577448  0.58614703  0.90964626  1  -0.043782  0.004894  -0.078306  -0.15521  0.002797  3.918138  0.004
C  C227  1  0.65422561  0.08614163  0.59034761  1  -0.044649  0.004895  -0.078354  -0.155173  0.002797  3.918132  0.004
C  C228  1  0.53690136  0.44612544  0.08675618  1  0.023134  -0.006868  0.007415  0.148528  -0.007438  4.041603  -0.004
C  C229  1  0.46308688  0.94612035  0.41324464  1  0.023431  -0.006871  0.007256  0.14844  -0.007441  4.041636  -0.004
C  C230  1  0.46308235  0.55388706  0.91323559  1  0.023501  -0.006869  0.007048  0.148338  -0.00744  4.040886  -0.004
C  C231  1  0.53691847  0.05387906  0.58676317  1  0.023189  -0.00687  0.007266  0.148505  -0.00744  4.041392  -0.004
C  C232  1  0.48097819  0.49729184  0.03057954  1  0.026462  -0.003242  -0.07936  -0.117201  -0.003609  3.968202  -0.002
C  C233  1  0.51901564  0.99728391  0.46942303  1  0.02634  -0.003242  -0.079245  -0.117031  -0.003609  3.967859  -0.002
C  C234  1  0.51900265  0.50271828  0.96941851  1  -0.080947  -0.003261  -0.079179  -0.116732  -0.00361  3.967211  -0.002
C  C235  1  0.48099616  0.00271371  0.53058244  1  -0.08029  -0.003261  -0.07925  -0.116867  -0.003611  3.967613  -0.002
C  C236  1  0.47311936  0.42488112  0.13946464  1  -0.022904  0.00458  -0.086477  -0.186499  0.002534  3.941416  0.004
C  C237  1  0.52686708  0.92488207  0.36053157  1  -0.022699  0.004581  -0.086481  -0.186381  0.002534  3.941723  0.004
C  C238  1  0.52686806  0.57512662  0.86052448  1  -0.023007  0.00458  -0.086405  -0.186367  0.002533  3.941512  0.004
C  C239  1  0.47313832  0.07512031  0.63947371  1  -0.023034  0.00458  -0.086526  -0.186528  0.002533  3.941857  0.004
C  C240  1  0.52464435  0.37125244  0.19002277  1  0.460208  -0.004952  0.048687  0.098029  -0.005692  3.953703  -0.003
C  C241  1  0.47534197  0.87126094  0.30997281  1  0.45997  -0.004952  0.048798  0.098145  -0.005692  3.953712  -0.003
C  C242  1  0.47534844  0.62874816  0.80997251  1  0.45933  -0.004947  0.048822  0.098242  -0.005688  3.954032  -0.003
C  C243  1  0.52465712  0.12874323  0.69002772  1  0.459743  -0.00495  0.048868  0.098323  -0.00569  3.953724  -0.003
C  C244  1  0.99693520  0.04006403  0.50246532  1  -0.007397  -0.00397  -0.078296  -0.11547  -0.004418  3.95429  -0.002
C  C245  1  0.00305159  0.54005705  0.99754673  1  -0.101145  -0.003984  -0.078274  -0.115568  -0.004419  3.954162  -0.002
C  C246  1  0.00305368  0.95994549  0.49754223  1  -0.112997  -0.003987  -0.078261  -0.115458  -0.00442  3.954105  -0.002
C  C247  1  0.99693712  0.45994057  0.00246942  1  -0.007178  -0.003972  -0.07809  -0.115111  -0.00442  3.954122  -0.002
N  N248  1  0.67846372  0.34818789  0.34495887  1  -1.199744  0.083578  -0.331336  -0.226236  0.048631  3.594761  0.074
N  N249  1  0.32151987  0.84818813  0.15503304  1  -1.200003  0.083568  -0.331445  -0.226647  0.048626  3.594777  0.074
N  N250  1  0.32152102  0.65181569  0.65502742  1  -1.200371  0.083573  -0.331461  -0.226568  0.048626  3.594715  0.074
N  N251  1  0.67847477  0.15180771  0.84496143  1  -1.200158  0.083572  -0.331287  -0.226243  0.048628  3.594618  0.074
N  N252  1  0.63654286  0.33997835  0.19221306  1  -1.213867  0.071115  -0.32929  -0.230693  0.041707  3.592873  0.064
N  N253  1  0.36344337  0.83998782  0.30778326  1  -1.213698  0.071121  -0.329348  -0.230789  0.041709  3.592687  0.064
N  N254  1  0.36345369  0.66002046  0.80777756  1  -1.212811  0.071121  -0.329348  -0.230729  0.041708  3.592913  0.064
N  N255  1  0.63655389  0.16002052  0.69221758  1  -1.213299  0.071124  -0.329385  -0.230868  0.041711  3.59275  0.064
N  N256  1  0.80345365  0.19500800  0.34941671  1  -1.203877  0.069261  -0.326828  -0.209736  0.040937  3.571665  0.062
N  N257  1  0.19654489  0.69500801  0.15058507  1  -1.203869  0.069261  -0.326803  -0.209686  0.040936  3.571698  0.062
N  N258  1  0.19654651  0.80499677  0.65057582  1  -1.203562  0.069267  -0.326838  -0.209632  0.040939  3.571564  0.062
N  N259  1  0.80345678  0.30499735  0.84942386  1  -1.203666  0.069259  -0.326862  -0.209847  0.040935  3.571704  0.062
O  O260  1  0.55836057  0.21310393  0.27976750  1  -1.171175  0.069387  -0.33008  -0.585936  0.03915  2.460324  0.064
O  O261  1  0.44164145  0.71311329  0.22024569  1  -1.171182  0.069378  -0.33005  -0.585875  0.039147  2.460319  0.064
O  O262  1  0.44164042  0.78689369  0.72022969  1  -1.171235  0.069365  -0.330077  -0.585872  0.039136  2.460407  0.064
O  O263  1  0.55836944  0.28689565  0.77975917  1  -1.171221  0.069378  -0.33008  -0.585986  0.039146  2.460326  0.064
O  O264  1  0.46436089  0.15408033  0.18005396  1  -1.186841  -0.000934  -0.345831  -0.569321  -0.001966  2.082871  -0.001
O  O265  1  0.53561457  0.65406862  0.31995223  1  -1.187139  -0.000935  -0.345824  -0.569378  -0.001966  2.083001  -0.001
O  O266  1  0.53562815  0.84592087  0.81994549  1  -1.18683  -0.000934  -0.346045  -0.569606  -0.001965  2.082251  -0.001
O  O267  1  0.46437257  0.34592721  0.68005057  1  -1.187256  -0.000935  -0.345848  -0.569384  -0.001966  2.082787  -0.001
O  O268  1  0.25504901  0.15088741  0.50695085  1  -1.138308  7.1e-05  -0.338812  -0.498467  3.7e-05  2.253559  0.0
O  O269  1  0.74494276  0.65089938  0.99305534  1  -1.137426  7.1e-05  -0.338705  -0.498393  3.8e-05  2.252936  0.0
O  O270  1  0.74495937  0.84911498  0.49304258  1  -1.138093  7.1e-05  -0.339006  -0.49877  3.7e-05  2.253072  0.0
O  O271  1  0.25509270  0.34908694  0.00695675  1  -1.137034  7.1e-05  -0.338651  -0.49838  3.7e-05  2.253465  0.0
O  O272  1  0.43373690  0.20680820  0.49326364  1  -1.143056  6.5e-05  -0.285584  -0.484761  2e-05  2.119873  0.0
O  O273  1  0.56623308  0.70682004  0.00674968  1  -1.142765  6.5e-05  -0.285604  -0.484595  2e-05  2.120122  0.0
O  O274  1  0.56625308  0.79318109  0.50673489  1  -1.14305  6.5e-05  -0.285395  -0.484468  2e-05  2.120186  0.0
O  O275  1  0.43378693  0.29316627  0.99325719  1  -1.142265  6.5e-05  -0.285494  -0.484431  2e-05  2.119673  0.0
O  O276  1  0.04266402  0.98493301  0.26220103  1  -1.079559  0.000332  -0.184774  -0.206189  0.000129  2.523808  0.0
O  O277  1  0.95732884  0.48493688  0.23780254  1  -1.078691  0.000331  -0.184745  -0.206222  0.000129  2.523671  0.0
O  O278  1  0.95732408  0.01506401  0.73779984  1  -1.079029  0.000332  -0.184711  -0.206091  0.000129  2.523742  0.0
O  O279  1  0.04268657  0.51506253  0.76220535  1  -1.078821  0.000332  -0.184677  -0.205976  0.000129  2.523559  0.0
O  O280  1  0.12114885  0.82920943  0.22374060  1  -1.141645  0.076597  -0.313234  -0.55794  0.043147  2.391542  0.071
O  O281  1  0.87883829  0.32921748  0.27625438  1  -1.141208  0.07658  -0.313168  -0.557894  0.043142  2.391734  0.071
O  O282  1  0.87885021  0.17078522  0.77626146  1  -1.141639  0.076583  -0.313211  -0.55803  0.043141  2.391581  0.071
O  O283  1  0.12115913  0.67078490  0.72373837  1  -1.141013  0.076585  -0.313133  -0.557913  0.043147  2.391474  0.071
O  O284  1  0.04329400  0.76231992  0.30604412  1  -1.180727  -0.000257  -0.338543  -0.569758  -0.001241  2.117989  0.0
O  O285  1  0.95670197  0.26232423  0.19395790  1  -1.180517  -0.000256  -0.338599  -0.569948  -0.001241  2.118045  0.0
O  O286  1  0.95670309  0.23768009  0.69396483  1  -1.18042  -0.000256  -0.338709  -0.570079  -0.001241  2.118009  0.0
O  O287  1  0.04330186  0.73768411  0.80603453  1  -1.180443  -0.000256  -0.338692  -0.569991  -0.001241  2.117789  0.0
O  O288  1  0.75932522  0.18353481  0.20049830  1  -1.226493  0.066125  -0.557016  -0.728141  0.037471  2.189102  0.057
O  O289  1  0.24068056  0.68353933  0.29950639  1  -1.226564  0.066126  -0.557052  -0.728136  0.037474  2.18939  0.057
O  O290  1  0.24068403  0.81646817  0.79949776  1  -1.226449  0.066126  -0.557  -0.728109  0.037472  2.189238  0.057
O  O291  1  0.75933118  0.31646901  0.70050212  1  -1.226351  0.06613  -0.557047  -0.728078  0.037473  2.189244  0.057
