# generated using pymatgen
data_Al2H17C26O10F
_symmetry_space_group_name_H-M   'P 1'
_cell_length_a   6.72322563
_cell_length_b   11.13029278
_cell_length_c   17.93484141
_cell_angle_alpha   71.21392696
_cell_angle_beta   76.91756287
_cell_angle_gamma   73.05277746
_symmetry_Int_Tables_number   1
_chemical_formula_structural   Al2H17C26O10F
_chemical_formula_sum   'Al2 H17 C26 O10 F1'
_cell_volume   1202.34110586
_cell_formula_units_Z   1
loop_
 _symmetry_equiv_pos_site_id
 _symmetry_equiv_pos_as_xyz
  1  'x, y, z'
loop_
 _atom_site_type_symbol
 _atom_site_label
 _atom_site_symmetry_multiplicity
 _atom_site_fract_x
 _atom_site_fract_y
 _atom_site_fract_z
 _atom_site_occupancy
 _atom_site_pbe_bader_charge
 _atom_site_pbe_bader_spin_density
 _atom_site_pbe_cm5_charge
 _atom_site_pbe_ddec_charge
 _atom_site_pbe_ddec_spin_density
 _atom_site_pbe_ddec_sum_bond_order
 _atom_site_pbe_magmom
Al  Al0  1  0.50138624  0.49814078  0.49943672  1  2.507021  0  0.401221  1.643462  0  2.57599  0
Al  Al1  1  0.00236984  0.49573727  0.49980620  1  2.505347  0  0.401232  1.643209  0  2.58048  0
H  H2  1  0.20458043  0.65906703  0.44388018  1  0.613689  0  0.351949  0.43022  0  0.856057  0
H  H3  1  0.74982318  0.38090132  0.59336378  1  0.634956  0  0.352832  0.428998  0  0.856061  0
H  H4  1  0.12284123  0.10453489  0.50879759  1  0.07935  0  0.10967  0.115352  0  1.008301  0
H  H5  1  0.76058463  0.12814820  0.48999100  1  0.122127  0  0.119073  0.146648  0  0.990417  0
H  H6  1  0.25391792  0.87094453  0.50554928  1  0.135069  0  0.106141  0.114487  0  1.036799  0
H  H7  1  0.55475832  0.58372812  0.26088620  1  0.116312  0  0.109448  0.111309  0  1.01616  0
H  H8  1  0.60984120  0.58109591  0.11910207  1  0.064612  0  0.105461  0.10939  0  0.994028  0
H  H9  1  0.27510381  0.43661986  0.12828954  1  0.053027  0  0.102903  0.108983  0  1.00181  0
H  H10  1  0.72408488  0.56717275  0.86932489  1  0.066205  0  0.103081  0.109723  0  1.000613  0
H  H11  1  0.44526879  0.40816097  0.74200428  1  0.077127  0  0.104893  0.103206  0  1.021918  0
H  H12  1  0.38614531  0.41403837  0.88302331  1  0.051663  0  0.1062  0.111475  0  0.99208  0
H  H13  1  0.29575654  0.49959527  0.30241822  1  0.073994  0  0.100938  0.149653  0  1.006509  0
H  H14  1  0.26238397  0.34038777  0.33157009  1  0.060973  0  0.097001  0.13959  0  0.992986  0
H  H15  1  0.42006021  0.39519673  0.23899701  1  0.0222  0  0.087065  0.120613  0  1.016343  0
H  H16  1  0.58412001  0.61340891  0.75718941  1  0.036484  0  0.089186  0.122746  0  1.008652  0
H  H17  1  0.74838616  0.65707916  0.66435602  1  0.064798  0  0.097039  0.141511  0  0.991159  0
H  H18  1  0.69890404  0.50131741  0.69862553  1  0.061733  0  0.096401  0.135677  0  1.020878  0
C  C19  1  0.82772817  0.51433033  0.35922378  1  1.56412  0  0.270171  0.651514  0  4.080795  0
C  C20  1  0.64692466  0.72783431  0.49369443  1  1.599658  0  0.269082  0.662452  0  4.092563  0
C  C21  1  0.17596352  0.47725802  0.64183461  1  1.546426  0  0.26621  0.652202  0  4.080311  0
C  C22  1  0.35953810  0.26928241  0.50305395  1  1.597123  0  0.272633  0.639088  0  4.096118  0
C  C23  1  0.57845406  0.86761418  0.49514379  1  0.075829  0  -0.018256  -0.152718  0  3.955178  0
C  C24  1  0.43321233  0.13017972  0.50030441  1  0.01171  0  -0.00405  -0.004422  0  3.979042  0
C  C25  1  0.71746126  0.94351876  0.49048016  1  0.463623  0  0.110498  0.283243  0  4.035533  0
C  C26  1  0.29003828  0.05798988  0.50403085  1  0.038594  0  -0.083406  -0.108414  0  3.97865  0
C  C27  1  0.64858866  0.07221857  0.49346856  1  -0.057295  0  -0.088987  -0.223787  0  3.967873  0
C  C28  1  0.36287799  0.92870853  0.50194493  1  -0.091665  0  -0.078064  -0.068498  0  3.975478  0
C  C29  1  0.88016015  0.51244335  0.27418911  1  -0.016659  0  -0.015417  -0.114452  0  3.9192  0
C  C30  1  0.71200571  0.55226945  0.23059193  1  -0.043358  0  -0.081654  -0.083325  0  4.022123  0
C  C31  1  0.74238937  0.55079340  0.15187540  1  0.001175  0  -0.086638  -0.138031  0  3.966124  0
C  C32  1  0.94761221  0.50814659  0.11408765  1  0.021826  0  0.00098  0.149171  0  4.138914  0
C  C33  1  0.11661786  0.46963827  0.15769223  1  -0.008513  0  -0.086169  -0.196904  0  3.897908  0
C  C34  1  0.08816476  0.47069246  0.23716680  1  0.012906  0  0.005344  0.174908  0  3.943702  0
C  C35  1  0.98301666  0.50272559  0.03429677  1  0.149003  0  -0.041351  -0.101904  0  4.111724  0
C  C36  1  0.01239963  0.49717596  0.96558606  1  -0.496782  0  -0.043045  -0.107245  0  4.111201  0
C  C37  1  0.04954661  0.49104412  0.88590866  1  0.066681  0  6.5e-05  0.152399  0  4.13335  0
C  C38  1  0.88270412  0.53133076  0.84107430  1  -0.01509  0  -0.086367  -0.197238  0  3.893173  0
C  C39  1  0.91334536  0.52841387  0.76188570  1  0.010308  0  0.007008  0.174419  0  3.937049  0
C  C40  1  0.12139408  0.48275962  0.72626053  1  -0.028276  0  -0.01925  -0.115202  0  3.916491  0
C  C41  1  0.28748465  0.44228228  0.77097539  1  0.005887  0  -0.081708  -0.08038  0  4.028807  0
C  C42  1  0.25505869  0.44548080  0.84940638  1  -0.031655  0  -0.087614  -0.141522  0  3.96625  0
C  C43  1  0.27742414  0.42412787  0.27929974  1  -0.053607  0  -0.238066  -0.414139  0  3.954251  0
C  C44  1  0.72578706  0.57777994  0.71856438  1  -0.060673  0  -0.238516  -0.409083  0  3.956293  0
O  O45  1  0.63857869  0.51406715  0.39240570  1  -1.263059  0  -0.236295  -0.592254  0  2.344935  0
O  O46  1  0.84057862  0.67180611  0.49544552  1  -1.253309  0  -0.237498  -0.607188  0  2.383983  0
O  O47  1  0.03245598  0.47006016  0.60855735  1  -1.267369  0  -0.238786  -0.603222  0  2.369449  0
O  O48  1  0.49830611  0.32381602  0.50600873  1  -1.255023  0  -0.230465  -0.581853  0  2.35439  0
O  O49  1  0.36535983  0.47858479  0.60878862  1  -1.268444  0  -0.241689  -0.610223  0  2.342693  0
O  O50  1  0.16447688  0.32181282  0.50240087  1  -1.262746  0  -0.230446  -0.583019  0  2.351289  0
O  O51  1  0.97240916  0.51761794  0.39319154  1  -1.262668  0  -0.230893  -0.586805  0  2.379112  0
O  O52  1  0.50393570  0.67556281  0.49120062  1  -1.264397  0  -0.2346  -0.594758  0  2.332497  0
O  O53  1  0.24104997  0.56445884  0.46296519  1  -1.416837  0  -0.448099  -0.984486  0  2.167878  0
O  O54  1  0.75889313  0.43277448  0.53835794  1  -1.442256  0  -0.45054  -0.990065  0  2.190633  0
F  F55  1  0.92911165  0.89348383  0.48184421  1  -0.651875  0  -0.085854  -0.134515  0  1.393345  0
