# generated using pymatgen
data_MnH8(C3O4)2
_symmetry_space_group_name_H-M   'P 1'
_cell_length_a   6.04607210
_cell_length_b   10.42654863
_cell_length_c   13.40077184
_cell_angle_alpha   90.00000162
_cell_angle_beta   89.99996286
_cell_angle_gamma   90.00016840
_symmetry_Int_Tables_number   1
_chemical_formula_structural   MnH8(C3O4)2
_chemical_formula_sum   'Mn4 H32 C24 O32'
_cell_volume   844.78016479
_cell_formula_units_Z   4
loop_
 _symmetry_equiv_pos_site_id
 _symmetry_equiv_pos_as_xyz
  1  'x, y, z'
loop_
 _atom_site_type_symbol
 _atom_site_label
 _atom_site_symmetry_multiplicity
 _atom_site_fract_x
 _atom_site_fract_y
 _atom_site_fract_z
 _atom_site_occupancy
 _atom_site_hle17_ddec_charge
 _atom_site_hle17_ddec_spin_density
 _atom_site_hle17_ddec_sum_bond_order
 _atom_site_hle17_magmom
 _atom_site_hse06_10hf_ddec_charge
 _atom_site_hse06_10hf_ddec_spin_density
 _atom_site_hse06_10hf_ddec_sum_bond_order
 _atom_site_hse06_10hf_magmom
 _atom_site_hse06_ddec_charge
 _atom_site_hse06_ddec_spin_density
 _atom_site_hse06_ddec_sum_bond_order
 _atom_site_hse06_magmom
 _atom_site_pbe_cm5_charge
 _atom_site_pbe_ddec_charge
 _atom_site_pbe_ddec_spin_density
 _atom_site_pbe_ddec_sum_bond_order
 _atom_site_pbe_magmom
Mn  Mn0  1  0.90683013  0.83368509  0.55035624  1  1.274135  4.803297  1.651861  4.696  1.115049  4.735396  2.141929  4.565  1.173734  4.771125  2.067742  4.619  0.61357  1.068687  4.69997  2.196792  4.514
Mn  Mn1  1  0.40683244  0.66631001  0.44964793  1  1.274142  4.803293  1.651835  4.696  1.115007  4.735394  2.141976  4.565  1.173699  4.771122  2.067784  4.619  0.61356  1.068652  4.699981  2.196835  4.514
Mn  Mn2  1  0.09317140  0.33368961  0.94964529  1  1.274187  4.803276  1.651793  4.696  1.11504  4.735375  2.141944  4.565  1.173729  4.771104  2.067757  4.619  0.613581  1.068685  4.699953  2.196811  4.514
Mn  Mn3  1  0.59316731  0.16631249  0.05035373  1  1.274112  4.803293  1.651892  4.696  1.115009  4.735401  2.141962  4.565  1.173698  4.771126  2.067776  4.619  0.613543  1.068647  4.69998  2.19683  4.514
H  H4  1  0.97655112  0.08458876  0.63985554  1  0.405262  0.000576  0.892707  0.002  0.37266  0.00111  0.969503  0.003  0.385168  0.000811  0.954292  0.002  0.30406  0.363806  0.001372  0.979168  0.003
H  H5  1  0.47655482  0.41541208  0.36014486  1  0.405257  0.000577  0.892726  0.002  0.372646  0.001109  0.969541  0.003  0.385149  0.000811  0.954322  0.002  0.304065  0.363795  0.001372  0.979201  0.003
H  H6  1  0.02344584  0.58458849  0.86014449  1  0.40526  0.000576  0.892719  0.002  0.372659  0.001109  0.969518  0.003  0.385163  0.000811  0.9543  0.002  0.304077  0.36381  0.001372  0.979177  0.003
H  H7  1  0.52344785  0.91541171  0.13985531  1  0.405267  0.000575  0.892727  0.002  0.372655  0.00111  0.96954  0.003  0.385159  0.000812  0.954309  0.002  0.30408  0.363805  0.001372  0.979197  0.003
H  H8  1  0.38426123  0.19919089  0.44506610  1  0.403364  0.000143  0.885752  0.0  0.367678  0.000238  0.970007  0.0  0.380429  0.000176  0.956884  0.0  0.306026  0.358852  0.000296  0.978948  0.0
H  H9  1  0.88426703  0.30080884  0.55493433  1  0.403294  0.000143  0.885859  0.0  0.367645  0.000238  0.970059  0.0  0.380393  0.000176  0.956941  0.0  0.306022  0.358821  0.000296  0.978998  0.0
H  H10  1  0.61573207  0.69919163  0.05493332  1  0.403312  0.000142  0.885857  0.0  0.367638  0.000238  0.970089  0.0  0.380384  0.000176  0.956974  0.0  0.30601  0.358815  0.000296  0.979028  0.0
H  H11  1  0.11573434  0.80080873  0.94506645  1  0.403315  0.000142  0.885839  0.0  0.367639  0.000238  0.970072  0.0  0.380387  0.000176  0.956957  0.0  0.306025  0.358815  0.000296  0.979015  0.0
H  H12  1  0.71472387  0.89405677  0.37279037  1  0.427209  -0.00033  0.867949  0.001  0.397216  0.000542  0.92996  0.002  0.407156  0.000181  0.915451  0.002  0.304776  0.389929  0.000886  0.940613  0.002
H  H13  1  0.21472562  0.60594375  0.62721161  1  0.427184  -0.00033  0.867975  0.001  0.397205  0.000542  0.929963  0.002  0.407143  0.000181  0.915458  0.002  0.304793  0.389919  0.000886  0.940616  0.002
H  H14  1  0.28527372  0.39405586  0.12721055  1  0.427222  -0.00033  0.867929  0.001  0.397244  0.000542  0.929916  0.002  0.407183  0.000181  0.915408  0.002  0.304796  0.389958  0.000886  0.940568  0.002
H  H15  1  0.78527476  0.10594466  0.87278917  1  0.427211  -0.00033  0.86794  0.001  0.39722  0.000542  0.929943  0.002  0.40716  0.000181  0.915435  0.002  0.304784  0.389933  0.000886  0.940597  0.002
H  H16  1  0.82830944  0.02519409  0.41182168  1  0.455204  0.000103  0.833966  0.001  0.423752  0.000766  0.897232  0.002  0.434482  0.000495  0.88145  0.002  0.307929  0.415754  0.00101  0.908978  0.002
H  H17  1  0.32830980  0.47480650  0.58817951  1  0.455259  0.000103  0.833894  0.001  0.423809  0.000766  0.89715  0.002  0.434538  0.000496  0.88137  0.002  0.307992  0.415815  0.00101  0.908892  0.002
H  H18  1  0.17168959  0.52519311  0.08817848  1  0.455217  0.000102  0.833963  0.001  0.423759  0.000766  0.897234  0.002  0.434489  0.000496  0.881453  0.002  0.307949  0.415764  0.00101  0.908978  0.002
H  H19  1  0.67169079  0.97480638  0.91182202  1  0.455211  0.000102  0.833956  0.001  0.423751  0.000766  0.897234  0.002  0.43448  0.000496  0.881453  0.002  0.307938  0.415752  0.00101  0.908982  0.002
H  H20  1  0.39369201  0.89996066  0.80009790  1  0.147017  2e-05  0.949669  0.0  0.156984  0.000139  1.011099  0.0  0.160424  2.1e-05  1.009775  0.0  0.113016  0.154578  0.000279  1.012077  0.0
H  H21  1  0.89369399  0.60003825  0.19990030  1  0.147043  2.6e-05  0.949671  0.0  0.157025  0.000138  1.011098  0.0  0.160467  2e-05  1.009774  0.0  0.113025  0.154616  0.000279  1.012075  0.0
H  H22  1  0.60630489  0.39996222  0.69989990  1  0.14705  2.4e-05  0.94965  0.0  0.15703  0.000138  1.011088  0.0  0.160472  2.1e-05  1.009763  0.0  0.113025  0.15462  0.000279  1.012065  0.0
H  H23  1  0.10631038  0.10003991  0.30009837  1  0.14703  2.1e-05  0.949643  0.0  0.157008  0.000138  1.011061  0.0  0.160448  2e-05  1.009738  0.0  0.113019  0.1546  0.000279  1.012039  0.0
H  H24  1  0.13551797  0.97496417  0.81436129  1  0.144607  -0.000186  0.906052  0.0  0.15935  -6.1e-05  0.960075  0.0  0.163049  -0.000155  0.957669  0.0  0.116502  0.156497  6.5e-05  0.962212  0.0
H  H25  1  0.63551959  0.52503622  0.18563997  1  0.144629  -0.000179  0.90605  0.0  0.159381  -6.1e-05  0.960073  0.0  0.163082  -0.000155  0.957665  0.0  0.116513  0.156526  6.5e-05  0.962212  0.0
H  H26  1  0.86448263  0.47496425  0.68563874  1  0.144585  -0.000181  0.906075  0.0  0.159373  -6.1e-05  0.96006  0.0  0.163073  -0.000155  0.957652  0.0  0.116512  0.156518  6.5e-05  0.962195  0.0
H  H27  1  0.36448275  0.02503641  0.31436094  1  0.144598  -0.00019  0.906064  0.0  0.159385  -6.1e-05  0.960037  0.0  0.163084  -0.000155  0.957631  0.0  0.116522  0.156531  6.5e-05  0.962173  0.0
H  H28  1  0.29986563  0.15911812  0.74286687  1  0.142173  -0.000431  0.932277  0.0  0.149481  -0.000392  0.997104  0.0  0.152867  -0.000453  0.995506  0.0  0.11109  0.147091  -0.000296  0.998313  0.0
H  H29  1  0.79986709  0.34088242  0.25713358  1  0.142119  -0.000431  0.932334  0.0  0.14944  -0.000392  0.997147  0.0  0.152824  -0.000453  0.995554  0.0  0.111088  0.147055  -0.000296  0.998343  0.0
H  H30  1  0.70013336  0.65911709  0.75713241  1  0.142159  -0.000431  0.932305  0.0  0.14945  -0.000392  0.997141  0.0  0.152833  -0.000453  0.995546  0.0  0.111092  0.147058  -0.000296  0.998354  0.0
H  H31  1  0.20013520  0.84088437  0.24286733  1  0.14217  -0.000427  0.93232  0.0  0.149464  -0.000392  0.997161  0.0  0.152849  -0.000453  0.995566  0.0  0.111102  0.14707  -0.000296  0.998376  0.0
H  H32  1  0.54762964  0.08809770  0.69949694  1  0.144173  -3.2e-05  0.930143  0.0  0.155104  0.000159  0.990556  0.0  0.158502  8e-06  0.988779  0.0  0.114687  0.152651  0.000326  0.991995  0.0
H  H33  1  0.04762679  0.41190145  0.30050284  1  0.14415  -3.4e-05  0.930184  0.0  0.155096  0.000159  0.990575  0.0  0.158492  8e-06  0.988796  0.0  0.114674  0.152642  0.000326  0.992017  0.0
H  H34  1  0.45237395  0.58810009  0.80050309  1  0.144131  -3.2e-05  0.930242  0.0  0.155009  0.00016  0.990697  0.0  0.158401  8e-06  0.988926  0.0  0.114668  0.152563  0.000326  0.992127  0.0
H  H35  1  0.95236924  0.91190276  0.19949808  1  0.144149  -3.4e-05  0.930171  0.0  0.155096  0.000159  0.990568  0.0  0.158491  9e-06  0.988792  0.0  0.114679  0.152643  0.000326  0.992004  0.0
C  C36  1  0.12331951  0.78063332  0.76317991  1  0.754534  0.002447  3.740237  0.003  0.695187  0.00547  4.048203  0.005  0.73045  0.003754  4.039437  0.004  0.237125  0.670735  0.007464  4.053568  0.007
C  C37  1  0.62332369  0.71936801  0.23681911  1  0.754726  0.002448  3.7399  0.003  0.695304  0.005467  4.047967  0.005  0.73057  0.003753  4.039199  0.004  0.237237  0.670847  0.007462  4.053331  0.007
C  C38  1  0.87667514  0.28063245  0.73681863  1  0.754493  0.002448  3.740135  0.003  0.695165  0.00547  4.048077  0.005  0.730432  0.003754  4.03931  0.004  0.237174  0.670707  0.007463  4.053442  0.007
C  C39  1  0.37668129  0.21936822  0.26317956  1  0.754699  0.002453  3.739918  0.003  0.695299  0.005468  4.047976  0.005  0.730562  0.003754  4.039207  0.004  0.237172  0.670848  0.007462  4.053342  0.007
C  C40  1  0.23120476  0.91199135  0.76451266  1  -0.377087  -0.000163  3.619063  0.0  -0.417737  0.000524  3.859489  0.001  -0.425748  4.1e-05  3.865301  0.001  -0.164343  -0.411859  0.001085  3.855413  0.001
C  C41  1  0.73120828  0.58800920  0.23548708  1  -0.377153  -0.000191  3.619092  0.0  -0.417851  0.000525  3.859479  0.001  -0.425871  4e-05  3.865304  0.001  -0.164362  -0.411951  0.001085  3.855383  0.001
C  C42  1  0.76879221  0.41199127  0.73548663  1  -0.377096  -0.000182  3.619134  0.0  -0.417843  0.000524  3.859518  0.001  -0.425862  4.1e-05  3.865341  0.001  -0.164381  -0.411944  0.001085  3.855418  0.001
C  C43  1  0.26879603  0.08801018  0.26451159  1  -0.377191  -0.000158  3.619045  0.0  -0.41788  0.000525  3.859482  0.001  -0.425891  3.9e-05  3.865292  0.001  -0.164395  -0.412008  0.001085  3.855407  0.001
C  C44  1  0.25678028  0.97936937  0.66318864  1  0.276745  0.003309  3.582013  0.003  0.269621  0.004695  3.828083  0.004  0.273919  0.003574  3.839895  0.003  0.077268  0.266457  0.005834  3.820165  0.005
C  C45  1  0.75678166  0.52063218  0.33681109  1  0.276592  0.003306  3.582234  0.003  0.26964  0.004697  3.828078  0.004  0.273938  0.003572  3.839893  0.003  0.077261  0.266473  0.005834  3.820163  0.005
C  C46  1  0.74321868  0.47936829  0.83680991  1  0.276657  0.003308  3.582162  0.003  0.269674  0.004697  3.828067  0.004  0.273971  0.003569  3.839878  0.003  0.077311  0.266507  0.005834  3.820153  0.005
C  C47  1  0.24321900  0.02063120  0.16318907  1  0.2768  0.003312  3.582001  0.003  0.26973  0.004692  3.828007  0.004  0.274029  0.00358  3.839817  0.003  0.077306  0.266567  0.005834  3.820088  0.005
C  C48  1  0.39316784  0.89214216  0.59275089  1  0.64695  0.010592  3.795181  0.011  0.592561  0.019199  4.091634  0.018  0.627668  0.014341  4.085297  0.014  0.236427  0.567337  0.024379  4.095792  0.022
C  C49  1  0.89316956  0.60785771  0.40724806  1  0.646988  0.0106  3.795101  0.011  0.592569  0.019198  4.091525  0.018  0.627676  0.014343  4.085189  0.014  0.236414  0.567345  0.024379  4.095687  0.022
C  C50  1  0.60683068  0.39214372  0.90724840  1  0.647039  0.010593  3.794985  0.011  0.592599  0.0192  4.091445  0.018  0.627712  0.014344  4.085102  0.014  0.236431  0.567376  0.02438  4.09561  0.022
C  C51  1  0.10682990  0.10785745  0.09275136  1  0.646984  0.010595  3.795114  0.011  0.592586  0.019199  4.091562  0.018  0.627689  0.014338  4.085231  0.014  0.236461  0.567363  0.024377  4.095721  0.022
C  C52  1  0.37464963  0.10798813  0.67986601  1  -0.372361  5.6e-05  3.629757  0.0  -0.415593  0.000587  3.871936  0.001  -0.423565  0.000264  3.878213  0.0  -0.165771  -0.409953  0.000961  3.867598  0.001
C  C53  1  0.87465457  0.39201158  0.32013442  1  -0.372338  6.4e-05  3.62967  0.0  -0.4156  0.000584  3.871769  0.001  -0.423536  0.000266  3.877981  0.0  -0.165756  -0.409964  0.000961  3.867446  0.001
C  C54  1  0.62534910  0.60798889  0.82013477  1  -0.372356  5.7e-05  3.629762  0.0  -0.415522  0.000585  3.871884  0.001  -0.423467  0.000266  3.878126  0.0  -0.165739  -0.409885  0.000961  3.867546  0.001
C  C55  1  0.12534797  0.89201149  0.17986650  1  -0.372408  5e-05  3.629755  0.0  -0.415658  0.000588  3.871922  0.001  -0.423614  0.000262  3.878176  0.0  -0.165788  -0.410021  0.000961  3.867581  0.001
C  C56  1  0.37396849  0.19650255  0.59077786  1  0.747467  -5.6e-05  3.735445  0.0  0.69161  8.8e-05  4.050379  0.0  0.725829  8e-06  4.039004  0.0  0.238894  0.668194  0.000201  4.057785  0.0
C  C57  1  0.87397450  0.30348660  0.40922183  1  0.747774  -3.9e-05  3.73529  0.0  0.691927  8.8e-05  4.05018  0.0  0.726126  8e-06  4.038831  0.0  0.239041  0.66851  0.0002  4.057591  0.0
C  C58  1  0.62602904  0.69651387  0.90922143  1  0.747743  -5.7e-05  3.735426  0.0  0.691917  8.7e-05  4.050267  0.0  0.726113  8e-06  4.038917  0.0  0.239031  0.668499  0.0002  4.057682  0.0
C  C59  1  0.12603255  0.80349418  0.09077909  1  0.74768  -6.4e-05  3.735164  0.0  0.69185  8.8e-05  4.050032  0.0  0.726055  7e-06  4.038678  0.0  0.239048  0.668438  0.0002  4.057443  0.0
O  O60  1  0.04318053  0.99839850  0.61981878  1  -0.633961  0.032196  2.177732  0.021  -0.566434  0.039221  2.435744  0.026  -0.589466  0.035032  2.418147  0.022  -0.385346  -0.548949  0.043284  2.446784  0.03
O  O61  1  0.54318175  0.50160078  0.38018101  1  -0.633868  0.032194  2.177734  0.021  -0.566417  0.039223  2.435763  0.026  -0.589451  0.035034  2.418156  0.022  -0.385349  -0.54893  0.043284  2.44681  0.03
O  O62  1  0.95681687  0.49839874  0.88018051  1  -0.633901  0.032196  2.177659  0.021  -0.566441  0.039223  2.435696  0.026  -0.589474  0.035033  2.418087  0.022  -0.385384  -0.548954  0.043284  2.446745  0.03
O  O63  1  0.45681716  0.00160207  0.11981840  1  -0.633969  0.032199  2.177741  0.021  -0.566445  0.039223  2.435765  0.026  -0.589477  0.035034  2.418146  0.022  -0.385371  -0.548959  0.043286  2.446805  0.03
O  O64  1  0.04512818  0.73132259  0.68355391  1  -0.676952  0.026149  2.024797  0.015  -0.603796  0.032905  2.278391  0.019  -0.632884  0.029509  2.26332  0.016  -0.299915  -0.582529  0.036186  2.288708  0.022
O  O65  1  0.54512588  0.76867669  0.31644663  1  -0.677145  0.026151  2.024682  0.015  -0.603881  0.032904  2.278245  0.019  -0.632973  0.029506  2.263175  0.016  -0.299943  -0.582613  0.036185  2.288562  0.022
O  O66  1  0.95487283  0.23132282  0.81644687  1  -0.67706  0.026154  2.024763  0.015  -0.603829  0.032904  2.278272  0.019  -0.63292  0.029507  2.263202  0.016  -0.29994  -0.582562  0.036186  2.288591  0.022
O  O67  1  0.45487273  0.26867798  0.18355280  1  -0.676993  0.026148  2.02463  0.015  -0.603847  0.032903  2.278279  0.019  -0.63294  0.029506  2.263215  0.016  -0.299909  -0.582584  0.036185  2.288598  0.022
O  O68  1  0.12192666  0.72063647  0.84649899  1  -0.626853  0.002291  2.054237  0.003  -0.560125  0.004165  2.279198  0.005  -0.587868  0.003061  2.269983  0.004  -0.295821  -0.540882  0.005409  2.28496  0.006
O  O69  1  0.62192796  0.77936294  0.15350078  1  -0.62689  0.002292  2.054116  0.003  -0.560159  0.004165  2.27915  0.005  -0.587903  0.003061  2.269934  0.004  -0.295921  -0.540918  0.005409  2.284912  0.006
O  O70  1  0.87807099  0.22063657  0.65350029  1  -0.626761  0.002291  2.054195  0.003  -0.560074  0.004164  2.279157  0.005  -0.587819  0.003062  2.269946  0.004  -0.295836  -0.540826  0.005409  2.284916  0.006
O  O71  1  0.37807402  0.27936315  0.34649790  1  -0.626952  0.002285  2.054192  0.003  -0.560159  0.004165  2.279123  0.005  -0.587915  0.00306  2.269933  0.004  -0.295876  -0.540916  0.005409  2.284884  0.006
O  O72  1  0.29166053  0.83822298  0.51980361  1  -0.67125  0.053585  2.10722  0.03  -0.598952  0.06844  2.393724  0.038  -0.6322  0.061901  2.37563  0.033  -0.291599  -0.573868  0.074495  2.405914  0.043
O  O73  1  0.79166407  0.66177576  0.48019611  1  -0.67127  0.053579  2.107043  0.03  -0.598973  0.068439  2.393544  0.038  -0.632221  0.061901  2.375446  0.033  -0.29162  -0.573887  0.074494  2.405738  0.043
O  O74  1  0.70833606  0.33822472  0.98019643  1  -0.671311  0.053589  2.107039  0.03  -0.598993  0.068438  2.393543  0.038  -0.63224  0.061902  2.375435  0.033  -0.291633  -0.573905  0.074493  2.405738  0.043
O  O75  1  0.20833731  0.16177663  0.01980331  1  -0.671292  0.053587  2.107119  0.03  -0.598994  0.068442  2.393615  0.038  -0.632255  0.061901  2.375559  0.033  -0.291628  -0.573915  0.074498  2.405814  0.043
O  O76  1  0.59312570  0.87502545  0.61552417  1  -0.625172  0.034147  2.043804  0.021  -0.564249  0.045189  2.313298  0.028  -0.593731  0.039557  2.298298  0.023  -0.295625  -0.542516  0.05063  2.323437  0.033
O  O77  1  0.09312788  0.62497487  0.38447486  1  -0.625147  0.034143  2.043786  0.021  -0.564225  0.045187  2.313294  0.028  -0.593709  0.039554  2.298293  0.023  -0.295584  -0.542488  0.050628  2.323433  0.033
O  O78  1  0.40687274  0.37502571  0.88447437  1  -0.625214  0.034145  2.04377  0.021  -0.564266  0.045189  2.313272  0.028  -0.593752  0.039558  2.298268  0.023  -0.295613  -0.542529  0.050631  2.323415  0.033
O  O79  1  0.90687496  0.12497597  0.11552530  1  -0.625186  0.034137  2.043791  0.021  -0.564258  0.045187  2.313287  0.028  -0.593738  0.039555  2.298292  0.023  -0.295659  -0.542526  0.050627  2.323427  0.033
O  O80  1  0.39503001  0.13696034  0.50426642  1  -0.544175  -0.000442  2.097533  0.0  -0.487732  -0.000361  2.321114  0.0  -0.510885  -0.000494  2.306618  0.0  -0.322794  -0.471655  -0.000162  2.330824  0.001
O  O81  1  0.89503620  0.36303749  0.49573177  1  -0.544243  -0.000443  2.097319  0.0  -0.487873  -0.000361  2.32096  0.0  -0.511013  -0.000493  2.306462  0.0  -0.322891  -0.471796  -0.000162  2.330675  0.001
O  O82  1  0.60496391  0.63696299  0.99573137  1  -0.544235  -0.00044  2.097327  0.0  -0.487851  -0.000362  2.32097  0.0  -0.510986  -0.000494  2.306472  0.0  -0.322867  -0.47177  -0.000162  2.330686  0.001
O  O83  1  0.10496454  0.86303831  0.00426766  1  -0.544217  -0.000439  2.097347  0.0  -0.487807  -0.00036  2.320966  0.0  -0.510952  -0.000494  2.306475  0.0  -0.322885  -0.471732  -0.000162  2.330682  0.001
O  O84  1  0.35649628  0.31397574  0.59995495  1  -0.596148  -4e-05  1.97805  0.0  -0.548313  0.000125  2.204179  0.0  -0.569748  -7e-06  2.192822  0.0  -0.294375  -0.533452  0.000255  2.21197  0.0
O  O85  1  0.85649179  0.18602970  0.40004549  1  -0.596218  -5.5e-05  1.978426  0.0  -0.548404  0.000125  2.20459  0.0  -0.569836  -8e-06  2.193239  0.0  -0.294408  -0.533541  0.000255  2.212381  0.0
O  O86  1  0.64350846  0.81397078  0.90004434  1  -0.596223  -4.2e-05  1.978491  0.0  -0.548395  0.000126  2.204622  0.0  -0.569829  -8e-06  2.193276  0.0  -0.294404  -0.533528  0.000255  2.212414  0.0
O  O87  1  0.14350806  0.68602483  0.09995617  1  -0.596186  -3.6e-05  1.978042  0.0  -0.548357  0.000124  2.204167  0.0  -0.569791  -7e-06  2.192817  0.0  -0.294424  -0.533493  0.000255  2.211961  0.0
O  O88  1  0.83755740  0.93036515  0.41200452  1  -0.844857  0.032777  1.859281  0.021  -0.783314  0.041862  2.06343  0.026  -0.807572  0.037256  2.028078  0.022  -0.565786  -0.764921  0.046071  2.088979  0.03
O  O89  1  0.33756233  0.56963366  0.58799892  1  -0.84489  0.032779  1.859289  0.021  -0.783328  0.041863  2.063412  0.026  -0.807586  0.037258  2.028061  0.022  -0.565847  -0.764931  0.046072  2.088959  0.03
O  O90  1  0.16244203  0.43036595  0.08799566  1  -0.844889  0.03278  1.859273  0.021  -0.783318  0.041861  2.063401  0.026  -0.807576  0.037256  2.02805  0.022  -0.565807  -0.76492  0.046071  2.088949  0.03
O  O91  1  0.66244283  0.06963628  0.91200409  1  -0.84486  0.03278  1.859287  0.021  -0.783297  0.041862  2.063423  0.026  -0.807554  0.037256  2.028072  0.022  -0.565795  -0.7649  0.046071  2.088975  0.03
