# generated using pymatgen
data_K2H17C15SNO6
_symmetry_space_group_name_H-M   'P 1'
_cell_length_a   5.88588121
_cell_length_b   8.78765591
_cell_length_c   17.83619448
_cell_angle_alpha   82.23961393
_cell_angle_beta   77.80770044
_cell_angle_gamma   75.19031957
_symmetry_Int_Tables_number   1
_chemical_formula_structural   K2H17C15SNO6
_chemical_formula_sum   'K4 H34 C30 S2 N2 O12'
_cell_volume   868.56688462
_cell_formula_units_Z   2
loop_
 _symmetry_equiv_pos_site_id
 _symmetry_equiv_pos_as_xyz
  1  'x, y, z'
loop_
 _atom_site_type_symbol
 _atom_site_label
 _atom_site_symmetry_multiplicity
 _atom_site_fract_x
 _atom_site_fract_y
 _atom_site_fract_z
 _atom_site_occupancy
 _atom_site_hle17_bader_spin_density
 _atom_site_hle17_ddec_charge
 _atom_site_hle17_ddec_spin_density
 _atom_site_hle17_ddec_sum_bond_order
 _atom_site_hle17_magmom
 _atom_site_hse06_10hf_bader_spin_density
 _atom_site_hse06_10hf_ddec_charge
 _atom_site_hse06_10hf_ddec_spin_density
 _atom_site_hse06_10hf_ddec_sum_bond_order
 _atom_site_hse06_10hf_magmom
 _atom_site_hse06_bader_spin_density
 _atom_site_hse06_ddec_charge
 _atom_site_hse06_ddec_spin_density
 _atom_site_hse06_ddec_sum_bond_order
 _atom_site_hse06_magmom
 _atom_site_pbe_bader_spin_density
 _atom_site_pbe_cm5_charge
 _atom_site_pbe_ddec_charge
 _atom_site_pbe_ddec_spin_density
 _atom_site_pbe_ddec_sum_bond_order
 _atom_site_pbe_magmom
K  K0  1  0.85326702  0.86426382  0.40907521  1  0  0.934424  0  0.443078  0  0  0.897841  0  0.611504  0  0  0.910023  0  0.591449  0  0  0.755443  0.888191  0  0.626383  0
K  K1  1  0.14676758  0.13574564  0.59092844  1  0  0.934429  0  0.443065  0  0  0.897898  0  0.611404  0  0  0.91005  0  0.59138  0  0  0.755447  0.888238  0  0.626284  0
K  K2  1  0.96061923  0.35530393  0.41349218  1  0  0.924825  0  0.466435  0  0  0.870786  0  0.655859  0  0  0.88587  0  0.633585  0  0  0.772718  0.859374  0  0.671992  0
K  K3  1  0.03938013  0.64469751  0.58651027  1  0  0.924802  0  0.466412  0  0  0.870756  0  0.655838  0  0  0.885843  0  0.633568  0  0  0.772679  0.859344  0  0.671967  0
H  H4  1  0.27264244  0.94302909  0.46678442  1  0  0.418692  0  0.888401  0  0  0.392342  0  0.946726  0  0  0.401959  0  0.932435  0  0  0.290396  0.385549  0  0.956811  0
H  H5  1  0.72736380  0.05697701  0.53322066  1  0  0.418671  0  0.888443  0  0  0.392302  0  0.946806  0  0  0.401922  0  0.932508  0  0  0.290378  0.385508  0  0.956894  0
H  H6  1  0.31938403  0.04271323  0.38840683  1  0  0.421044  0  0.881203  0  0  0.394562  0  0.938567  0  0  0.404408  0  0.924041  0  0  0.293756  0.38757  0  0.948874  0
H  H7  1  0.68062139  0.95729053  0.61159677  1  0  0.42104  0  0.881206  0  0  0.394588  0  0.938533  0  0  0.404435  0  0.924007  0  0  0.293768  0.387593  0  0.948845  0
H  H8  1  0.49832071  0.70537701  0.48458619  1  0  0.405246  0  0.918565  0  0  0.371645  0  0.987819  0  0  0.384131  0  0.96966  0  0  0.279791  0.362867  0  1.000555  0
H  H9  1  0.50169643  0.29463965  0.51540856  1  0  0.405203  0  0.918629  0  0  0.371625  0  0.987848  0  0  0.384112  0  0.969687  0  0  0.279784  0.362852  0  1.000578  0
H  H10  1  0.50036121  0.74434120  0.57148192  1  0  0.381513  0  0.944364  0  0  0.343705  0  1.025355  0  0  0.35383  0  1.010561  0  0  0.279926  0.33657  0  1.03576  0
H  H11  1  0.49963792  0.25565671  0.42851628  1  0  0.381526  0  0.944305  0  0  0.343736  0  1.025319  0  0  0.353862  0  1.010523  0  0  0.279934  0.336601  0  1.035724  0
H  H12  1  0.55749762  0.35132432  0.91759410  1  0  0.110508  0  0.973621  0  0  0.128487  0  1.039411  0  0  0.12895  0  1.042173  0  0  0.087579  0.128053  0  1.03762  0
H  H13  1  0.44248990  0.64867131  0.08240834  1  0  0.110461  0  0.973573  0  0  0.128394  0  1.039419  0  0  0.128859  0  1.04218  0  0  0.087567  0.127963  0  1.037624  0
H  H14  1  0.27273427  0.31161136  0.95826205  1  0  0.099707  0  0.955681  0  0  0.121647  0  1.01855  0  0  0.122796  0  1.018067  0  0  0.088357  0.120776  0  1.018883  0
H  H15  1  0.72725080  0.68838073  0.04174357  1  0  0.099723  0  0.95563  0  0  0.121663  0  1.018509  0  0  0.122814  0  1.018021  0  0  0.08837  0.120783  0  1.018854  0
H  H16  1  0.52110686  0.15490824  0.93186194  1  0  0.108911  0  0.960169  0  0  0.129875  0  1.023266  0  0  0.130584  0  1.024324  0  0  0.089171  0.129352  0  1.022495  0
H  H17  1  0.47887412  0.84508153  0.06813904  1  0  0.108883  0  0.960183  0  0  0.12983  0  1.023312  0  0  0.13054  0  1.024369  0  0  0.089168  0.129308  0  1.022539  0
H  H18  1  0.14912843  0.41704179  0.23657307  1  0  0.095441  0  0.999567  0  0  0.100523  0  1.073029  0  0  0.103557  0  1.071876  0  0  0.097407  0.09833  0  1.073961  0
H  H19  1  0.85086949  0.58295967  0.76342498  1  0  0.095445  0  0.99953  0  0  0.100501  0  1.073036  0  0  0.103531  0  1.071886  0  0  0.097394  0.098312  0  1.073957  0
H  H20  1  0.82700255  0.87787250  0.13865615  1  0  0.084963  0  0.960738  0  0  0.096709  0  1.020668  0  0  0.098759  0  1.021274  0  0  0.096694  0.095323  0  1.020195  0
H  H21  1  0.17301287  0.12213005  0.86133344  1  0  0.084981  0  0.960795  0  0  0.096725  0  1.020721  0  0  0.098776  0  1.021327  0  0  0.096704  0.095339  0  1.020245  0
H  H22  1  0.08666899  0.99472586  0.19508382  1  0  0.082584  0  0.993825  0  0  0.09257  0  1.05958  0  0  0.094794  0  1.058581  0  0  0.098266  0.09098  0  1.060365  0
H  H23  1  0.91332890  0.00528621  0.80491187  1  0  0.082584  0  0.993795  0  0  0.092555  0  1.059559  0  0  0.09478  0  1.058559  0  0  0.098252  0.090972  0  1.060334  0
H  H24  1  0.86243685  0.58706863  0.15830312  1  0  0.075379  0  0.977878  0  0  0.087767  0  1.040196  0  0  0.089856  0  1.03956  0  0  0.094701  0.086154  0  1.040938  0
H  H25  1  0.13756056  0.41292578  0.84168699  1  0  0.075369  0  0.97804  0  0  0.087744  0  1.040361  0  0  0.089833  0  1.039722  0  0  0.094701  0.086137  0  1.041101  0
H  H26  1  0.64135066  0.51630100  0.28260072  1  0  0.05734  0  0.955688  0  0  0.064237  0  1.027485  0  0  0.065624  0  1.0268  0  0  0.107173  0.063236  0  1.028123  0
H  H27  1  0.35864304  0.48369342  0.71739299  1  0  0.057324  0  0.955775  0  0  0.064235  0  1.027511  0  0  0.065631  0  1.026824  0  0  0.107164  0.06323  0  1.028152  0
H  H28  1  0.88970090  0.34388703  0.13991072  1  0  0.097028  0  0.964869  0  0  0.107652  0  1.02772  0  0  0.110259  0  1.026616  0  0  0.103761  0.105473  0  1.029173  0
H  H29  1  0.11029746  0.65610263  0.86008974  1  0  0.097071  0  0.96481  0  0  0.107707  0  1.027619  0  0  0.110312  0  1.026516  0  0  0.103779  0.105526  0  1.029074  0
H  H30  1  0.38851822  0.82419752  0.26792062  1  0  0.100849  0  0.947351  0  0  0.112597  0  1.00727  0  0  0.115825  0  1.005892  0  0  0.107544  0.11022  0  1.008462  0
H  H31  1  0.61146872  0.17580989  0.73208167  1  0  0.100857  0  0.947461  0  0  0.112706  0  1.007231  0  0  0.115942  0  1.005856  0  0  0.107588  0.11033  0  1.008421  0
H  H32  1  0.32052337  0.10466169  0.21912751  1  0  0.108462  0  0.961445  0  0  0.119057  0  1.022471  0  0  0.122466  0  1.019797  0  0  0.111346  0.116595  0  1.024438  0
H  H33  1  0.67946813  0.89533745  0.78087502  1  0  0.10845  0  0.961476  0  0  0.119044  0  1.022505  0  0  0.122458  0  1.019822  0  0  0.111337  0.116578  0  1.024474  0
H  H34  1  0.24679948  0.12598810  0.08526566  1  0  0.091318  0  0.957728  0  0  0.104915  0  1.014736  0  0  0.10755  0  1.014307  0  0  0.100644  0.102812  0  1.015596  0
H  H35  1  0.75319365  0.87401102  0.91473845  1  0  0.09135  0  0.957659  0  0  0.104946  0  1.014671  0  0  0.10758  0  1.014244  0  0  0.100643  0.102841  0  1.015533  0
H  H36  1  0.80772251  0.37313153  0.00613955  1  0  0.090182  0  0.951636  0  0  0.10353  0  1.008117  0  0  0.106322  0  1.00763  0  0  0.099071  0.101599  0  1.008494  0
H  H37  1  0.19226992  0.62684992  0.99386236  1  0  0.090209  0  0.951607  0  0  0.10354  0  1.008092  0  0  0.106333  0  1.007604  0  0  0.099044  0.101612  0  1.008456  0
C  C38  1  0.40429570  0.58085606  0.38802740  1  0  0.675555  0  3.857225  0  0  0.633392  0  4.15618  0  0  0.665311  0  4.147831  0  0  0.204044  0.611697  0  4.161054  0
C  C39  1  0.59570899  0.41917129  0.61196914  1  0  0.675719  0  3.857365  0  0  0.633507  0  4.156323  0  0  0.665423  0  4.14797  0  0  0.204098  0.611805  0  4.161205  0
C  C40  1  0.45725723  0.50888953  0.30951902  1  0  0.002075  0  3.705927  0  0  -0.015303  0  3.934715  0  0  -0.014143  0  3.94602  0  0  -0.004751  -0.016256  0  3.926966  0
C  C41  1  0.54274584  0.49111070  0.69048608  1  0  0.001812  0  3.70622  0  0  -0.015411  0  3.93482  0  0  -0.014262  0  3.946133  0  0  -0.00478  -0.016357  0  3.927065  0
C  C42  1  0.28786796  0.60805337  0.25793091  1  0  0.056301  0  3.729916  0  0  0.074503  0  3.963195  0  0  0.074647  0  3.987171  0  0  -0.01093  0.07448  0  3.947042  0
C  C43  1  0.71214394  0.39194209  0.74207000  1  0  0.056508  0  3.72974  0  0  0.07452  0  3.963222  0  0  0.074668  0  3.987195  0  0  -0.01094  0.0745  0  3.947063  0
C  C44  1  0.27212915  0.77154319  0.24430065  1  0  -0.147991  0  3.753294  0  0  -0.165236  0  3.999705  0  0  -0.168795  0  4.02094  0  0  -0.098536  -0.162896  0  3.985573  0
C  C45  1  0.72785668  0.22845715  0.75570272  1  0  -0.148051  0  3.753421  0  0  -0.165316  0  3.999832  0  0  -0.16889  0  4.021076  0  0  -0.098584  -0.162972  0  3.98569  0
C  C46  1  0.10576010  0.86747923  0.20227257  1  0  -0.080347  0  3.811339  0  0  -0.09482  0  4.06292  0  0  -0.095756  0  4.084182  0  0  -0.095448  -0.09414  0  4.048491  0
C  C47  1  0.89424675  0.13253160  0.79772488  1  0  -0.080375  0  3.811577  0  0  -0.09485  0  4.063184  0  0  -0.095784  0  4.084449  0  0  -0.095444  -0.094177  0  4.048751  0
C  C48  1  0.95775371  0.80193200  0.17091758  1  0  -0.075476  0  3.776768  0  0  -0.089229  0  4.022276  0  0  -0.09153  0  4.043826  0  0  -0.094047  -0.087665  0  4.007633  0
C  C49  1  0.04225356  0.19807294  0.82907798  1  0  -0.075395  0  3.776817  0  0  -0.089143  0  4.02233  0  0  -0.091437  0  4.043862  0  0  -0.093998  -0.087578  0  4.007688  0
C  C50  1  0.97769193  0.63929684  0.18231415  1  0  -0.076082  0  3.795726  0  0  -0.08552  0  4.042028  0  0  -0.086942  0  4.062864  0  0  -0.09324  -0.084409  0  4.027838  0
C  C51  1  0.02231399  0.36070221  0.81768019  1  0  -0.076077  0  3.795984  0  0  -0.085536  0  4.042283  0  0  -0.086956  0  4.063116  0  0  -0.093263  -0.084432  0  4.028101  0
C  C52  1  0.13987516  0.54321028  0.22608477  1  0  -0.129674  0  3.750121  0  0  -0.151508  0  3.999587  0  0  -0.15414  0  4.020473  0  0  -0.098155  -0.149467  0  3.985123  0
C  C53  1  0.86012609  0.45679115  0.77391531  1  0  -0.12972  0  3.750186  0  0  -0.151486  0  3.999677  0  0  -0.154118  0  4.020558  0  0  -0.098125  -0.149456  0  3.985228  0
C  C54  1  0.60767736  0.22376326  0.18716511  1  0  -0.115434  0  3.741758  0  0  -0.088455  0  3.987575  0  0  -0.095728  0  4.010029  0  0  -0.022097  -0.083939  0  3.972658  0
C  C55  1  0.39231872  0.77622288  0.81283572  1  0  -0.115556  0  3.741755  0  0  -0.088438  0  3.98737  0  0  -0.095707  0  4.009815  0  0  -0.022074  -0.083922  0  3.972444  0
C  C56  1  0.74662570  0.29866896  0.12770424  1  0  -0.069493  0  3.761252  0  0  -0.095066  0  4.012976  0  0  -0.093518  0  4.032691  0  0  -0.088396  -0.095842  0  4.000061  0
C  C57  1  0.25336522  0.70132192  0.87229772  1  0  -0.069486  0  3.761474  0  0  -0.095083  0  4.013122  0  0  -0.093534  0  4.03284  0  0  -0.088387  -0.095864  0  4.00021  0
C  C58  1  0.70170061  0.31300803  0.05280403  1  0  -0.130251  0  3.728281  0  0  -0.144943  0  3.968078  0  0  -0.14978  0  3.989347  0  0  -0.092388  -0.141713  0  3.953624  0
C  C59  1  0.29829667  0.68696985  0.94719556  1  0  -0.130337  0  3.728242  0  0  -0.145016  0  3.968036  0  0  -0.149856  0  3.989305  0  0  -0.092416  -0.141783  0  3.95359  0
C  C60  1  0.52039958  0.25302219  0.03637494  1  0  0.153225  0  3.752261  0  0  0.180725  0  3.981014  0  0  0.183652  0  4.004491  0  0  -0.004756  0.178771  0  3.964862  0
C  C61  1  0.47958171  0.74697111  0.96362916  1  0  0.153448  0  3.751915  0  0  0.180911  0  3.980705  0  0  0.183842  0  4.004178  0  0  -0.004639  0.17895  0  3.964561  0
C  C62  1  0.38725718  0.17486476  0.09705630  1  0  -0.13816  0  3.735748  0  0  -0.15437  0  3.979016  0  0  -0.159197  0  3.999882  0  0  -0.094167  -0.151162  0  3.965356  0
C  C63  1  0.61273800  0.82512845  0.90294749  1  0  -0.138244  0  3.73557  0  0  -0.154441  0  3.978871  0  0  -0.159268  0  3.999737  0  0  -0.094213  -0.151235  0  3.965213  0
C  C64  1  0.42823528  0.16111951  0.17178905  1  0  -0.0597  0  3.762235  0  0  -0.087492  0  4.01774  0  0  -0.08553  0  4.035777  0  0  -0.083147  -0.088553  0  4.005682  0
C  C65  1  0.57175253  0.83887493  0.82821513  1  0  -0.059702  0  3.7622  0  0  -0.087534  0  4.017679  0  0  -0.085573  0  4.035719  0  0  -0.08314  -0.088588  0  4.005606  0
C  C66  1  0.46615637  0.26941828  0.95677074  1  0  -0.341778  0  3.735614  0  0  -0.422663  0  3.968835  0  0  -0.425199  0  3.978923  0  0  -0.24306  -0.420511  0  3.961713  0
C  C67  1  0.53383328  0.73057144  0.04323026  1  0  -0.341786  0  3.735522  0  0  -0.422615  0  3.968813  0  0  -0.425155  0  3.978895  0  0  -0.243119  -0.42046  0  3.961703  0
S  S68  1  0.63728734  0.21415088  0.28517564  1  0  1.197746  0  5.555906  0  0  1.113509  0  6.057369  0  0  1.156384  0  6.043213  0  0  0.522084  1.084018  0  6.065954  0
S  S69  1  0.36270731  0.78584941  0.71482549  1  0  1.197719  0  5.556144  0  0  1.113406  0  6.057654  0  0  1.156281  0  6.043495  0  0  0.522019  1.083926  0  6.066213  0
N  N70  1  0.43653711  0.34416721  0.32837254  1  0  -0.732542  0  3.014439  0  0  -0.675716  0  3.302907  0  0  -0.699065  0  3.307443  0  0  -0.491173  -0.659006  0  3.299004  0
N  N71  1  0.56345562  0.65583428  0.67162528  1  0  -0.732446  0  3.014571  0  0  -0.67564  0  3.302973  0  0  -0.698986  0  3.307513  0  0  -0.491133  -0.658934  0  3.299069  0
O  O72  1  0.58099767  0.61277152  0.40858664  1  0  -0.699315  0  1.965607  0  0  -0.643819  0  2.193628  0  0  -0.66872  0  2.182714  0  0  -0.40575  -0.626283  0  2.200752  0
O  O73  1  0.41904594  0.38724028  0.59139947  1  0  -0.699345  0  1.965803  0  0  -0.643852  0  2.19384  0  0  -0.66877  0  2.18297  0  0  -0.405755  -0.626314  0  2.200963  0
O  O74  1  0.19441753  0.59849433  0.42723606  1  0  -0.754663  0  1.940049  0  0  -0.707331  0  2.177133  0  0  -0.730756  0  2.167023  0  0  -0.491945  -0.690709  0  2.183734  0
O  O75  1  0.80559306  0.40149407  0.57276932  1  0  -0.754701  0  1.940035  0  0  -0.707385  0  2.177166  0  0  -0.7308  0  2.167056  0  0  -0.491981  -0.690769  0  2.18379  0
O  O76  1  0.88278390  0.22719140  0.28328375  1  0  -0.674871  0  1.940994  0  0  -0.627194  0  2.19806  0  0  -0.647776  0  2.18683  0  0  -0.375102  -0.612525  0  2.20536  0
O  O77  1  0.11720971  0.77281715  0.71671637  1  0  -0.674845  0  1.941074  0  0  -0.627169  0  2.198188  0  0  -0.647755  0  2.186957  0  0  -0.375096  -0.612505  0  2.205481  0
O  O78  1  0.58607187  0.06105766  0.31963969  1  0  -0.706874  0  2.015678  0  0  -0.651347  0  2.264988  0  0  -0.672105  0  2.252188  0  0  -0.420542  -0.636453  0  2.273308  0
O  O79  1  0.41392689  0.93894025  0.68036414  1  0  -0.706894  0  2.015822  0  0  -0.651379  0  2.265185  0  0  -0.672134  0  2.252385  0  0  -0.420576  -0.636486  0  2.273493  0
O  O80  1  0.18897759  0.02229408  0.43066472  1  0  -0.913644  0  1.762386  0  0  -0.871851  0  1.924013  0  0  -0.889406  0  1.895149  0  0  -0.70648  -0.859243  0  1.944243  0
O  O81  1  0.81102777  0.97771439  0.56934139  1  0  -0.913633  0  1.762439  0  0  -0.871871  0  1.924014  0  0  -0.889423  0  1.895151  0  0  -0.706431  -0.859256  0  1.944245  0
O  O82  1  0.45281403  0.79130799  0.52149344  1  0  -0.927003  0  1.882151  0  0  -0.870675  0  2.066347  0  0  -0.889424  0  2.032571  0  0  -0.665732  -0.857181  0  2.089823  0
O  O83  1  0.54721108  0.20870037  0.47850246  1  0  -0.927011  0  1.882123  0  0  -0.870709  0  2.066234  0  0  -0.889462  0  2.032471  0  0  -0.665757  -0.857195  0  2.089666  0
