# generated using pymatgen
data_CuH3C5N4O
_symmetry_space_group_name_H-M   'P 1'
_cell_length_a   8.11273161
_cell_length_b   9.91513308
_cell_length_c   14.61100000
_cell_angle_alpha   90.00000000
_cell_angle_beta   90.00000000
_cell_angle_gamma   90.00000000
_symmetry_Int_Tables_number   1
_chemical_formula_structural   CuH3C5N4O
_chemical_formula_sum   'Cu8 H24 C40 N32 O8'
_cell_volume   1175.29150519
_cell_formula_units_Z   8
loop_
 _symmetry_equiv_pos_site_id
 _symmetry_equiv_pos_as_xyz
  1  'x, y, z'
loop_
 _atom_site_type_symbol
 _atom_site_label
 _atom_site_symmetry_multiplicity
 _atom_site_fract_x
 _atom_site_fract_y
 _atom_site_fract_z
 _atom_site_occupancy
 _atom_site_hle17_bader_spin_density
 _atom_site_hle17_ddec_charge
 _atom_site_hle17_ddec_spin_density
 _atom_site_hle17_ddec_sum_bond_order
 _atom_site_hle17_magmom
 _atom_site_hse06_10hf_bader_spin_density
 _atom_site_hse06_10hf_ddec_charge
 _atom_site_hse06_10hf_ddec_spin_density
 _atom_site_hse06_10hf_ddec_sum_bond_order
 _atom_site_hse06_10hf_magmom
 _atom_site_hse06_bader_spin_density
 _atom_site_hse06_ddec_charge
 _atom_site_hse06_ddec_spin_density
 _atom_site_hse06_ddec_sum_bond_order
 _atom_site_hse06_magmom
 _atom_site_pbe_bader_charge
 _atom_site_pbe_bader_spin_density
 _atom_site_pbe_cm5_charge
 _atom_site_pbe_ddec_charge
 _atom_site_pbe_ddec_spin_density
 _atom_site_pbe_ddec_sum_bond_order
 _atom_site_pbe_magmom
Cu  Cu0  1  0.38371170  0.14639541  0.07061597  1  0  0.444592  0  1.688764  0  0  0.300925  0  2.150894  0  0  0.320663  0  2.095295  0  0.613922  0  0.510812  0.289672  0  2.187864  0
Cu  Cu1  1  0.11630115  0.35359687  0.07061666  1  0  0.444495  0  1.688812  0  0  0.30087  0  2.150848  0  0  0.320573  0  2.095343  0  0.612956  0  0.510821  0.289616  0  2.187814  0
Cu  Cu2  1  0.88370112  0.85359822  0.42938403  1  0  0.444497  0  1.68878  0  0  0.30087  0  2.150841  0  0  0.320559  0  2.095294  0  0.61296  0  0.510851  0.289612  0  2.187805  0
Cu  Cu3  1  0.61628564  0.64639475  0.42938403  1  0  0.444564  0  1.688803  0  0  0.300895  0  2.150965  0  0  0.320641  0  2.095363  0  0.613913  0  0.510818  0.289642  0  2.187932  0
Cu  Cu4  1  0.61628687  0.85360528  0.92938471  1  0  0.444504  0  1.688793  0  0  0.300846  0  2.150945  0  0  0.320608  0  2.095347  0  0.613858  0  0.510816  0.289595  0  2.187913  0
Cu  Cu5  1  0.88369865  0.64640282  0.92938403  1  0  0.444503  0  1.688759  0  0  0.300888  0  2.150802  0  0  0.320563  0  2.095264  0  0.612955  0  0.510838  0.289628  0  2.187767  0
Cu  Cu6  1  0.11629868  0.14640146  0.57061529  1  0  0.444482  0  1.688787  0  0  0.300835  0  2.150848  0  0  0.320542  0  2.095313  0  0.612955  0  0.510836  0.28958  0  2.18782  0
Cu  Cu7  1  0.38371539  0.35360494  0.57061529  1  0  0.444546  0  1.688795  0  0  0.300891  0  2.150947  0  0  0.320638  0  2.095352  0  0.613909  0  0.510827  0.289641  0  2.187919  0
H  H8  1  0.05461046  0.84096400  0.28157142  1  0  0.095471  0  0.988356  0  0  0.098863  0  1.068562  0  0  0.104185  0  1.063607  0  0.143014  0  0.095931  0.094934  0  1.072312  0
H  H9  1  0.44538266  0.65903200  0.28157142  1  0  0.095468  0  0.988428  0  0  0.098888  0  1.068602  0  0  0.104201  0  1.063652  0  0.101566  0  0.096005  0.094957  0  1.072352  0
H  H10  1  0.55461837  0.15903064  0.21842858  1  0  0.095481  0  0.988407  0  0  0.098902  0  1.068579  0  0  0.104215  0  1.06363  0  0.10157  0  0.096009  0.09497  0  1.07233  0
H  H11  1  0.94538688  0.34096668  0.21842790  1  0  0.095444  0  0.988362  0  0  0.098855  0  1.068547  0  0  0.104169  0  1.063598  0  0.143016  0  0.095949  0.094925  0  1.072297  0
H  H12  1  0.94538934  0.15903569  0.71842927  1  0  0.095498  0  0.988334  0  0  0.098895  0  1.068532  0  0  0.104214  0  1.063582  0  0.143031  0  0.095943  0.094965  0  1.072284  0
H  H13  1  0.55461714  0.34096870  0.71842927  1  0  0.095492  0  0.988398  0  0  0.098911  0  1.068569  0  0  0.104223  0  1.063621  0  0.10158  0  0.096017  0.094978  0  1.072321  0
H  H14  1  0.44538389  0.84097005  0.78157073  1  0  0.095506  0  0.98835  0  0  0.098925  0  1.068525  0  0  0.104237  0  1.063577  0  0.101591  0  0.09602  0.094993  0  1.072275  0
H  H15  1  0.05461292  0.65903301  0.78157210  1  0  0.09546  0  0.988338  0  0  0.098874  0  1.06852  0  0  0.104192  0  1.063564  0  0.143017  0  0.095972  0.094945  0  1.072271  0
H  H16  1  0.25081564  0.02324427  0.25175690  1  0  0.087739  0  0.960119  0  0  0.093153  0  1.029363  0  0  0.096322  0  1.026216  0  0.12166  0  0.114518  0.090803  0  1.031691  0
H  H17  1  0.24918241  0.47674902  0.25175621  1  0  0.087699  0  0.960052  0  0  0.093158  0  1.029289  0  0  0.096335  0  1.026119  0  0.122141  0  0.114492  0.090806  0  1.031623  0
H  H18  1  0.75081986  0.97674836  0.24824379  1  0  0.087711  0  0.960012  0  0  0.093145  0  1.029282  0  0  0.096324  0  1.026109  0  0.122119  0  0.114508  0.090795  0  1.031617  0
H  H19  1  0.74917923  0.52324462  0.24824310  1  0  0.087705  0  0.960136  0  0  0.093117  0  1.029387  0  0  0.096285  0  1.026241  0  0.121922  0  0.114509  0.090768  0  1.03171  0
H  H20  1  0.74918293  0.97675643  0.74824379  1  0  0.087757  0  0.960101  0  0  0.093172  0  1.029351  0  0  0.096341  0  1.026201  0  0.121668  0  0.114537  0.090823  0  1.031677  0
H  H21  1  0.75081863  0.52325067  0.74824379  1  0  0.087733  0  0.960009  0  0  0.093161  0  1.029283  0  0  0.096338  0  1.026116  0  0.122138  0  0.114499  0.090811  0  1.031613  0
H  H22  1  0.24917994  0.02325133  0.75175553  1  0  0.087724  0  0.960003  0  0  0.093157  0  1.029275  0  0  0.096336  0  1.026101  0  0.122159  0  0.114518  0.090808  0  1.031607  0
H  H23  1  0.25082057  0.47675507  0.75175690  1  0  0.087708  0  0.960133  0  0  0.093119  0  1.029385  0  0  0.096287  0  1.026238  0  0.121921  0  0.114509  0.09077  0  1.031708  0
H  H24  1  0.92195827  0.71095566  0.15120936  1  0  0.132269  0  0.940858  0  0  0.146305  0  0.994163  0  0  0.149702  0  0.990991  0  0.136452  0  0.118292  0.143707  0  0.99671  0
H  H25  1  0.57803589  0.78904236  0.15121005  1  0  0.132249  0  0.940928  0  0  0.146304  0  0.994208  0  0  0.149698  0  0.991036  0  0.136598  0  0.11827  0.143707  0  0.996754  0
H  H26  1  0.42196515  0.28904201  0.34878927  1  0  0.132266  0  0.940915  0  0  0.146322  0  0.994198  0  0  0.149715  0  0.991028  0  0.136608  0  0.118282  0.143725  0  0.996744  0
H  H27  1  0.07803907  0.21095632  0.34878927  1  0  0.132294  0  0.940871  0  0  0.146333  0  0.994175  0  0  0.149727  0  0.991002  0  0.136471  0  0.118287  0.143736  0  0.996721  0
H  H28  1  0.07804153  0.28904403  0.84879064  1  0  0.13227  0  0.940861  0  0  0.146308  0  0.994163  0  0  0.149705  0  0.990991  0  0.136456  0  0.118296  0.143709  0  0.99671  0
H  H29  1  0.42196392  0.21095733  0.84879064  1  0  0.132225  0  0.940975  0  0  0.146306  0  0.994222  0  0  0.149694  0  0.991059  0  0.136582  0  0.118277  0.143709  0  0.996768  0
H  H30  1  0.57803589  0.71095768  0.65120936  1  0  0.132257  0  0.940956  0  0  0.146339  0  0.994198  0  0  0.149726  0  0.991036  0  0.136609  0  0.118284  0.143741  0  0.996744  0
H  H31  1  0.92195950  0.78904337  0.65121142  1  0  0.13229  0  0.940866  0  0  0.146324  0  0.994167  0  0  0.149722  0  0.990995  0  0.136465  0  0.118296  0.143727  0  0.996713  0
C  C32  1  0.08293014  0.86443822  0.21037301  1  0  -0.104783  0  3.701944  0  0  -0.117711  0  3.958005  0  0  -0.127535  0  3.97916  0  -0.024029  0  -0.081905  -0.111395  0  3.944092  0
C  C33  1  0.41706668  0.63555677  0.21037232  1  0  -0.104915  0  3.701961  0  0  -0.117836  0  3.958027  0  0  -0.127655  0  3.979178  0  0.017656  0  -0.082061  -0.111515  0  3.944109  0
C  C34  1  0.58293436  0.13555542  0.28962768  1  0  -0.104941  0  3.702049  0  0  -0.117879  0  3.95815  0  0  -0.127697  0  3.979303  0  0.017846  0  -0.082087  -0.111557  0  3.944233  0
C  C35  1  0.91706719  0.36443989  0.28962562  1  0  -0.104836  0  3.702017  0  0  -0.117768  0  3.958073  0  0  -0.127584  0  3.979223  0  -0.024034  0  -0.08196  -0.111451  0  3.94416  0
C  C36  1  0.91707089  0.13556046  0.78962768  1  0  -0.10488  0  3.701937  0  0  -0.117819  0  3.958016  0  0  -0.127642  0  3.979171  0  -0.023844  0  -0.08196  -0.111501  0  3.944103  0
C  C37  1  0.58293313  0.36444291  0.78962836  1  0  -0.104889  0  3.701946  0  0  -0.117813  0  3.958016  0  0  -0.12763  0  3.979166  0  0.017379  0  -0.082068  -0.111492  0  3.944099  0
C  C38  1  0.41706791  0.86444528  0.71037095  1  0  -0.104894  0  3.701871  0  0  -0.117819  0  3.95795  0  0  -0.127636  0  3.9791  0  0.017779  0  -0.082072  -0.111497  0  3.944032  0
C  C39  1  0.08293014  0.63555778  0.71037369  1  0  -0.10482  0  3.702011  0  0  -0.117754  0  3.95804  0  0  -0.127573  0  3.979191  0  -0.024081  0  -0.082009  -0.111437  0  3.944127  0
C  C40  1  0.17694040  0.93242621  0.04184176  1  0  0.153352  0  3.809554  0  0  0.125246  0  4.05876  0  0  0.130123  0  4.08172  0  0.909044  0  0.198354  0.122155  0  4.043763  0
C  C41  1  0.32306874  0.56757181  0.04183903  1  0  0.153437  0  3.809366  0  0  0.125046  0  4.058958  0  0  0.129924  0  4.081914  0  0.908994  0  0.198303  0.121956  0  4.043959  0
C  C42  1  0.67693106  0.06757146  0.45816029  1  0  0.153386  0  3.809504  0  0  0.125032  0  4.059026  0  0  0.129911  0  4.08198  0  0.909001  0  0.198261  0.121942  0  4.044026  0
C  C43  1  0.82306063  0.43242788  0.45815892  1  0  0.153361  0  3.809441  0  0  0.125207  0  4.058726  0  0  0.130081  0  4.081692  0  0.909007  0  0.198377  0.122115  0  4.04373  0
C  C44  1  0.82305940  0.06757448  0.95815892  1  0  0.153355  0  3.809395  0  0  0.125157  0  4.05872  0  0  0.130032  0  4.081683  0  0.909052  0  0.198338  0.122066  0  4.043723  0
C  C45  1  0.67693229  0.43242788  0.95816097  1  0  0.153292  0  3.80947  0  0  0.124978  0  4.058958  0  0  0.129855  0  4.081915  0  0.909056  0  0.198285  0.121888  0  4.043959  0
C  C46  1  0.32306874  0.93242924  0.54183834  1  0  0.153208  0  3.809522  0  0  0.12494  0  4.058941  0  0  0.129817  0  4.081901  0  0.908997  0  0.198254  0.12185  0  4.043942  0
C  C47  1  0.17693917  0.56757181  0.54184108  1  0  0.153339  0  3.809445  0  0  0.125198  0  4.058716  0  0  0.130072  0  4.08168  0  0.908994  0  0.198377  0.122107  0  4.043719  0
C  C48  1  0.19734907  0.96898447  0.19417631  1  0  0.140948  0  3.6249  0  0  0.105175  0  3.873462  0  0  0.115888  0  3.888113  0  0.471235  0  0.051336  0.098047  0  3.864024  0
C  C49  1  0.30265268  0.53100951  0.19417494  1  0  0.141026  0  3.624665  0  0  0.105203  0  3.873223  0  0  0.115919  0  3.88787  0  0.470701  0  0.051403  0.098074  0  3.863786  0
C  C50  1  0.69734835  0.03100816  0.30582506  1  0  0.141006  0  3.624704  0  0  0.105193  0  3.873286  0  0  0.115908  0  3.887936  0  0.470514  0  0.051379  0.098062  0  3.863849  0
C  C51  1  0.80264950  0.46898614  0.30582438  1  0  0.140978  0  3.624857  0  0  0.105222  0  3.873403  0  0  0.115934  0  3.888053  0  0.470965  0  0.051335  0.098096  0  3.863963  0
C  C52  1  0.80265074  0.03101522  0.80582506  1  0  0.140874  0  3.624892  0  0  0.10511  0  3.873452  0  0  0.115824  0  3.888106  0  0.471257  0  0.051307  0.097983  0  3.864014  0
C  C53  1  0.69734712  0.46899017  0.80582506  1  0  0.140941  0  3.624656  0  0  0.105129  0  3.873248  0  0  0.115844  0  3.887893  0  0.470713  0  0.051365  0.098  0  3.863811  0
C  C54  1  0.30265268  0.96899153  0.69417425  1  0  0.140933  0  3.624715  0  0  0.105114  0  3.873311  0  0  0.115828  0  3.887964  0  0.470537  0  0.05132  0.097983  0  3.863877  0
C  C55  1  0.19735030  0.53101355  0.69417562  1  0  0.14095  0  3.624855  0  0  0.105195  0  3.873417  0  0  0.115906  0  3.888068  0  0.47095  0  0.051344  0.098069  0  3.863977  0
C  C56  1  0.01041203  0.79183708  0.13969475  1  0  -0.043291  0  3.617723  0  0  -0.06892  0  3.863692  0  0  -0.061745  0  3.876443  0  -0.009479  0  -0.057807  -0.073626  0  3.855369  0
C  C57  1  0.48958479  0.70816094  0.13969338  1  0  -0.043197  0  3.617678  0  0  -0.068822  0  3.863611  0  0  -0.061648  0  3.876372  0  -0.00934  0  -0.057704  -0.073531  0  3.855289  0
C  C58  1  0.51041624  0.20816059  0.36030593  1  0  -0.04322  0  3.617748  0  0  -0.068866  0  3.86369  0  0  -0.061692  0  3.876452  0  -0.009344  0  -0.057744  -0.073574  0  3.855368  0
C  C59  1  0.98958777  0.29183875  0.36030457  1  0  -0.043333  0  3.617773  0  0  -0.068985  0  3.863762  0  0  -0.061799  0  3.876495  0  -0.009456  0  -0.0578  -0.073693  0  3.855441  0
C  C60  1  0.98958900  0.20816261  0.86030593  1  0  -0.0432  0  3.617702  0  0  -0.068845  0  3.863649  0  0  -0.061668  0  3.876392  0  -0.009431  0  -0.057764  -0.073553  0  3.855328  0
C  C61  1  0.51041501  0.29183875  0.86030662  1  0  -0.04323  0  3.617765  0  0  -0.068876  0  3.863695  0  0  -0.061699  0  3.876461  0  -0.009359  0  -0.057732  -0.073584  0  3.855374  0
C  C62  1  0.48958479  0.79184010  0.63969270  1  0  -0.043291  0  3.617744  0  0  -0.068934  0  3.863669  0  0  -0.061756  0  3.876435  0  -0.009348  0  -0.057732  -0.073642  0  3.855347  0
C  C63  1  0.01041203  0.70816094  0.63969543  1  0  -0.043329  0  3.617747  0  0  -0.068959  0  3.863732  0  0  -0.061778  0  3.876468  0  -0.009388  0  -0.057777  -0.073668  0  3.855412  0
C  C64  1  0.06116436  0.82837920  0.05110465  1  0  0.095251  0  3.849867  0  0  0.088599  0  4.103107  0  0  0.088868  0  4.125381  0  0.465041  0  0.089078  0.08808  0  4.088429  0
C  C65  1  0.43883739  0.67162084  0.05110259  1  0  0.095235  0  3.849852  0  0  0.08867  0  4.103163  0  0  0.088937  0  4.125445  0  0.465275  0  0.089074  0.088149  0  4.088488  0
C  C66  1  0.56116241  0.17162049  0.44889672  1  0  0.095197  0  3.849935  0  0  0.088658  0  4.103184  0  0  0.088924  0  4.125467  0  0.465275  0  0.089104  0.088136  0  4.08851  0
C  C67  1  0.93883545  0.32838087  0.44889467  1  0  0.095302  0  3.849868  0  0  0.088669  0  4.103107  0  0  0.088937  0  4.125388  0  0.465043  0  0.089093  0.08815  0  4.08843  0
C  C68  1  0.93883545  0.17162049  0.94889535  1  0  0.095115  0  3.850008  0  0  0.088539  0  4.103183  0  0  0.08881  0  4.125459  0  0.46503  0  0.089027  0.08802  0  4.088507  0
C  C69  1  0.56116241  0.32837885  0.94889809  1  0  0.095265  0  3.849804  0  0  0.08868  0  4.103085  0  0  0.088947  0  4.125364  0  0.465356  0  0.089061  0.088159  0  4.08841  0
C  C70  1  0.43883739  0.82838021  0.55110191  1  0  0.095288  0  3.849838  0  0  0.088695  0  4.10309  0  0  0.088962  0  4.125369  0  0.465332  0  0.089072  0.088174  0  4.088415  0
C  C71  1  0.06116436  0.67161882  0.55110533  1  0  0.095305  0  3.849866  0  0  0.088661  0  4.103107  0  0  0.088931  0  4.125385  0  0.465041  0  0.089096  0.088142  0  4.088429  0
N  N72  1  0.24642008  0.00474124  0.10952433  1  0  -0.323545  0  3.462704  0  0  -0.236458  0  3.753762  0  0  -0.25161  0  3.759876  0  -1.2287  0  -0.378556  -0.227489  0  3.75047  0
N  N73  1  0.25358660  0.49525407  0.10952296  1  0  -0.323495  0  3.462447  0  0  -0.236324  0  3.753612  0  0  -0.25148  0  3.759736  0  -1.228643  0  -0.378583  -0.227357  0  3.750317  0
N  N74  1  0.74641320  0.99525341  0.39047772  1  0  -0.323433  0  3.46251  0  0  -0.236257  0  3.753623  0  0  -0.251405  0  3.75973  0  -1.228665  0  -0.378546  -0.227288  0  3.750324  0
N  N75  1  0.75357849  0.50474259  0.39047567  1  0  -0.323462  0  3.46256  0  0  -0.236389  0  3.75367  0  0  -0.251542  0  3.759786  0  -1.228675  0  -0.37855  -0.227421  0  3.750378  0
N  N76  1  0.75357849  0.99525946  0.89047635  1  0  -0.323342  0  3.462505  0  0  -0.236262  0  3.75362  0  0  -0.251417  0  3.759745  0  -1.228654  0  -0.378522  -0.227295  0  3.750327  0
N  N77  1  0.74641320  0.50474562  0.89047772  1  0  -0.323415  0  3.46253  0  0  -0.236263  0  3.753651  0  0  -0.251407  0  3.75975  0  -1.228687  0  -0.37855  -0.227293  0  3.750352  0
N  N78  1  0.25358660  0.00474729  0.60952159  1  0  -0.323346  0  3.462552  0  0  -0.236195  0  3.753631  0  0  -0.251348  0  3.759754  0  -1.228659  0  -0.378527  -0.227226  0  3.750336  0
N  N79  1  0.24642132  0.49525709  0.60952433  1  0  -0.323457  0  3.462582  0  0  -0.236392  0  3.753691  0  0  -0.251544  0  3.75981  0  -1.228677  0  -0.378561  -0.227425  0  3.750403  0
N  N80  1  0.11393450  0.85650086  0.90289508  1  0  -0.121637  0  2.768507  0  0  -0.122729  0  3.047612  0  0  -0.119013  0  3.059051  0  -0.083459  0  -0.0984  -0.124597  0  3.039884  0
N  N81  1  0.38606972  0.64349716  0.90289234  1  0  -0.121629  0  2.768399  0  0  -0.122707  0  3.047499  0  0  -0.118993  0  3.058941  0  -0.083038  0  -0.098402  -0.124576  0  3.039773  0
N  N82  1  0.61393008  0.14349681  0.59710766  1  0  -0.121639  0  2.768443  0  0  -0.122717  0  3.04755  0  0  -0.119001  0  3.058989  0  -0.083134  0  -0.098397  -0.124585  0  3.039823  0
N  N83  1  0.88606530  0.35649950  0.59710424  1  0  -0.121659  0  2.768555  0  0  -0.122752  0  3.047639  0  0  -0.119035  0  3.059082  0  -0.083443  0  -0.098408  -0.124619  0  3.039911  0
N  N84  1  0.88606654  0.14349984  0.09710561  1  0  -0.121578  0  2.768432  0  0  -0.122676  0  3.047533  0  0  -0.118958  0  3.058976  0  -0.083486  0  -0.098368  -0.124543  0  3.039805  0
N  N85  1  0.61393132  0.35650354  0.09710834  1  0  -0.121642  0  2.768479  0  0  -0.12274  0  3.047593  0  0  -0.119024  0  3.05903  0  -0.083039  0  -0.098408  -0.124608  0  3.039866  0
N  N86  1  0.38606848  0.85650288  0.40289166  1  0  -0.121627  0  2.768533  0  0  -0.122729  0  3.047652  0  0  -0.119014  0  3.059094  0  -0.08292  0  -0.098394  -0.124597  0  3.039924  0
N  N87  1  0.11393450  0.64350019  0.40289576  1  0  -0.121696  0  2.768503  0  0  -0.122793  0  3.047608  0  0  -0.119076  0  3.059048  0  -0.084056  0  -0.098418  -0.124659  0  3.039878  0
N  N88  1  0.02518511  0.78458654  0.96441517  1  0  -0.283116  0  3.404471  0  0  -0.217767  0  3.739578  0  0  -0.229571  0  3.743692  0  -0.711009  0  -0.304427  -0.210265  0  3.736787  0
N  N89  1  0.47481295  0.71541551  0.96441311  1  0  -0.283151  0  3.404629  0  0  -0.217819  0  3.739747  0  0  -0.229639  0  3.743908  0  -0.711116  0  -0.304447  -0.210317  0  3.73696  0
N  N90  1  0.52518809  0.21541516  0.53558689  1  0  -0.283127  0  3.404642  0  0  -0.21781  0  3.739753  0  0  -0.229628  0  3.743908  0  -0.711102  0  -0.304457  -0.210309  0  3.736968  0
N  N91  1  0.97481346  0.28458620  0.53558415  1  0  -0.283131  0  3.404551  0  0  -0.217762  0  3.739622  0  0  -0.229575  0  3.743766  0  -0.711  0  -0.30445  -0.210261  0  3.736836  0
N  N92  1  0.97481470  0.21541415  0.03558483  1  0  -0.283133  0  3.404556  0  0  -0.217784  0  3.739637  0  0  -0.229599  0  3.743779  0  -0.711014  0  -0.304447  -0.210284  0  3.73685  0
N  N93  1  0.52518686  0.28458519  0.03558757  1  0  -0.283206  0  3.40469  0  0  -0.217852  0  3.739799  0  0  -0.229665  0  3.743942  0  -0.711134  0  -0.304451  -0.210349  0  3.737011  0
N  N94  1  0.47481171  0.78458453  0.46441243  1  0  -0.283184  0  3.404727  0  0  -0.217826  0  3.739839  0  0  -0.229642  0  3.743989  0  -0.711229  0  -0.304454  -0.210323  0  3.737049  0
N  N95  1  0.02518634  0.71541450  0.46441654  1  0  -0.283094  0  3.404486  0  0  -0.217728  0  3.739567  0  0  -0.229536  0  3.743695  0  -0.710386  0  -0.304445  -0.210225  0  3.736774  0
N  N96  1  0.20614512  0.94538923  0.94968585  1  0  0.252677  0  3.800903  0  0  0.294823  0  4.082297  0  0  0.297612  0  4.102905  0  -0.183214  0  -0.026751  0.292394  0  4.068405  0
N  N97  1  0.29386403  0.55460678  0.94968380  1  0  0.252647  0  3.800781  0  0  0.294879  0  4.082236  0  0  0.297674  0  4.102831  0  -0.183335  0  -0.026649  0.292449  0  4.068345  0
N  N98  1  0.70613577  0.05460542  0.55031620  1  0  0.252663  0  3.800867  0  0  0.294876  0  4.082312  0  0  0.297672  0  4.102909  0  -0.183233  0  -0.026633  0.292446  0  4.06842  0
N  N99  1  0.79385469  0.44538888  0.55031415  1  0  0.252682  0  3.800946  0  0  0.294846  0  4.082349  0  0  0.297635  0  4.102956  0  -0.183217  0  -0.026741  0.292417  0  4.068458  0
N  N100  1  0.79385469  0.05461147  0.05031483  1  0  0.252636  0  3.80085  0  0  0.294802  0  4.082275  0  0  0.297591  0  4.102882  0  -0.183194  0  -0.026747  0.292373  0  4.068383  0
N  N101  1  0.70613577  0.44539392  0.05031688  1  0  0.252744  0  3.800748  0  0  0.294954  0  4.082186  0  0  0.29775  0  4.10278  0  -0.183328  0  -0.026628  0.292523  0  4.068296  0
N  N102  1  0.29386403  0.94539427  0.44968243  1  0  0.252792  0  3.800731  0  0  0.294987  0  4.082161  0  0  0.29778  0  4.102759  0  -0.18334  0  -0.026603  0.292556  0  4.068269  0
N  N103  1  0.20614512  0.55461081  0.44968585  1  0  0.252687  0  3.800956  0  0  0.294848  0  4.082355  0  0  0.297636  0  4.102964  0  -0.183226  0  -0.026762  0.292418  0  4.068464  0
O  O104  1  0.30982783  0.02813780  0.91261584  1  0  -0.525878  0  1.781996  0  0  -0.489484  0  2.034134  0  0  -0.513851  0  2.030061  0  -0.620448  0  -0.23047  -0.472399  0  2.036627  0
O  O105  1  0.19018995  0.47185347  0.91261242  1  0  -0.525835  0  1.781986  0  0  -0.489468  0  2.034134  0  0  -0.513824  0  2.03006  0  -0.62045  0  -0.230506  -0.472379  0  2.03662  0
O  O106  1  0.80980862  0.97185282  0.58738690  1  0  -0.525837  0  1.782065  0  0  -0.489462  0  2.034218  0  0  -0.513822  0  2.030144  0  -0.620446  0  -0.230514  -0.472374  0  2.036705  0
O  O107  1  0.69017198  0.52813714  0.58738553  1  0  -0.525911  0  1.782053  0  0  -0.4895  0  2.034161  0  0  -0.513866  0  2.030087  0  -0.620471  0  -0.230477  -0.472414  0  2.036653  0
O  O108  1  0.69017198  0.97186290  0.08738553  1  0  -0.5259  0  1.782073  0  0  -0.489476  0  2.034172  0  0  -0.513846  0  2.030103  0  -0.620476  0  -0.230478  -0.472391  0  2.036665  0
O  O109  1  0.80980985  0.52814722  0.08738827  1  0  -0.525854  0  1.781963  0  0  -0.489483  0  2.03411  0  0  -0.513839  0  2.030035  0  -0.620471  0  -0.230512  -0.472394  0  2.036597  0
O  O110  1  0.19018872  0.02814687  0.41261173  1  0  -0.52587  0  1.782001  0  0  -0.489483  0  2.034136  0  0  -0.513839  0  2.030061  0  -0.620489  0  -0.230505  -0.472394  0  2.036623  0
O  O111  1  0.30982783  0.47186356  0.41261515  1  0  -0.525892  0  1.782038  0  0  -0.489493  0  2.034166  0  0  -0.51386  0  2.030095  0  -0.620454  0  -0.230458  -0.472407  0  2.036659  0
