# generated using pymatgen
data_CdH6C10I2(Br2N)2
_symmetry_space_group_name_H-M   'P 1'
_cell_length_a   4.13954908
_cell_length_b   14.68372303
_cell_length_c   14.68400544
_cell_angle_alpha   91.20306330
_cell_angle_beta   96.42221845
_cell_angle_gamma   96.42145652
_symmetry_Int_Tables_number   1
_chemical_formula_structural   CdH6C10I2(Br2N)2
_chemical_formula_sum   'Cd2 H12 C20 I4 Br8 N4'
_cell_volume   880.87922618
_cell_formula_units_Z   2
loop_
 _symmetry_equiv_pos_site_id
 _symmetry_equiv_pos_as_xyz
  1  'x, y, z'
loop_
 _atom_site_type_symbol
 _atom_site_label
 _atom_site_symmetry_multiplicity
 _atom_site_fract_x
 _atom_site_fract_y
 _atom_site_fract_z
 _atom_site_occupancy
 _atom_site_hle17_bader_spin_density
 _atom_site_hle17_ddec_charge
 _atom_site_hle17_ddec_spin_density
 _atom_site_hle17_ddec_sum_bond_order
 _atom_site_hle17_magmom
 _atom_site_hse06_10hf_bader_spin_density
 _atom_site_hse06_10hf_ddec_charge
 _atom_site_hse06_10hf_ddec_spin_density
 _atom_site_hse06_10hf_ddec_sum_bond_order
 _atom_site_hse06_10hf_magmom
 _atom_site_hse06_bader_spin_density
 _atom_site_hse06_ddec_charge
 _atom_site_hse06_ddec_spin_density
 _atom_site_hse06_ddec_sum_bond_order
 _atom_site_hse06_magmom
 _atom_site_pbe_bader_spin_density
 _atom_site_pbe_cm5_charge
 _atom_site_pbe_ddec_charge
 _atom_site_pbe_ddec_spin_density
 _atom_site_pbe_ddec_sum_bond_order
 _atom_site_pbe_magmom
Cd  Cd0  1  0.99997816  0.99999880  0.99999522  1  0  0.737813  0  2.110675  0  0  0.593244  0  2.534508  0  0  0.642414  0  2.503722  0  0  0.470316  0.559583  0  2.554654  0
Cd  Cd1  1  0.00001695  0.50000087  0.50000491  1  0  0.727605  0  2.095411  0  0  0.579051  0  2.520833  0  0  0.627968  0  2.490397  0  0  0.468437  0.545593  0  2.540686  0
H  H2  1  0.93740462  0.77569476  0.97391800  1  0  0.086158  0  0.968503  0  0  0.087174  0  1.047255  0  0  0.09121  0  1.042605  0  0  0.09546  0.084205  0  1.050692  0
H  H3  1  0.93743024  0.97391977  0.77569473  1  0  0.086014  0  0.96858  0  0  0.087078  0  1.047297  0  0  0.091108  0  1.042651  0  0  0.095452  0.084111  0  1.050739  0
H  H4  1  0.06253929  0.22430329  0.02607959  1  0  0.085994  0  0.968763  0  0  0.087147  0  1.047402  0  0  0.091181  0  1.042748  0  0  0.095445  0.08418  0  1.050839  0
H  H5  1  0.06252546  0.02607762  0.22429842  1  0  0.085873  0  0.968773  0  0  0.087055  0  1.047413  0  0  0.09109  0  1.042765  0  0  0.095441  0.084087  0  1.050849  0
H  H6  1  0.20708162  0.70658749  0.70659217  1  0  0.12102  0  0.978571  0  0  0.130457  0  1.043806  0  0  0.134738  0  1.039439  0  0  0.085571  0.127212  0  1.047246  0
H  H7  1  0.79294198  0.29341549  0.29340723  1  0  0.121028  0  0.978603  0  0  0.130432  0  1.043887  0  0  0.134713  0  1.039519  0  0  0.085577  0.127186  0  1.047332  0
H  H8  1  0.75085558  0.52478880  0.28278710  1  0  0.082745  0  0.989564  0  0  0.084368  0  1.068851  0  0  0.088424  0  1.06421  0  0  0.091258  0.081375  0  1.072276  0
H  H9  1  0.75082395  0.28278221  0.52479647  1  0  0.082739  0  0.989594  0  0  0.08432  0  1.068941  0  0  0.088376  0  1.064299  0  0  0.09126  0.081333  0  1.072357  0
H  H10  1  0.24919287  0.47520874  0.71722450  1  0  0.082735  0  0.989502  0  0  0.084241  0  1.068953  0  0  0.0883  0  1.064311  0  0  0.091265  0.081248  0  1.072373  0
H  H11  1  0.24920497  0.71722146  0.47521195  1  0  0.082804  0  0.989523  0  0  0.08441  0  1.06886  0  0  0.088468  0  1.064218  0  0  0.091311  0.081419  0  1.072279  0
H  H12  1  0.00000464  0.80231953  0.19768197  1  0  0.122919  0  0.980335  0  0  0.132842  0  1.044699  0  0  0.137252  0  1.040011  0  0  0.08554  0.129417  0  1.048482  0
H  H13  1  0.00000647  0.19767394  0.80232155  1  0  0.12295  0  0.980235  0  0  0.132883  0  1.044557  0  0  0.137299  0  1.039863  0  0  0.085516  0.129454  0  1.048345  0
C  C14  1  0.97557346  0.79274054  0.90372944  1  0  0.069908  0  3.70954  0  0  0.029332  0  3.966419  0  0  0.037611  0  3.981894  0  0  0.025606  0.023925  0  3.956086  0
C  C15  1  0.97559620  0.90373614  0.79274403  1  0  0.070092  0  3.709647  0  0  0.029484  0  3.966479  0  0  0.03778  0  3.981932  0  0  0.02564  0.024063  0  3.956164  0
C  C16  1  0.02437458  0.20726232  0.09626020  1  0  0.069866  0  3.709916  0  0  0.029171  0  3.966689  0  0  0.037467  0  3.98215  0  0  0.025576  0.023745  0  3.956357  0
C  C17  1  0.02436720  0.09626880  0.20724408  1  0  0.070115  0  3.709369  0  0  0.02936  0  3.966306  0  0  0.037636  0  3.981789  0  0  0.025551  0.023947  0  3.955968  0
C  C18  1  0.06862956  0.72912774  0.84275212  1  0  0.064015  0  3.683205  0  0  0.085779  0  3.948417  0  0  0.083897  0  3.970586  0  0  -0.015573  0.08647  0  3.933658  0
C  C19  1  0.06868497  0.84273789  0.72912268  1  0  0.064286  0  3.683185  0  0  0.086071  0  3.948343  0  0  0.084198  0  3.970495  0  0  -0.015408  0.086765  0  3.933592  0
C  C20  1  0.93131495  0.27088402  0.15725123  1  0  0.064083  0  3.683947  0  0  0.085946  0  3.949007  0  0  0.084029  0  3.971241  0  0  -0.015494  0.086663  0  3.934221  0
C  C21  1  0.93133118  0.15725275  0.27086601  1  0  0.064158  0  3.682587  0  0  0.085937  0  3.947867  0  0  0.084056  0  3.970033  0  0  -0.015434  0.086629  0  3.933117  0
C  C22  1  0.12330898  0.75421584  0.75420620  1  0  -0.099076  0  3.704091  0  0  -0.132278  0  3.947369  0  0  -0.129826  0  3.964931  0  0  -0.09036  -0.13353  0  3.935681  0
C  C23  1  0.87669240  0.24579944  0.24577850  1  0  -0.099082  0  3.704226  0  0  -0.132282  0  3.947485  0  0  -0.129821  0  3.965047  0  0  -0.090377  -0.133544  0  3.935799  0
C  C24  1  0.86084867  0.59541420  0.29684726  1  0  0.070512  0  3.698278  0  0  0.029334  0  3.951513  0  0  0.036969  0  3.967594  0  0  0.026947  0.024355  0  3.940769  0
C  C25  1  0.86081746  0.29683114  0.59541972  1  0  0.070538  0  3.697904  0  0  0.029428  0  3.951101  0  0  0.037058  0  3.967184  0  0  0.026852  0.024452  0  3.94036  0
C  C26  1  0.13917062  0.40458397  0.70315122  1  0  0.070665  0  3.698484  0  0  0.029606  0  3.951626  0  0  0.037246  0  3.967708  0  0  0.026972  0.024627  0  3.940866  0
C  C27  1  0.13921795  0.70315815  0.40458655  1  0  0.070496  0  3.69798  0  0  0.029313  0  3.951188  0  0  0.036943  0  3.967275  0  0  0.026821  0.024333  0  3.94044  0
C  C28  1  0.85501683  0.66087092  0.22937353  1  0  0.061511  0  3.691377  0  0  0.084322  0  3.956907  0  0  0.082691  0  3.979171  0  0  -0.015458  0.084889  0  3.942064  0
C  C29  1  0.85499706  0.22936623  0.66087895  1  0  0.061336  0  3.691517  0  0  0.084152  0  3.957064  0  0  0.082523  0  3.979329  0  0  -0.015485  0.084706  0  3.942239  0
C  C30  1  0.14500181  0.33911903  0.77063157  1  0  0.061437  0  3.691159  0  0  0.084301  0  3.956617  0  0  0.08267  0  3.978879  0  0  -0.015419  0.084876  0  3.94176  0
C  C31  1  0.14499932  0.77062917  0.33912151  1  0  0.061429  0  3.691276  0  0  0.084294  0  3.956754  0  0  0.082663  0  3.979019  0  0  -0.015401  0.084863  0  3.94191  0
C  C32  1  0.00000712  0.75040940  0.24958581  1  0  -0.100129  0  3.701195  0  0  -0.137545  0  3.94905  0  0  -0.135104  0  3.966119  0  0  -0.088993  -0.138774  0  3.937739  0
C  C33  1  0.00001589  0.24958958  0.75041954  1  0  -0.100116  0  3.701044  0  0  -0.137537  0  3.948917  0  0  -0.135103  0  3.965982  0  0  -0.088955  -0.138762  0  3.937606  0
I  I34  1  0.49997828  0.89998316  0.10001156  1  0  -0.437126  0  1.296323  0  0  -0.38623  0  1.651911  0  0  -0.409464  0  1.631937  0  0  -0.191202  -0.369422  0  1.665507  0
I  I35  1  0.49999013  0.10001563  0.89998201  1  0  -0.437126  0  1.296385  0  0  -0.386237  0  1.651962  0  0  -0.409472  0  1.631995  0  0  -0.191173  -0.369427  0  1.66556  0
I  I36  1  0.58525675  0.60401869  0.60401977  1  0  -0.422673  0  1.28427  0  0  -0.373035  0  1.63766  0  0  -0.39514  0  1.617061  0  0  -0.184184  -0.35713  0  1.651716  0
I  I37  1  0.41477050  0.39598087  0.39598579  1  0  -0.42271  0  1.284189  0  0  -0.373083  0  1.637562  0  0  -0.395186  0  1.616962  0  0  -0.184232  -0.357175  0  1.651619  0
Br  Br38  1  0.13028259  0.60861506  0.88039486  1  0  -0.062749  0  1.345191  0  0  -0.06199  0  1.623556  0  0  -0.065647  0  1.61666  0  0  0.033158  -0.05932  0  1.628497  0
Br  Br39  1  0.13032649  0.88039602  0.60862769  1  0  -0.062749  0  1.345191  0  0  -0.062009  0  1.623609  0  0  -0.065661  0  1.616691  0  0  0.033215  -0.059332  0  1.628544  0
Br  Br40  1  0.86971221  0.39138239  0.11960832  1  0  -0.062579  0  1.345625  0  0  -0.061865  0  1.623996  0  0  -0.065498  0  1.617078  0  0  0.033291  -0.059198  0  1.628924  0
Br  Br41  1  0.86970714  0.11960697  0.39138631  1  0  -0.062809  0  1.344845  0  0  -0.062054  0  1.623228  0  0  -0.065697  0  1.616305  0  0  0.033118  -0.05938  0  1.628163  0
Br  Br42  1  0.64550705  0.62749814  0.10962206  1  0  -0.054584  0  1.353335  0  0  -0.050475  0  1.62971  0  0  -0.054758  0  1.623227  0  0  0.036856  -0.047384  0  1.634404  0
Br  Br43  1  0.64548448  0.10961315  0.62750180  1  0  -0.054506  0  1.353337  0  0  -0.05042  0  1.629763  0  0  -0.054704  0  1.623283  0  0  0.036887  -0.047326  0  1.634466  0
Br  Br44  1  0.35453008  0.37249527  0.89038979  1  0  -0.05455  0  1.35316  0  0  -0.050478  0  1.629543  0  0  -0.054763  0  1.623067  0  0  0.036862  -0.047392  0  1.634232  0
Br  Br45  1  0.35452457  0.89038980  0.37249921  1  0  -0.054558  0  1.353112  0  0  -0.050485  0  1.629516  0  0  -0.054772  0  1.623045  0  0  0.036843  -0.047397  0  1.634209  0
N  N46  1  0.93742641  0.87859373  0.87856991  1  0  -0.278702  0  3.268522  0  0  -0.202182  0  3.524083  0  0  -0.223371  0  3.547869  0  0  -0.323089  -0.187887  0  3.507675  0
N  N47  1  0.06251886  0.12142147  0.12140493  1  0  -0.278435  0  3.268161  0  0  -0.2019  0  3.52382  0  0  -0.22308  0  3.547592  0  0  -0.323028  -0.1876  0  3.507397  0
N  N48  1  0.00001862  0.61740279  0.38259866  1  0  -0.274264  0  3.276958  0  0  -0.194176  0  3.530044  0  0  -0.215406  0  3.554513  0  0  -0.319387  -0.179817  0  3.513099  0
N  N49  1  0.00001019  0.38259825  0.61741372  1  0  -0.274315  0  3.277069  0  0  -0.19427  0  3.530182  0  0  -0.215505  0  3.554663  0  0  -0.319393  -0.179914  0  3.513235  0
