# generated using pymatgen
data_CuH8C10S2IN2
_symmetry_space_group_name_H-M   'P 1'
_cell_length_a   8.89714231
_cell_length_b   8.91443450
_cell_length_c   9.81931925
_cell_angle_alpha   93.15045977
_cell_angle_beta   98.88401848
_cell_angle_gamma   104.25848139
_symmetry_Int_Tables_number   1
_chemical_formula_structural   CuH8C10S2IN2
_chemical_formula_sum   'Cu2 H16 C20 S4 I2 N4'
_cell_volume   742.22768783
_cell_formula_units_Z   2
loop_
 _symmetry_equiv_pos_site_id
 _symmetry_equiv_pos_as_xyz
  1  'x, y, z'
loop_
 _atom_site_type_symbol
 _atom_site_label
 _atom_site_symmetry_multiplicity
 _atom_site_fract_x
 _atom_site_fract_y
 _atom_site_fract_z
 _atom_site_occupancy
 _atom_site_pbe_bader_charge
 _atom_site_pbe_bader_spin_density
 _atom_site_pbe_cm5_charge
 _atom_site_pbe_ddec_charge
 _atom_site_pbe_ddec_spin_density
 _atom_site_pbe_ddec_sum_bond_order
 _atom_site_pbe_magmom
Cu  Cu0  1  0.44442611  0.03116401  0.88091992  1  0.514304  0  0.352175  0.204648  0  2.708365  0
Cu  Cu1  1  0.55556647  0.96884296  0.11908784  1  0.51467  0  0.352134  0.204583  0  2.708431  0
H  H2  1  0.24750635  0.70900564  0.79795479  1  0.117941  0  0.097687  0.0754  0  1.04531  0
H  H3  1  0.75248399  0.29098850  0.20205910  1  0.118122  0  0.097653  0.075342  0  1.045421  0
H  H4  1  0.98428363  0.58054770  0.65524948  1  0.079779  0  0.093826  0.102057  0  1.059186  0
H  H5  1  0.01571197  0.41944987  0.34475707  1  0.079858  0  0.093794  0.102012  0  1.059254  0
H  H6  1  0.90322748  0.03866860  0.63014964  1  0.107599  0  0.104094  0.119194  0  1.004394  0
H  H7  1  0.09677987  0.96132530  0.36982852  1  0.107592  0  0.10402  0.119134  0  1.004326  0
H  H8  1  0.16764374  0.14569808  0.77618710  1  0.108539  0  0.109496  0.080459  0  1.00379  0
H  H9  1  0.83235619  0.85430180  0.22379055  1  0.108491  0  0.109455  0.080464  0  1.003747  0
H  H10  1  0.59817098  0.00664999  0.63923946  1  0.116988  0  0.098163  0.069284  0  1.046601  0
H  H11  1  0.40182678  0.99335573  0.36076374  1  0.117064  0  0.098164  0.069307  0  1.046551  0
H  H12  1  0.69281068  0.17941055  0.46135572  1  0.106518  0  0.101573  0.119048  0  1.025695  0
H  H13  1  0.30717523  0.82058606  0.53863844  1  0.106682  0  0.101543  0.119043  0  1.025749  0
H  H14  1  0.64577325  0.56613413  0.72492832  1  0.125159  0  0.081594  0.107405  0  1.092844  0
H  H15  1  0.35422831  0.43386100  0.27507267  1  0.125075  0  0.081579  0.1074  0  1.092813  0
H  H16  1  0.54805633  0.37597234  0.88704322  1  0.113776  0  0.097818  0.078038  0  1.036931  0
H  H17  1  0.45195662  0.62403075  0.11296160  1  0.113816  0  0.097806  0.078007  0  1.036889  0
C  C18  1  0.16644739  0.77706395  0.75837691  1  0.431546  0  0.033787  0.095174  0  3.937577  0
C  C19  1  0.83355026  0.22293709  0.24162804  1  0.431393  0  0.033837  0.095281  0  3.93732  0
C  C20  1  0.02007460  0.70629171  0.67913016  1  0.058754  0  -0.098854  -0.187266  0  3.999441  0
C  C21  1  0.97992230  0.29371051  0.32087681  1  0.058848  0  -0.098835  -0.18723  0  3.999313  0
C  C22  1  0.92308996  0.79958522  0.62797337  1  -0.181388  0  -0.004096  0.089553  0  4.02716  0
C  C23  1  0.07690494  0.20040653  0.37202563  1  -0.18154  0  -0.004077  0.089582  0  4.027187  0
C  C24  1  0.97514877  0.96067083  0.66482285  1  -0.027053  0  -0.091635  -0.170852  0  3.963519  0
C  C25  1  0.02485437  0.03932781  0.33516019  1  -0.027629  0  -0.091581  -0.170846  0  3.963606  0
C  C26  1  0.12299658  0.02111809  0.74550763  1  0.464465  0  0.037892  0.09192  0  3.947669  0
C  C27  1  0.87701138  0.97888044  0.25448616  1  0.464914  0  0.037936  0.091945  0  3.94758  0
C  C28  1  0.60921528  0.13163277  0.65264737  1  0.436016  0  0.030059  0.085284  0  3.953875  0
C  C29  1  0.39078404  0.86837059  0.34735383  1  0.43607  0  0.030076  0.085354  0  3.953709  0
C  C30  1  0.66390046  0.22848663  0.55495611  1  -0.003099  0  -0.100061  -0.188925  0  3.975035  0
C  C31  1  0.33608565  0.77150995  0.44504520  1  -0.00355  0  -0.099999  -0.189008  0  3.975003  0
C  C32  1  0.67640008  0.38843354  0.57817551  1  -0.20305  0  -0.007233  0.085838  0  4.033711  0
C  C33  1  0.32359656  0.61156402  0.42182811  1  -0.202745  0  -0.007275  0.08585  0  4.033588  0
C  C34  1  0.63787204  0.44320514  0.70079352  1  -0.019121  0  -0.10388  -0.192842  0  4.002898  0
C  C35  1  0.36213642  0.55679803  0.29921179  1  -0.019316  0  -0.103896  -0.1929  0  4.002967  0
C  C36  1  0.58242640  0.33743735  0.79160504  1  0.460697  0  0.036653  0.105288  0  3.916378  0
C  C37  1  0.41757992  0.66256236  0.20839880  1  0.460984  0  0.036687  0.105375  0  3.916473  0
S  S38  1  0.73731632  0.72672556  0.52062719  1  0.081189  0  0.060818  0.035867  0  2.849741  0
S  S39  1  0.26268421  0.27326609  0.47937144  1  0.081296  0  0.060842  0.035881  0  2.849781  0
S  S40  1  0.73646491  0.50824111  0.44817562  1  0.078943  0  0.061296  0.029892  0  2.820831  0
S  S41  1  0.26352830  0.49174833  0.55182611  1  0.078758  0  0.061284  0.029897  0  2.820715  0
I  I42  1  0.59324552  0.80670591  0.89672122  1  -0.511212  0  -0.258808  -0.446485  0  1.736037  0
I  I43  1  0.40678084  0.19333317  0.10328520  1  -0.511222  0  -0.258776  -0.446478  0  1.736048  0
N  N44  1  0.22045395  0.93232542  0.78949780  1  -1.228334  0  -0.364649  -0.191725  0  3.637845  0
N  N45  1  0.77954568  0.06767092  0.21050304  1  -1.228247  0  -0.364685  -0.191788  0  3.637483  0
N  N46  1  0.56524141  0.18292133  0.76852345  1  -1.229139  0  -0.3677  -0.196231  0  3.643192  0
N  N47  1  0.43476067  0.81707963  0.23147896  1  -1.229199  0  -0.367701  -0.19623  0  3.643237  0
