# generated using pymatgen
data_Cu7H66C48(N6O23)2
_symmetry_space_group_name_H-M   'P 1'
_cell_length_a   11.59371657
_cell_length_b   12.86347699
_cell_length_c   16.31679933
_cell_angle_alpha   72.52328336
_cell_angle_beta   80.61783729
_cell_angle_gamma   65.33915446
_symmetry_Int_Tables_number   1
_chemical_formula_structural   Cu7H66C48(N6O23)2
_chemical_formula_sum   'Cu7 H66 C48 N12 O46'
_cell_volume   2107.39027605
_cell_formula_units_Z   1
loop_
 _symmetry_equiv_pos_site_id
 _symmetry_equiv_pos_as_xyz
  1  'x, y, z'
loop_
 _atom_site_type_symbol
 _atom_site_label
 _atom_site_symmetry_multiplicity
 _atom_site_fract_x
 _atom_site_fract_y
 _atom_site_fract_z
 _atom_site_occupancy
 _atom_site_pbe_bader_charge
 _atom_site_pbe_bader_spin_density
 _atom_site_pbe_cm5_charge
 _atom_site_pbe_ddec_charge
 _atom_site_pbe_ddec_spin_density
 _atom_site_pbe_ddec_sum_bond_order
 _atom_site_pbe_magmom
Cu  Cu0  1  0.52882705  0.48507603  0.42196048  1  1.091442  -0.546307  0.681268  0.829686  -0.687948  2.285388  -0.544
Cu  Cu1  1  0.47109082  0.51497700  0.57810771  1  1.092049  0.546523  0.681039  0.82913  0.686387  2.286206  0.544
Cu  Cu2  1  0.99977645  0.49980531  0.00020935  1  1.163611  0.587857  0.697591  0.995347  0.732104  2.099885  0.586
Cu  Cu3  1  0.69482856  0.57028947  0.98908303  1  1.143629  0.571924  0.689251  0.997596  0.715874  2.080746  0.573
Cu  Cu4  1  0.30431812  0.42920120  0.01077074  1  1.142978  -0.566058  0.688165  0.995967  -0.710419  2.085926  -0.567
Cu  Cu5  1  0.11800616  0.72438971  0.98722780  1  1.140554  0.566822  0.698993  1.007006  0.709946  2.152764  0.566
Cu  Cu6  1  0.88180480  0.27559343  0.01264759  1  1.136836  -0.557609  0.696667  1.003478  -0.700049  2.149749  -0.557
H  H7  1  0.54597186  0.88078766  0.50425256  1  0.10729  5.4e-05  0.114518  0.101521  4e-05  0.994234  0.0
H  H8  1  0.45392602  0.11931125  0.49577265  1  0.108362  -5.2e-05  0.114564  0.101388  -4.1e-05  0.994159  0.0
H  H9  1  0.66836029  0.75171278  0.56003679  1  0.114069  0.000159  0.117803  0.105088  0.000124  0.996844  0.0
H  H10  1  0.33156298  0.24836187  0.43995507  1  0.113927  -0.000157  0.117688  0.104781  -0.000125  0.99694  0.0
H  H11  1  0.61243307  0.81455345  0.36884554  1  0.094768  0.000872  0.108849  0.131326  0.000436  0.963922  0.0
H  H12  1  0.38745553  0.18551624  0.63115229  1  0.094903  -0.000793  0.10878  0.131276  -0.000385  0.963784  0.0
H  H13  1  0.75108569  0.69854047  0.41654954  1  0.082209  0.000834  0.110015  0.128212  0.000455  0.978545  0.0
H  H14  1  0.24877948  0.30150571  0.58347392  1  0.083041  -0.000821  0.109889  0.128134  -0.000447  0.978442  0.0
H  H15  1  0.68631785  0.12975592  0.26425613  1  0.106962  -0.0  0.113741  0.09681  -1.1e-05  0.989153  0.0
H  H16  1  0.31362503  0.87033872  0.73570832  1  0.107542  -1e-06  0.11361  0.096604  1e-05  0.989585  0.0
H  H17  1  0.83594253  0.13701967  0.26769311  1  0.108045  -9e-06  0.116468  0.103501  -1e-06  0.975957  0.0
H  H18  1  0.16397459  0.86307453  0.73231009  1  0.10742  2e-06  0.116411  0.103366  -6e-06  0.976142  0.0
H  H19  1  0.74494740  0.25613133  0.37551144  1  0.079505  7e-06  0.101092  0.127586  -9e-06  1.019159  0.0
H  H20  1  0.25493108  0.74369748  0.62468295  1  0.087619  -1e-05  0.100931  0.12736  8e-06  1.019184  0.0
H  H21  1  0.60108423  0.23822124  0.38260003  1  0.090705  3.7e-05  0.10355  0.131881  1.2e-05  1.004568  0.0
H  H22  1  0.39875268  0.76186610  0.61731148  1  0.091765  -3.7e-05  0.103468  0.131581  -1.2e-05  1.004146  0.0
H  H23  1  0.07042938  0.73980967  0.55291189  1  0.1253  0.000199  0.116333  0.103566  0.000174  0.987992  0.0
H  H24  1  0.92949681  0.26022338  0.44706942  1  0.124662  -0.000201  0.116202  0.103103  -0.000178  0.988538  0.0
H  H25  1  0.10653867  0.86411382  0.49335469  1  0.081075  5.3e-05  0.112307  0.093371  3.4e-05  0.987009  0.0
H  H26  1  0.89340154  0.13592516  0.50660328  1  0.082373  -5.2e-05  0.112217  0.093053  -3.5e-05  0.987164  0.0
H  H27  1  0.09851219  0.67899965  0.41250130  1  0.114416  0.000557  0.111008  0.14225  0.000293  0.974602  0.0
H  H28  1  0.90142040  0.32100066  0.58748039  1  0.114691  -0.000553  0.111021  0.142101  -0.000293  0.974713  0.0
H  H29  1  0.15284638  0.79304074  0.36073248  1  0.070773  0.001116  0.10661  0.128156  0.000547  0.964756  0.0
H  H30  1  0.84705996  0.20698266  0.63922780  1  0.071182  -0.0011  0.106636  0.128104  -0.000537  0.964683  0.0
H  H31  1  0.81016724  0.59331842  0.33352706  1  0.078376  0.001025  0.11346  0.095039  0.000489  1.007889  0.001
H  H32  1  0.19018453  0.40665927  0.66670888  1  0.080249  -0.000305  0.113515  0.095833  -0.000117  1.007707  0.0
H  H33  1  0.76649654  0.51355067  0.28115401  1  0.13708  7.7e-05  0.119665  0.113203  2.3e-05  0.998942  0.0
H  H34  1  0.23364457  0.48629406  0.71930596  1  0.139545  -4.3e-05  0.119642  0.113438  -2.5e-05  0.999409  0.0
H  H35  1  0.69858027  0.72689617  0.20373435  1  0.073458  0.002569  0.107874  0.13395  0.001257  0.959701  0.002
H  H36  1  0.30124791  0.27288367  0.79663109  1  0.06324  0.002517  0.108019  0.134027  0.001205  0.958783  0.001
H  H37  1  0.85963619  0.71468126  0.19382485  1  0.045706  0.000243  0.101794  0.119506  8e-05  0.986694  0.0
H  H38  1  0.14005927  0.28538652  0.80632041  1  0.043494  -0.000569  0.101894  0.119768  -0.000275  0.98598  0.0
H  H39  1  0.36886803  0.37941701  0.29331591  1  0.092739  5e-06  0.120382  0.106348  -2.1e-05  0.992739  0.0
H  H40  1  0.63135607  0.62055189  0.70639630  1  0.095897  1e-06  0.120832  0.107063  2.3e-05  0.992419  0.0
H  H41  1  0.27020705  0.47374251  0.35914135  1  0.08883  0.000747  0.115179  0.104739  0.00039  0.985416  0.0
H  H42  1  0.73011957  0.52634877  0.64050087  1  0.085758  -0.000686  0.114722  0.104137  -0.000362  0.985833  0.0
H  H43  1  0.38527897  0.56411381  0.22949473  1  0.138211  4.2e-05  0.114194  0.152686  1.5e-05  0.995674  0.0
H  H44  1  0.61508795  0.43576212  0.77008608  1  0.138289  -3.1e-05  0.114356  0.152927  -6e-06  0.995881  0.0
H  H45  1  0.22066987  0.64815100  0.24228112  1  0.053578  -0.002185  0.09808  0.119613  -0.001076  0.995803  -0.001
H  H46  1  0.77977657  0.35181201  0.75735865  1  0.055275  0.002262  0.098524  0.120122  0.001104  0.995299  0.001
H  H47  1  0.05278306  0.14947977  0.28455420  1  0.15349  -8.2e-05  0.117581  0.109449  -3.7e-05  1.021776  0.0
H  H48  1  0.94699334  0.85059960  0.71558161  1  0.154953  9.4e-05  0.11771  0.109878  3.4e-05  1.021657  0.0
H  H49  1  0.21235909  0.10667071  0.31100043  1  0.076832  -0.000331  0.119267  0.105836  -0.000165  0.946276  0.0
H  H50  1  0.78757396  0.89323983  0.68904085  1  0.076063  0.001154  0.119185  0.105756  0.000589  0.946929  0.001
H  H51  1  0.19835207  0.05579153  0.17690972  1  0.079316  0.001806  0.108473  0.134261  0.000855  0.953838  0.001
H  H52  1  0.80123125  0.94408046  0.82327412  1  0.082712  0.002373  0.10846  0.134323  0.001195  0.95336  0.002
H  H53  1  0.28187988  0.15051642  0.16103725  1  0.041003  -0.001614  0.097456  0.098342  -0.000809  1.039269  -0.001
H  H54  1  0.71802999  0.84916042  0.83903679  1  0.038518  0.001386  0.097582  0.098443  0.000674  1.039545  0.001
H  H55  1  0.81928202  0.40912513  0.10366464  1  0.593701  -0.000285  0.299772  0.392605  -1.8e-05  0.922489  0.0
H  H56  1  0.18067540  0.59109341  0.89603960  1  0.593741  0.000131  0.299966  0.394351  3.1e-05  0.921651  0.0
H  H57  1  0.33776376  0.76257630  0.94608956  1  0.593237  -8.8e-05  0.302596  0.400151  -5.1e-05  0.897815  0.0
H  H58  1  0.66174751  0.23823845  0.05369914  1  0.601144  8.2e-05  0.302733  0.400769  4.3e-05  0.897163  0.0
H  H59  1  0.30636367  0.74304299  0.86425468  1  0.63863  -6e-06  0.280875  0.383363  -2.9e-05  0.964942  0.0
H  H60  1  0.69350700  0.25729586  0.13566876  1  0.633823  4e-06  0.280899  0.383159  2.7e-05  0.965344  0.0
H  H61  1  0.07908752  0.83745537  0.09430450  1  0.626369  -0.000698  0.323891  0.409136  -0.000219  0.886005  0.0
H  H62  1  0.92144722  0.16194782  0.90567904  1  0.626285  0.000666  0.32467  0.409878  0.000196  0.884593  0.0
H  H63  1  0.95946176  0.93139274  0.03931718  1  0.616274  0.000811  0.332723  0.421274  0.000697  0.857431  0.001
H  H64  1  0.03998918  0.06773989  0.96162340  1  0.617452  -0.000886  0.331796  0.420791  -0.000743  0.858819  -0.001
H  H65  1  0.54759252  0.61412711  0.11856367  1  0.608531  -0.000236  0.303733  0.389726  -0.000119  0.906601  0.0
H  H66  1  0.45408167  0.38573390  0.88152338  1  0.617019  0.000163  0.303446  0.389085  8.2e-05  0.905845  0.0
H  H67  1  0.56774425  0.48420126  0.12651614  1  0.635091  -9.1e-05  0.280035  0.376014  -5.4e-05  0.974652  0.0
H  H68  1  0.43315105  0.51563378  0.87386857  1  0.638452  7e-05  0.279508  0.375446  5.2e-05  0.97505  0.0
H  H69  1  0.59383976  0.79501877  0.92814578  1  0.61194  0.000248  0.329862  0.406444  0.000469  0.869402  0.0
H  H70  1  0.40627182  0.20429118  0.07203541  1  0.608925  -0.000253  0.329584  0.405849  -0.000468  0.86963  0.0
H  H71  1  0.60149708  0.73343863  0.85588420  1  0.665669  -2.4e-05  0.314946  0.413341  0.000344  0.900071  0.0
H  H72  1  0.39786474  0.26653839  0.14408700  1  0.667368  3.5e-05  0.314482  0.412896  -0.000326  0.901017  0.0
C  C73  1  0.69135470  0.98096849  0.40752558  1  1.804223  -9.2e-05  0.344132  0.54758  -6.8e-05  4.166581  0.0
C  C74  1  0.30857117  0.01908214  0.59243804  1  1.804351  9.2e-05  0.344327  0.548063  6.7e-05  4.16686  0.0
C  C75  1  0.90662744  0.97486963  0.40411803  1  1.818869  -0.000122  0.344725  0.549541  -8.6e-05  4.176361  0.0
C  C76  1  0.09333867  0.02512931  0.59582749  1  1.818468  0.000121  0.344451  0.549207  8.6e-05  4.176514  0.0
C  C77  1  0.85406208  0.80893155  0.49645145  1  1.815828  -0.000209  0.344246  0.554793  -0.000185  4.165576  0.0
C  C78  1  0.14587686  0.19109328  0.50350089  1  1.813704  0.000209  0.344464  0.554491  0.000182  4.166296  0.0
C  C79  1  0.64100628  0.81395456  0.49729181  1  0.295923  -0.001851  -0.059853  -0.017814  -0.001096  3.882825  -0.002
C  C80  1  0.35888808  0.18613543  0.50271329  1  0.293758  0.001852  -0.059764  -0.017196  0.001089  3.882653  0.002
C  C81  1  0.65004127  0.75048565  0.42980903  1  -0.07511  -2.7e-05  -0.156462  -0.305564  -0.000224  3.897199  0.0
C  C82  1  0.34983874  0.24960095  0.57019739  1  -0.074607  7.6e-05  -0.156542  -0.305995  0.000263  3.896717  0.0
C  C83  1  0.58567412  0.66346155  0.45504803  1  1.565122  1.3e-05  0.216851  0.629479  -7e-05  4.130081  0.0
C  C84  1  0.41420855  0.33662505  0.54496358  1  1.562847  -7e-06  0.217074  0.630353  6e-05  4.130139  0.0
C  C85  1  0.74828459  0.13659659  0.30454810  1  0.243183  1.3e-05  -0.059723  -0.012651  3e-06  3.885245  0.0
C  C86  1  0.25164780  0.86345594  0.69545167  1  0.242587  -1.6e-05  -0.059686  -0.012286  -5e-06  3.884644  0.0
C  C87  1  0.68117284  0.24613852  0.33838236  1  -0.046969  -3e-05  -0.175839  -0.350205  2e-05  3.929563  0.0
C  C88  1  0.31878454  0.75384955  0.66166305  1  -0.055508  6.1e-05  -0.17601  -0.3499  2e-06  3.929005  0.0
C  C89  1  0.62724495  0.36137269  0.26939840  1  1.590851  0.000231  0.214108  0.654876  0.000174  4.123559  0.0
C  C90  1  0.37302040  0.63872328  0.73068150  1  1.587021  -0.000244  0.213881  0.654394  -0.000182  4.126183  0.0
C  C91  1  0.06957790  0.80032101  0.48937660  1  0.270393  -0.001688  -0.058763  -0.015368  -0.000972  3.896823  -0.001
C  C92  1  0.93034748  0.19971373  0.51058969  1  0.269926  0.001682  -0.058761  -0.01464  0.000963  3.896657  0.001
C  C93  1  0.14585270  0.73213980  0.42325695  1  -0.066918  -7.7e-05  -0.157513  -0.308076  -0.000239  3.885767  0.0
C  C94  1  0.85406898  0.26787815  0.57670218  1  -0.067276  8.2e-05  -0.157378  -0.307631  0.000236  3.885688  0.0
C  C95  1  0.27903729  0.64730966  0.45051517  1  1.573605  0.000219  0.216562  0.627411  0.000132  4.126593  0.001
C  C96  1  0.72088432  0.35273219  0.54945292  1  1.574947  -0.000212  0.21626  0.626623  -0.000141  4.127467  -0.001
C  C97  1  0.05346756  0.50503770  0.29458197  1  1.809836  0.000199  0.35004  0.58054  0.000204  4.111991  0.0
C  C98  1  0.94672133  0.49496348  0.70532403  1  1.809531  2e-06  0.350073  0.580365  0.0  4.111746  0.0
C  C99  1  0.21011162  0.31769185  0.26940383  1  1.803807  9.3e-05  0.352501  0.571392  7.7e-05  4.147232  0.0
C  C100  1  0.78999504  0.68225511  0.73047116  1  1.810863  0.000111  0.351838  0.569599  0.000125  4.148529  0.0
C  C101  1  0.98351357  0.36755130  0.26082714  1  1.827481  -8.5e-05  0.349002  0.569063  -7.5e-05  4.141964  0.0
C  C102  1  0.01645450  0.63247091  0.73933991  1  1.826681  -3.8e-05  0.349224  0.56809  -4.8e-05  4.142665  0.0
C  C103  1  0.82782297  0.56099608  0.27611366  1  0.293531  0.000599  -0.053872  -0.015477  0.000356  3.841766  0.0
C  C104  1  0.17227070  0.43895229  0.72416032  1  0.29145  -0.001022  -0.053746  -0.016766  -0.000667  3.842761  -0.001
C  C105  1  0.79817341  0.66770011  0.19646950  1  -0.017339  0.013409  -0.159079  -0.311019  0.009471  3.87454  0.01
C  C106  1  0.20165868  0.33218937  0.80375995  1  -0.003939  0.002611  -0.158414  -0.309444  0.001918  3.872355  0.002
C  C107  1  0.81881263  0.63019884  0.11358732  1  1.541344  -5.9e-05  0.216707  0.66221  0.001328  4.082622  -0.002
C  C108  1  0.18068799  0.37000484  0.88654425  1  1.542073  -0.000769  0.216536  0.66186  -0.00039  4.0811  -0.002
C  C109  1  0.28221973  0.45791061  0.29543805  1  0.318428  0.002431  -0.056645  -0.012424  0.001519  3.859957  0.002
C  C110  1  0.71802172  0.54208799  0.70424224  1  0.316456  -0.002352  -0.056601  -0.012778  -0.001473  3.861331  -0.002
C  C111  1  0.28986172  0.56613466  0.22752645  1  -0.033089  -0.001962  -0.166457  -0.334003  -0.001333  3.899595  -0.001
C  C112  1  0.71046822  0.43380448  0.77208401  1  -0.013733  0.002973  -0.166228  -0.333671  0.002054  3.897689  0.002
C  C113  1  0.27030321  0.56977421  0.13733346  1  1.566598  1.5e-05  0.226227  0.677141  -0.000173  4.089574  0.0
C  C114  1  0.72998229  0.43014777  0.86229751  1  1.545818  5e-05  0.227389  0.679504  0.000225  4.088033  0.0
C  C115  1  0.13934109  0.16635878  0.26428531  1  0.291217  -0.000771  -0.052223  -0.015051  -0.000513  3.862393  -0.001
C  C116  1  0.86051508  0.83360562  0.73579020  1  0.291309  0.000568  -0.052479  -0.016475  0.000343  3.864843  0.0
C  C117  1  0.18875861  0.14487002  0.17527072  1  -0.049737  0.001095  -0.158505  -0.304262  0.000672  3.88934  0.001
C  C118  1  0.81108433  0.85494534  0.82482883  1  -0.054164  0.015397  -0.159446  -0.305602  0.010769  3.891764  0.012
C  C119  1  0.09658076  0.23641280  0.10732443  1  1.563065  0.000688  0.21864  0.6665  0.000665  4.08937  0.001
C  C120  1  0.90329139  0.76363164  0.89271577  1  1.561877  0.000492  0.218506  0.667081  0.002204  4.089106  -0.001
N  N121  1  0.72964307  0.87425297  0.47114335  1  -1.193868  -0.001107  -0.253015  -0.245563  -0.000695  3.612973  -0.001
N  N122  1  0.27028119  0.12580390  0.52882877  1  -1.19308  0.001116  -0.253291  -0.245634  0.000696  3.61311  0.001
N  N123  1  0.78387564  0.02717232  0.37539502  1  -1.202793  -8e-05  -0.249404  -0.238158  -5e-05  3.608273  0.0
N  N124  1  0.21607435  0.97284272  0.62456264  1  -1.202403  8.9e-05  -0.24913  -0.238388  5.6e-05  3.607909  0.0
N  N125  1  0.93651471  0.86680521  0.46582721  1  -1.184573  -0.001064  -0.253567  -0.243  -0.000669  3.617946  -0.001
N  N126  1  0.06343130  0.13321959  0.53413042  1  -1.184428  0.001067  -0.253414  -0.242994  0.000668  3.618049  0.001
N  N127  1  0.95961218  0.47447089  0.27731334  1  -1.153339  0.001301  -0.246111  -0.233207  0.000886  3.608947  0.001
N  N128  1  0.04046100  0.52553958  0.72281391  1  -1.154097  0.000395  -0.246877  -0.233787  0.000292  3.608179  0.0
N  N129  1  0.17803501  0.42687166  0.28447492  1  -1.169586  0.000212  -0.248314  -0.244608  6.6e-05  3.6215  0.0
N  N130  1  0.82214384  0.57311139  0.71533123  1  -1.173714  -0.000137  -0.247915  -0.243261  -3.3e-05  3.622737  0.0
N  N131  1  0.10942310  0.28720629  0.26804947  1  -1.194192  0.000454  -0.254003  -0.244199  0.000313  3.645099  0.0
N  N132  1  0.89058978  0.71277862  0.73199004  1  -1.195376  0.000766  -0.254145  -0.242629  0.000502  3.64704  0.001
O  O133  1  0.58485668  0.61845849  0.39575395  1  -1.110424  -0.084961  -0.314053  -0.524852  -0.054303  2.357884  -0.077
O  O134  1  0.41495861  0.38165168  0.60425945  1  -1.109589  0.085041  -0.314078  -0.52503  0.054222  2.358654  0.077
O  O135  1  0.54263152  0.64048851  0.53230990  1  -1.123874  0.073363  -0.305967  -0.528728  0.04703  2.376836  0.067
O  O136  1  0.45731883  0.35954635  0.46771771  1  -1.122834  -0.07331  -0.305864  -0.529105  -0.047131  2.376472  -0.067
O  O137  1  0.62896212  0.35665618  0.19173673  1  -1.201877  0.000383  -0.317537  -0.562595  0.000217  2.206067  0.0
O  O138  1  0.37163400  0.64350443  0.80825727  1  -1.201395  -0.000313  -0.31734  -0.562065  -0.000166  2.205556  0.0
O  O139  1  0.58012553  0.45797833  0.29114382  1  -1.192273  0.001466  -0.33651  -0.578298  0.000758  2.233029  0.0
O  O140  1  0.42012986  0.54207804  0.70894805  1  -1.189509  -0.001297  -0.336859  -0.578999  -0.000661  2.234159  0.0
O  O141  1  0.30262449  0.62545807  0.52884095  1  -1.11548  0.07399  -0.309222  -0.52723  0.047395  2.375464  0.067
O  O142  1  0.69733359  0.37466555  0.47111531  1  -1.116613  -0.074034  -0.309216  -0.526834  -0.047555  2.375972  -0.067
O  O143  1  0.35454519  0.60392122  0.39243539  1  -1.113145  -0.086074  -0.307428  -0.512015  -0.054944  2.360907  -0.078
O  O144  1  0.64534078  0.39604776  0.60755577  1  -1.113784  0.086049  -0.307183  -0.511572  0.05478  2.361523  0.078
O  O145  1  0.58330809  0.03001070  0.38097972  1  -1.135713  -0.000274  -0.279398  -0.469647  -0.000175  2.111458  0.0
O  O146  1  0.41660654  0.97006578  0.61900966  1  -1.135907  0.000276  -0.279398  -0.469771  0.000171  2.111768  0.0
O  O147  1  0.98566995  0.01915733  0.37627685  1  -1.147118  -0.000223  -0.28189  -0.487232  -0.000142  2.150434  0.0
O  O148  1  0.01429651  0.98083178  0.62364954  1  -1.146583  0.000235  -0.281897  -0.487018  0.000143  2.150274  0.0
O  O149  1  0.88868339  0.70752415  0.54332340  1  -1.145696  -0.000272  -0.28401  -0.485741  -0.000194  2.148157  0.0
O  O150  1  0.11125050  0.29250417  0.45661277  1  -1.145207  0.000278  -0.284139  -0.485597  0.000189  2.148635  0.0
O  O151  1  0.72259084  0.65501003  0.07230350  1  -1.149845  0.052948  -0.328192  -0.591413  0.033646  2.269157  0.048
O  O152  1  0.27711629  0.34598096  0.92739839  1  -1.147786  -0.053441  -0.327531  -0.589618  -0.034517  2.27562  -0.048
O  O153  1  0.93553158  0.57284979  0.09443419  1  -1.114157  0.089779  -0.324262  -0.564818  0.056621  2.392164  0.081
O  O154  1  0.06394138  0.42666958  0.90586506  1  -1.11863  0.085247  -0.324452  -0.565535  0.054434  2.39154  0.076
O  O155  1  0.21315619  0.67333568  0.08917846  1  -1.155217  0.083284  -0.335362  -0.591932  0.053262  2.40221  0.075
O  O156  1  0.78689529  0.32664608  0.91050784  1  -1.154117  -0.080069  -0.33589  -0.592917  -0.051424  2.402765  -0.072
O  O157  1  0.30821436  0.47327768  0.11619745  1  -1.127951  -0.086523  -0.310847  -0.540289  -0.055145  2.365401  -0.079
O  O158  1  0.69226142  0.52675408  0.88330148  1  -1.126439  0.089984  -0.312063  -0.543233  0.057104  2.367264  0.082
O  O159  1  0.02468651  0.19827011  0.08401740  1  -1.111179  -0.075176  -0.334987  -0.565541  -0.048002  2.34624  -0.068
O  O160  1  0.97516556  0.80189813  0.91601314  1  -1.110236  0.077272  -0.335519  -0.566768  0.048807  2.345921  0.07
O  O161  1  0.09824218  0.33909521  0.08410606  1  -1.132192  0.077063  -0.311129  -0.592114  0.049759  2.394771  0.07
O  O162  1  0.90201176  0.66081313  0.91621350  1  -1.13237  0.073129  -0.31188  -0.592477  0.046186  2.394024  0.067
O  O163  1  0.02747845  0.59787393  0.31411058  1  -1.138525  0.000303  -0.287161  -0.491775  0.000183  2.089949  0.0
O  O164  1  0.97287491  0.40215975  0.68570350  1  -1.137148  1e-06  -0.287047  -0.491526  -3.6e-05  2.089839  0.0
O  O165  1  0.32114735  0.24914337  0.25928547  1  -1.159237  -0.000301  -0.285527  -0.503317  -0.000179  2.148705  0.0
O  O166  1  0.67891155  0.75076473  0.74051147  1  -1.160444  0.000369  -0.285097  -0.502781  0.000183  2.148244  0.0
O  O167  1  0.90005355  0.34354568  0.24270019  1  -1.140133  9.7e-05  -0.274436  -0.473862  6.2e-05  2.142604  0.0
O  O168  1  0.09989489  0.65638824  0.75760510  1  -1.139422  -0.000443  -0.274125  -0.473467  -0.000307  2.142239  0.0
O  O169  1  0.82835896  0.42543302  0.04067155  1  -1.062345  0.013747  -0.576565  -0.902022  0.00837  2.402255  0.012
O  O170  1  0.17220665  0.57495401  0.95900308  1  -1.065286  -0.002341  -0.579845  -0.907596  -0.001607  2.404862  0.0
O  O171  1  0.26844142  0.79074565  0.90784578  1  -1.227073  -0.002506  -0.61  -0.811128  -0.00138  1.998817  -0.001
O  O172  1  0.73113748  0.20981583  0.09193580  1  -1.230172  0.002354  -0.609929  -0.811427  0.001279  2.000009  0.001
O  O173  1  0.04868483  0.87860278  0.03613033  1  -1.167131  0.043237  -0.558841  -0.742271  0.02834  2.123499  0.037
O  O174  1  0.95106577  0.12160976  0.96408373  1  -1.168194  -0.042427  -0.558986  -0.74184  -0.027877  2.126707  -0.037
O  O175  1  0.53852756  0.56671068  0.08514447  1  -1.221377  0.007313  -0.595821  -0.775187  0.004909  2.061929  0.007
O  O176  1  0.46263348  0.43315945  0.91514045  1  -1.234766  -0.00416  -0.596008  -0.775174  -0.002922  2.056216  -0.005
O  O177  1  0.57700588  0.73236979  0.91727940  1  -1.189877  0.047138  -0.552668  -0.721806  0.030664  2.126143  0.04
O  O178  1  0.42240616  0.26741436  0.08271816  1  -1.188836  -0.046319  -0.552475  -0.721559  -0.030253  2.127824  -0.04
