# generated using pymatgen
data_AlH7C13ClO5
_symmetry_space_group_name_H-M   'P 1'
_cell_length_a   6.63520348
_cell_length_b   11.16338021
_cell_length_c   17.64712412
_cell_angle_alpha   84.98989358
_cell_angle_beta   78.96283451
_cell_angle_gamma   71.83468072
_symmetry_Int_Tables_number   1
_chemical_formula_structural   AlH7C13ClO5
_chemical_formula_sum   'Al2 H14 C26 Cl2 O10'
_cell_volume   1218.48974347
_cell_formula_units_Z   2
loop_
 _symmetry_equiv_pos_site_id
 _symmetry_equiv_pos_as_xyz
  1  'x, y, z'
loop_
 _atom_site_type_symbol
 _atom_site_label
 _atom_site_symmetry_multiplicity
 _atom_site_fract_x
 _atom_site_fract_y
 _atom_site_fract_z
 _atom_site_occupancy
 _atom_site_pbe_bader_charge
 _atom_site_pbe_bader_spin_density
 _atom_site_pbe_cm5_charge
 _atom_site_pbe_ddec_charge
 _atom_site_pbe_ddec_spin_density
 _atom_site_pbe_ddec_sum_bond_order
 _atom_site_pbe_magmom
Al  Al0  1  0.50489469  0.50503386  0.50594304  1  2.501571  0  0.395399  1.638004  0  2.579503  0
Al  Al1  1  0.00349503  0.50394233  0.50957792  1  2.503643  0  0.392815  1.63938  0  2.581339  0
H  H2  1  0.30261818  0.36667889  0.56400129  1  0.626377  0  0.351796  0.428304  0  0.857941  0
H  H3  1  0.79127016  0.54496793  0.41021532  1  0.629203  0  0.345404  0.421349  0  0.873534  0
H  H4  1  0.66190465  0.51821017  0.27310362  1  0.102375  0  0.105287  0.106924  0  1.012458  0
H  H5  1  0.71884006  0.53467225  0.12947315  1  0.079981  0  0.108475  0.115136  0  0.987416  0
H  H6  1  0.20356282  0.37344873  0.13330269  1  0.096713  0  0.110065  0.12717  0  0.991344  0
H  H7  1  0.75930287  0.62244362  0.88797223  1  0.083372  0  0.109093  0.125363  0  0.991493  0
H  H8  1  0.33312314  0.48409457  0.73015189  1  0.113885  0  0.112329  0.120678  0  0.995436  0
H  H9  1  0.26207704  0.45518465  0.87368853  1  0.04169  0  0.107976  0.114231  0  0.987888  0
H  H10  1  0.75529028  0.88116369  0.56832408  1  0.091402  0  0.10818  0.111649  0  1.004069  0
H  H11  1  0.64095286  0.11375192  0.57937492  1  0.084996  0  0.105527  0.106931  0  0.998452  0
H  H12  1  0.45388225  0.11673340  0.46950298  1  0.053349  0  0.093638  0.106738  0  1.008313  0
H  H13  1  0.34754185  0.13593682  0.38238642  1  0.0573  0  0.086482  0.09408  0  1.023366  0
H  H14  1  0.46255761  0.90093027  0.37024054  1  0.054361  0  0.096781  0.104867  0  0.979603  0
H  H15  1  0.56851546  0.87993586  0.45750061  1  0.088306  0  0.099862  0.117902  0  0.996497  0
C  C16  1  0.87243552  0.27606549  0.52167437  1  1.582729  0  0.265667  0.64805  0  4.101168  0
C  C17  1  0.64911526  0.55021220  0.64235386  1  1.584978  0  0.266846  0.647185  0  4.104583  0
C  C18  1  0.13603813  0.72858863  0.49863982  1  1.564642  0  0.272997  0.650369  0  4.098903  0
C  C19  1  0.35159726  0.45968594  0.37027109  1  1.594449  0  0.26451  0.653263  0  4.098691  0
C  C20  1  0.39618910  0.44407628  0.28471260  1  0.015886  0  -0.016886  -0.102741  0  3.930299  0
C  C21  1  0.56134011  0.48806475  0.24151416  1  -0.003436  0  -0.080122  -0.073247  0  4.006077  0
C  C22  1  0.59339243  0.49707929  0.16158357  1  -0.025854  0  -0.085106  -0.136548  0  3.950568  0
C  C23  1  0.45861131  0.46056138  0.12131908  1  0.056411  0  0.005677  0.164957  0  4.116377  0
C  C24  1  0.30264534  0.40743762  0.16351755  1  0.049878  0  -0.089447  -0.202938  0  3.925087  0
C  C25  1  0.27196921  0.39962587  0.24388232  1  0.037582  0  0.021864  0.137502  0  4.037464  0
C  C26  1  0.47627495  0.48083175  0.04040328  1  -0.425654  0  -0.043213  -0.107395  0  4.103584  0
C  C27  1  0.48973339  0.50590269  0.97121336  1  0.062319  0  -0.038844  -0.095017  0  4.10027  0
C  C28  1  0.51337179  0.53100327  0.89054530  1  0.063613  0  0.003538  0.159076  0  4.115629  0
C  C29  1  0.66800070  0.58954429  0.85370925  1  0.049352  0  -0.088844  -0.201284  0  3.923307  0
C  C30  1  0.70630170  0.60453942  0.77360555  1  0.037307  0  0.02341  0.140452  0  4.041226  0
C  C31  1  0.59238391  0.56072008  0.72813780  1  0.017733  0  -0.013344  -0.097086  0  3.931891  0
C  C32  1  0.42703611  0.51195514  0.76586086  1  -0.05217  0  -0.076948  -0.075431  0  3.994432  0
C  C33  1  0.38712641  0.49637009  0.84558498  1  0.109041  0  -0.085132  -0.136726  0  3.951313  0
C  C34  1  0.94183022  0.13655894  0.51833563  1  -0.057036  0  -0.013611  -0.088504  0  3.984357  0
C  C35  1  0.07255411  0.86745535  0.50495224  1  0.002785  0  -0.008867  -0.085177  0  3.976627  0
C  C36  1  0.14730223  0.06933890  0.48194486  1  -0.034454  0  -0.003419  0.060594  0  3.879736  0
C  C37  1  0.86549813  0.93447016  0.54319681  1  0.005211  0  -0.082285  -0.103248  0  3.994251  0
C  C38  1  0.21095035  0.93845700  0.47525338  1  -0.023777  0  -0.000543  0.066724  0  3.872486  0
C  C39  1  0.80192542  0.06496703  0.54948204  1  -0.042949  0  -0.084935  -0.101729  0  3.9991  0
C  C40  1  0.35961890  0.08137098  0.43710460  1  -0.013065  0  -0.15512  -0.195491  0  3.867603  0
C  C41  1  0.43175928  0.93333277  0.42957723  1  -0.059468  0  -0.149714  -0.193877  0  3.857101  0
Cl  Cl42  1  0.07999125  0.33020948  0.29038967  1  -0.195287  0  0.025615  -0.049557  0  1.557407  0
Cl  Cl43  1  0.89121174  0.68205684  0.73295149  1  -0.182707  0  0.016663  -0.051601  0  1.518517  0
O  O44  1  0.67050715  0.33419104  0.53247657  1  -1.266913  0  -0.242314  -0.609877  0  2.329989  0
O  O45  1  0.84771785  0.52086783  0.61283002  1  -1.255202  0  -0.231305  -0.587736  0  2.382212  0
O  O46  1  0.98646866  0.67679490  0.51083427  1  -1.251906  0  -0.230532  -0.581169  0  2.347442  0
O  O47  1  0.51188191  0.45145594  0.40261417  1  -1.254877  0  -0.242007  -0.600403  0  2.329395  0
O  O48  1  0.33672543  0.67062591  0.48121906  1  -1.257765  0  -0.232754  -0.585664  0  2.330206  0
O  O49  1  0.15537351  0.48787355  0.40304041  1  -1.2546  0  -0.237059  -0.606357  0  2.393237  0
O  O50  1  0.02232547  0.32778556  0.51249171  1  -1.261973  0  -0.235974  -0.596065  0  2.346346  0
O  O51  1  0.49544905  0.56245126  0.60607361  1  -1.256779  0  -0.231526  -0.575387  0  2.332408  0
O  O52  1  0.26313114  0.45404423  0.54582596  1  -1.431125  0  -0.448734  -0.984892  0  2.193831  0
O  O53  1  0.75451475  0.54693771  0.46610671  1  -1.435448  0  -0.447309  -0.98173  0  2.189998  0
