# generated using pymatgen
data_AlH5C8SNO5
_symmetry_space_group_name_H-M   'P 1'
_cell_length_a   6.70201500
_cell_length_b   11.01125669
_cell_length_c   12.76122470
_cell_angle_alpha   67.10173233
_cell_angle_beta   74.77291489
_cell_angle_gamma   74.05433112
_symmetry_Int_Tables_number   1
_chemical_formula_structural   AlH5C8SNO5
_chemical_formula_sum   'Al2 H10 C16 S2 N2 O10'
_cell_volume   821.15780838
_cell_formula_units_Z   2
loop_
 _symmetry_equiv_pos_site_id
 _symmetry_equiv_pos_as_xyz
  1  'x, y, z'
loop_
 _atom_site_type_symbol
 _atom_site_label
 _atom_site_symmetry_multiplicity
 _atom_site_fract_x
 _atom_site_fract_y
 _atom_site_fract_z
 _atom_site_occupancy
 _atom_site_pbe_bader_charge
 _atom_site_pbe_bader_spin_density
 _atom_site_pbe_cm5_charge
 _atom_site_pbe_ddec_charge
 _atom_site_pbe_ddec_spin_density
 _atom_site_pbe_ddec_sum_bond_order
 _atom_site_pbe_magmom
Al  Al0  1  0.49999161  0.49964909  0.50059289  1  2.502822  0  0.398924  1.648788  0  2.580556  0
Al  Al1  1  0.00003402  0.49936532  0.50043744  1  2.506775  0  0.395927  1.645981  0  2.583593  0
H  H2  1  0.25478860  0.63541402  0.36795211  1  0.633545  0  0.35906  0.438187  0  0.838632  0
H  H3  1  0.73417117  0.38041541  0.64045426  1  0.617514  0  0.3549  0.433382  0  0.847863  0
H  H4  1  0.70518350  0.10654690  0.56202244  1  0.078035  0  0.106095  0.119208  0  1.018751  0
H  H5  1  0.29676847  0.89703144  0.43228420  1  0.093942  0  0.104136  0.119551  0  1.023221  0
H  H6  1  0.39440501  0.48556820  0.85822260  1  0.149895  0  0.110394  0.131997  0  1.014632  0
H  H7  1  0.60580167  0.51126393  0.14464339  1  0.114252  0  0.111748  0.133453  0  1.012615  0
H  H8  1  0.95981191  0.77527442  0.54694529  1  0.474729  0  0.301835  0.307337  0  0.989118  0
H  H9  1  0.96055081  0.89680709  0.60111232  1  0.438904  0  0.307977  0.30216  0  0.939821  0
H  H10  1  0.03259623  0.21991423  0.45622135  1  0.480493  0  0.302003  0.309856  0  0.982833  0
H  H11  1  0.02234243  0.08472020  0.42099043  1  0.434376  0  0.297572  0.295555  0  0.979372  0
C  C12  1  0.84009221  0.51485617  0.30042120  1  1.608242  0  0.259659  0.647942  0  4.142248  0
C  C13  1  0.65278016  0.73577967  0.48174746  1  1.537928  0  0.262924  0.652369  0  4.073525  0
C  C14  1  0.16015648  0.48310111  0.70170200  1  1.576393  0  0.257259  0.645502  0  4.146762  0
C  C15  1  0.34775199  0.26540819  0.51610101  1  1.523648  0  0.264015  0.657478  0  4.069278  0
C  C16  1  0.58391438  0.87326082  0.48751720  1  -0.02123  0  -0.02665  -0.137114  0  3.96538  0
C  C17  1  0.41976452  0.13037376  0.50559591  1  -0.033447  0  -0.027908  -0.143536  0  3.967019  0
C  C18  1  0.70721351  0.93177918  0.52386008  1  0.460381  0  0.086464  0.260807  0  4.102777  0
C  C19  1  0.29907796  0.07378577  0.46580242  1  0.411191  0  0.092294  0.273858  0  4.098954  0
C  C20  1  0.61784618  0.05878724  0.53310070  1  -0.019694  0  -0.106485  -0.217594  0  3.988608  0
C  C21  1  0.38641232  0.94487665  0.45957979  1  0.002661  0  -0.102984  -0.210208  0  3.966988  0
C  C22  1  0.22584586  0.48924501  0.88747674  1  0.031483  0  -0.089675  -0.134962  0  3.979611  0
C  C23  1  0.77432241  0.50762422  0.11517009  1  0.085828  0  -0.089071  -0.136016  0  3.975283  0
C  C24  1  0.09673979  0.48792800  0.81939508  1  -0.16522  0  -0.023174  -0.124964  0  3.985656  0
C  C25  1  0.90363707  0.50918760  0.18298343  1  -0.176549  0  -0.019052  -0.118186  0  3.978082  0
C  C26  1  0.89124280  0.50044452  0.00761357  1  -0.188689  0  -0.021071  -0.005076  0  4.06232  0
C  C27  1  0.10905628  0.49610276  0.99516015  1  -0.208434  0  -0.021903  -0.010865  0  4.066533  0
S  S28  1  0.83315570  0.49584517  0.88550784  1  0.241668  0  0.084484  0.116031  0  2.770692  0
S  S29  1  0.16715022  0.50079273  0.11717946  1  0.260795  0  0.092036  0.128015  0  2.769163  0
N  N30  1  0.90933675  0.87151297  0.54584031  1  -1.242178  0  -0.599682  -0.628457  0  3.363507  0
N  N31  1  0.11003734  0.14097931  0.42955779  1  -1.231939  0  -0.603156  -0.626159  0  3.345864  0
O  O32  1  0.64807535  0.51134146  0.34743425  1  -1.257503  0  -0.233788  -0.580285  0  2.322563  0
O  O33  1  0.84699287  0.67883846  0.48590542  1  -1.272116  0  -0.241246  -0.60627  0  2.373794  0
O  O34  1  0.01667316  0.47619534  0.65611191  1  -1.258183  0  -0.242492  -0.603771  0  2.343369  0
O  O35  1  0.48330171  0.31918553  0.52759770  1  -1.271328  0  -0.244669  -0.606493  0  2.351808  0
O  O36  1  0.35226531  0.48690481  0.65474428  1  -1.254294  0  -0.236003  -0.582733  0  2.320475  0
O  O37  1  0.15273429  0.32088478  0.51404864  1  -1.274569  0  -0.240142  -0.604619  0  2.367551  0
O  O38  1  0.98318141  0.52265857  0.34561102  1  -1.260991  0  -0.23961  -0.598153  0  2.342346  0
O  O39  1  0.51556079  0.68121190  0.47291225  1  -1.267569  0  -0.244453  -0.607044  0  2.353988  0
O  O40  1  0.24750365  0.56673423  0.44376510  1  -1.438338  0  -0.448244  -0.99321  0  2.197235  0
O  O41  1  0.75179196  0.43236875  0.55868672  1  -1.423232  0  -0.44825  -0.99174  0  2.191498  0
