# generated using pymatgen
data_MnH10(C3N2)4
_symmetry_space_group_name_H-M   'P 1'
_cell_length_a   8.57504142
_cell_length_b   11.00476765
_cell_length_c   11.38729417
_cell_angle_alpha   72.74986463
_cell_angle_beta   71.30402291
_cell_angle_gamma   89.04295949
_symmetry_Int_Tables_number   1
_chemical_formula_structural   MnH10(C3N2)4
_chemical_formula_sum   'Mn3 H30 C36 N24'
_cell_volume   968.43685170
_cell_formula_units_Z   3
loop_
 _symmetry_equiv_pos_site_id
 _symmetry_equiv_pos_as_xyz
  1  'x, y, z'
loop_
 _atom_site_type_symbol
 _atom_site_label
 _atom_site_symmetry_multiplicity
 _atom_site_fract_x
 _atom_site_fract_y
 _atom_site_fract_z
 _atom_site_occupancy
 _atom_site_hle17_ddec_charge
 _atom_site_hle17_ddec_spin_density
 _atom_site_hle17_ddec_sum_bond_order
 _atom_site_hle17_magmom
 _atom_site_hse06_10hf_ddec_charge
 _atom_site_hse06_10hf_ddec_spin_density
 _atom_site_hse06_10hf_ddec_sum_bond_order
 _atom_site_hse06_10hf_magmom
 _atom_site_hse06_ddec_charge
 _atom_site_hse06_ddec_spin_density
 _atom_site_hse06_ddec_sum_bond_order
 _atom_site_hse06_magmom
 _atom_site_pbe_cm5_charge
 _atom_site_pbe_ddec_charge
 _atom_site_pbe_ddec_spin_density
 _atom_site_pbe_ddec_sum_bond_order
 _atom_site_pbe_magmom
Mn  Mn0  1  0.11970564  0.11299997  0.36849230  1  0.947615  -4.728528  2.163157  -4.585  0.797062  -4.608861  2.690325  -4.408  0.84544  -4.695523  2.632846  -4.509  0.658257  0.759617  -4.507198  2.734152  -4.293
Mn  Mn1  1  0.87871509  0.88536395  0.63326204  1  0.944211  4.719757  2.192194  4.566  0.795531  4.576146  2.723386  4.376  0.844513  4.684656  2.663942  4.489  0.662448  0.755295  4.446939  2.770381  4.244
Mn  Mn2  1  0.50191674  0.50163924  0.99848782  1  0.948737  -4.722015  2.186453  -4.584  0.796504  -4.603879  2.724236  -4.409  0.849834  -4.689972  2.659755  -4.509  0.649261  0.754263  -4.502555  2.772912  -4.294
H  H3  1  0.88340314  0.26190572  0.22188659  1  0.076036  -2e-05  0.964049  0.0  0.081527  -0.000386  1.033024  0.0  0.083043  -0.000239  1.03305  0.0  0.113438  0.080378  -0.000544  1.033232  0.0
H  H4  1  0.11706965  0.73764131  0.77850629  1  0.075802  -9.8e-05  0.964785  0.0  0.081403  0.000132  1.033916  0.0  0.082859  3e-05  1.03401  0.0  0.113386  0.080342  0.000222  1.034042  0.0
H  H5  1  0.71136691  0.44597998  0.21777325  1  0.113281  0.000268  0.967874  0.0  0.119726  0.0003  1.035001  0.0  0.122394  0.000377  1.034958  0.0  0.108841  0.117722  0.00022  1.035335  0.0
H  H6  1  0.28891027  0.55352174  0.78246534  1  0.113563  0.000691  0.970379  0.0  0.11986  0.000772  1.037595  0.0  0.122609  0.000753  1.037408  0.0  0.108892  0.117799  0.000761  1.038016  0.0
H  H7  1  0.82134209  0.47439252  0.55470231  1  0.108013  -0.000109  0.950535  0.0  0.118622  -0.000136  1.009928  0.0  0.121283  -9.1e-05  1.010196  0.0  0.107237  0.116602  -0.00021  1.010095  0.0
H  H8  1  0.17938069  0.52587822  0.44509157  1  0.108502  0.000262  0.951035  0.0  0.118807  0.000294  1.010805  0.0  0.121556  0.000284  1.010969  0.0  0.107274  0.116671  0.00031  1.011112  0.0
H  H9  1  0.99587709  0.29438464  0.53988595  1  0.07285  -0.00027  0.96935  0.0  0.078973  -0.000669  1.040244  0.0  0.080903  -0.00053  1.038844  0.0  0.116598  0.077302  -0.000826  1.041592  -0.001
H  H10  1  0.00463323  0.70568377  0.46030055  1  0.072969  0.000128  0.968652  0.0  0.078265  0.000405  1.040525  0.0  0.080144  0.000313  1.039171  0.0  0.116395  0.076631  0.000502  1.041867  0.0
H  H11  1  0.65647864  0.62588545  0.47197750  1  0.092399  -9.4e-05  0.965048  0.0  0.101078  -0.000227  1.0315  0.0  0.103665  -0.000218  1.030453  0.0  0.102389  0.098969  -0.000188  1.032836  0.0
H  H12  1  0.34379907  0.37387023  0.52803301  1  0.093025  -1.3e-05  0.964799  0.0  0.101747  -6e-06  1.030873  0.0  0.104384  4.3e-05  1.02972  0.0  0.102566  0.099609  -9.8e-05  1.03223  0.0
H  H13  1  0.58352622  0.61472439  0.22666721  1  0.096  0.000877  1.001733  0.0  0.102955  0.001051  1.073944  0.0  0.106137  0.00111  1.071877  0.0  0.101514  0.100648  0.001036  1.075451  0.0
H  H14  1  0.41639065  0.38477543  0.77357591  1  0.096045  0.000774  1.001819  0.0  0.103174  0.000766  1.073833  0.0  0.106375  0.000845  1.07172  0.0  0.101392  0.100828  0.000584  1.075399  0.0
H  H15  1  0.37954691  0.97915708  0.48047911  1  0.07721  -0.000318  0.951648  0.0  0.086027  -0.000727  1.016581  0.0  0.088185  -0.000603  1.01491  0.0  0.117198  0.084152  -0.000882  1.018209  0.0
H  H16  1  0.62086054  0.02056143  0.51957081  1  0.077062  0.000299  0.95213  0.0  0.085752  0.00066  1.017334  0.0  0.087958  0.000547  1.015568  0.0  0.117059  0.083919  0.000788  1.018927  0.0
H  H17  1  0.55104885  0.79635133  0.47604298  1  0.106593  -0.000942  0.98898  0.0  0.112553  -0.001008  1.058209  0.0  0.115607  -0.001029  1.05756  0.0  0.102583  0.110153  -0.001002  1.059109  0.0
H  H18  1  0.44940925  0.20336675  0.52385326  1  0.106967  0.000602  0.990012  0.0  0.112637  0.000467  1.059513  0.0  0.115762  0.000531  1.0588  0.0  0.102357  0.110191  0.000377  1.060424  0.0
H  H19  1  0.40822839  0.76620626  0.15281309  1  0.112042  4.9e-05  0.960587  0.0  0.120965  0.000108  1.022268  0.0  0.123231  0.000158  1.023491  0.0  0.10635  0.119337  5.2e-05  1.021546  0.0
H  H20  1  0.59149743  0.23319941  0.84756609  1  0.111316  0.000505  0.961957  0.0  0.120312  0.000567  1.023479  0.0  0.122587  0.000532  1.024686  0.0  0.106254  0.118665  0.000578  1.022787  0.0
H  H21  1  0.24899285  0.95722848  0.16745675  1  0.077936  1.4e-05  0.957789  0.0  0.08371  -0.00051  1.026972  0.0  0.085587  -0.000303  1.02592  0.0  0.113867  0.082271  -0.000728  1.027978  0.0
H  H22  1  0.75099837  0.04238258  0.83281806  1  0.077152  -0.000151  0.958125  0.0  0.083321  0.000255  1.027112  0.0  0.085074  7.4e-05  1.026104  0.0  0.11387  0.082005  0.000405  1.028016  0.0
H  H23  1  0.12939889  0.52147241  0.11741007  1  0.072849  -0.000107  0.960158  0.0  0.076607  -0.00054  1.031222  0.0  0.078663  -0.000372  1.030291  0.0  0.111601  0.074689  -0.000746  1.032652  0.0
H  H24  1  0.87251192  0.47918763  0.88211149  1  0.071506  -7e-05  0.961234  0.0  0.076159  -0.000356  1.031213  0.0  0.078006  -0.000226  1.030551  0.0  0.111485  0.074483  -0.000386  1.03232  0.0
H  H25  1  0.92306893  0.68257567  0.13811700  1  0.112255  -8.6e-05  0.962012  0.0  0.12117  -5.1e-05  1.025493  0.0  0.123636  -2.6e-05  1.026093  0.0  0.10603  0.119174  -5.3e-05  1.025618  0.0
H  H26  1  0.07728027  0.31716184  0.86145701  1  0.1127  -0.000215  0.961658  0.0  0.121549  -0.000326  1.025328  0.0  0.124083  -0.000224  1.025807  0.0  0.106174  0.119452  -0.000453  1.025655  0.0
H  H27  1  0.30958900  0.96976175  0.85875838  1  0.108715  -0.000242  0.962655  0.0  0.117231  -0.000263  1.025417  0.0  0.119932  -0.000224  1.026028  0.0  0.10481  0.115159  -0.000302  1.025507  0.0
H  H28  1  0.68887090  0.03134915  0.14062032  1  0.108282  -0.000102  0.962168  0.0  0.116856  -0.00012  1.024793  0.0  0.119495  -7.7e-05  1.02553  0.0  0.104864  0.114821  -0.000178  1.024806  0.0
H  H29  1  0.49833678  0.79905854  0.85108648  1  0.072259  -0.00036  0.974411  0.0  0.076691  -0.000626  1.046486  0.0  0.078192  -0.000586  1.045888  0.0  0.116071  0.075323  -0.000673  1.047324  0.0
H  H30  1  0.50148134  0.20302674  0.14821684  1  0.072717  0.000309  0.97398  0.0  0.077131  -3.1e-05  1.045813  0.0  0.078788  0.000113  1.04504  0.0  0.116313  0.075531  -0.000203  1.046915  0.0
H  H31  1  0.85086101  0.89806107  0.06830428  1  0.096413  -1e-06  0.949428  0.0  0.107683  -9e-06  1.011204  0.0  0.110702  -2.3e-05  1.0093  0.0  0.104058  0.105325  -1.7e-05  1.013118  0.0
H  H32  1  0.14800093  0.10177220  0.93166568  1  0.09664  1.4e-05  0.950057  0.0  0.108235  -0.000107  1.01116  0.0  0.111231  -4.5e-05  1.009245  0.0  0.104271  0.105721  -0.000218  1.01343  0.0
C  C33  1  0.86733392  0.31298472  0.29317098  1  0.119673  -0.001389  3.715077  -0.002  0.092435  -0.003496  3.965203  -0.003  0.099274  -0.002905  3.98367  -0.003  0.042791  0.087751  -0.004202  3.953193  -0.004
C  C34  1  0.13311508  0.68671391  0.70710364  1  0.118246  0.001265  3.714967  0.002  0.090912  0.003171  3.965066  0.003  0.097687  0.002666  3.983736  0.003  0.042156  0.086215  0.00372  3.952816  0.003
C  C35  1  0.77091202  0.41557591  0.29191142  1  -0.158112  -5.5e-05  3.660386  0.0  -0.171007  0.000143  3.89791  0.0  -0.178946  0.000572  3.919431  0.0  -0.081183  -0.165992  -0.000213  3.883661  0.0
C  C36  1  0.22944011  0.58407240  0.70829154  1  -0.158057  0.000357  3.662735  0.0  -0.170835  0.000272  3.900289  0.0  -0.178763  -9.2e-05  3.92186  0.0  -0.08125  -0.16588  0.000348  3.88612  0.0
C  C37  1  0.75275744  0.47918000  0.38579596  1  0.138271  -0.000787  3.787185  -0.001  0.154467  -0.00258  4.012965  -0.002  0.159636  -0.002089  4.035285  -0.002  0.010973  0.151366  -0.00323  3.99799  -0.002
C  C38  1  0.24760838  0.52060017  0.61428871  1  0.138498  0.000656  3.786802  0.0  0.154272  0.002294  4.013013  0.002  0.15939  0.001903  4.035402  0.001  0.010807  0.15111  0.002663  3.99823  0.002
C  C39  1  0.83361106  0.43147287  0.47769237  1  -0.163076  -0.000347  3.699144  0.0  -0.177328  -0.000259  3.939886  0.0  -0.1855  0.000183  3.961368  0.0  -0.082117  -0.17197  -0.000715  3.925797  -0.001
C  C40  1  0.16692166  0.56854910  0.52231485  1  -0.162888  0.000409  3.698489  0.001  -0.177141  0.000296  3.939258  0.0  -0.185335  -0.000109  3.960711  0.0  -0.081974  -0.171872  0.000477  3.925487  0.001
C  C41  1  0.93015134  0.32976214  0.47055796  1  0.12704  -0.002089  3.718121  -0.002  0.097032  -0.00482  3.971034  -0.004  0.104533  -0.004019  3.989299  -0.003  0.046356  0.091773  -0.00539  3.959048  -0.004
C  C42  1  0.07037469  0.67024440  0.52959230  1  0.126336  0.001901  3.718181  0.002  0.097036  0.004367  3.97087  0.004  0.104545  0.003707  3.989236  0.003  0.046177  0.091642  0.004637  3.958862  0.004
C  C43  1  0.65894559  0.58956531  0.39204511  1  -0.08742  -0.003515  3.71257  -0.003  -0.1074  -0.004002  3.965447  -0.003  -0.109125  -0.00333  3.983926  -0.003  -0.078671  -0.107075  -0.004102  3.954661  -0.003
C  C44  1  0.34126889  0.41014690  0.60801438  1  -0.088366  0.003462  3.710171  0.003  -0.10803  0.003853  3.963055  0.003  -0.109696  0.003332  3.981553  0.003  -0.079118  -0.107885  0.003357  3.952518  0.003
C  C45  1  0.58200750  0.65009958  0.30695762  1  -0.097321  0.002521  3.690242  0.002  -0.122059  0.001497  3.945513  0.001  -0.12521  0.001867  3.963725  0.002  -0.08268  -0.1211  0.000782  3.934781  0.001
C  C46  1  0.41809051  0.34950384  0.69318168  1  -0.097166  -0.001941  3.688188  -0.002  -0.122403  -0.000958  3.943919  -0.001  -0.12554  -0.001082  3.962081  -0.001  -0.082824  -0.121605  -0.001006  3.933501  -0.001
C  C47  1  0.39183337  0.93002299  0.40815504  1  0.123474  -0.003699  3.713891  -0.003  0.093211  -0.005523  3.968312  -0.004  0.100686  -0.004929  3.985545  -0.004  0.044128  0.088064  -0.006538  3.957708  -0.005
C  C48  1  0.60843566  0.06964001  0.59194816  1  0.123131  0.003559  3.712388  0.003  0.092991  0.005179  3.96639  0.004  0.100402  0.004687  3.983725  0.004  0.044096  0.087758  0.006009  3.955753  0.005
C  C49  1  0.48546132  0.82654047  0.40591719  1  -0.159402  0.001704  3.694187  0.001  -0.177733  0.000865  3.941309  0.001  -0.185546  0.001471  3.962652  0.001  -0.083869  -0.173311  0.000354  3.927835  0.0
C  C50  1  0.51480828  0.17311971  0.59413311  1  -0.158338  -0.00183  3.691233  -0.001  -0.176599  -0.001212  3.938096  -0.001  -0.184446  -0.001762  3.959483  -0.001  -0.083462  -0.17227  -0.001102  3.924805  -0.001
C  C51  1  0.49298027  0.76255425  0.31391021  1  0.137007  -0.003035  3.79513  -0.003  0.15283  -0.004429  4.024215  -0.004  0.158849  -0.003858  4.045749  -0.003  0.006809  0.148983  -0.006114  4.01008  -0.005
C  C52  1  0.50714744  0.23705036  0.68622586  1  0.138057  0.00289  3.79333  0.003  0.153833  0.004091  4.022919  0.003  0.159839  0.003682  4.044482  0.003  0.007617  0.149936  0.005282  4.008963  0.004
C  C53  1  0.40660612  0.81183371  0.22602636  1  -0.167548  0.001789  3.681412  0.001  -0.182034  0.001122  3.922225  0.001  -0.190473  0.00168  3.943321  0.001  -0.083436  -0.176732  0.001097  3.908909  0.001
C  C54  1  0.59335941  0.18769608  0.77421736  1  -0.167544  -0.001637  3.682372  -0.001  -0.182205  -0.000972  3.92343  -0.001  -0.190605  -0.001483  3.944461  -0.001  -0.083784  -0.177032  -0.001053  3.91034  -0.001
C  C55  1  0.31702018  0.91711897  0.23422438  1  0.122127  -0.003777  3.719714  -0.004  0.092023  -0.006061  3.972763  -0.005  0.099685  -0.005151  3.990802  -0.004  0.042995  0.086304  -0.007305  3.961523  -0.006
C  C56  1  0.68300188  0.08244561  0.76601663  1  0.122769  0.003561  3.720888  0.003  0.092394  0.005608  3.973744  0.005  0.100111  0.004827  3.991952  0.004  0.042965  0.086596  0.006518  3.962347  0.005
C  C57  1  0.16400843  0.62206124  0.06219616  1  0.124503  -0.002421  3.722202  -0.002  0.097066  -0.004654  3.973295  -0.004  0.105152  -0.003916  3.989763  -0.003  0.043109  0.090986  -0.005591  3.963436  -0.004
C  C58  1  0.83698449  0.37866221  0.93725735  1  0.122449  -0.00152  3.725928  -0.002  0.095224  -0.003239  3.976842  -0.003  0.103282  -0.002891  3.993485  -0.003  0.043135  0.089425  -0.00416  3.966498  -0.004
C  C59  1  0.04951172  0.71194399  0.07297821  1  -0.154538  0.000472  3.683382  0.0  -0.173155  -0.000113  3.929859  0.0  -0.180183  0.000594  3.94907  0.0  -0.081526  -0.168762  -0.000817  3.918072  -0.001
C  C60  1  0.95070894  0.28827437  0.92650404  1  -0.15296  0.000921  3.682608  0.001  -0.171992  0.00084  3.92965  0.001  -0.178889  0.001213  3.948595  0.001  -0.081308  -0.167799  -0.000152  3.918063  0.0
C  C61  1  0.09812977  0.84182915  0.00291668  1  0.146267  -0.002068  3.787273  -0.002  0.159616  -0.003396  4.021557  -0.002  0.165835  -0.003134  4.041434  -0.002  0.012439  0.155175  -0.004094  4.009235  -0.003
C  C62  1  0.90115576  0.15852098  0.99674041  1  0.145699  -0.001463  3.78501  -0.001  0.158493  -0.003017  4.020116  -0.002  0.164838  -0.00262  4.039718  -0.002  0.012476  0.154106  -0.004447  4.007889  -0.003
C  C63  1  0.26366317  0.87221104  0.92003594  1  -0.166245  0.000666  3.678494  0.0  -0.179163  0.00036  3.917331  0.0  -0.186398  0.000844  3.936604  0.001  -0.084783  -0.175803  -0.001432  3.906354  -0.001
C  C64  1  0.73548668  0.12879175  0.07938547  1  -0.16388  9.8e-05  3.67584  0.0  -0.176467  -0.000242  3.914837  0.0  -0.18371  0.000429  3.934094  0.0  -0.083702  -0.173037  -0.000521  3.903745  0.0
C  C65  1  0.37009597  0.77613347  0.91463672  1  0.118322  -0.002322  3.722899  -0.002  0.089512  -0.004195  3.975013  -0.004  0.097219  -0.003723  3.992829  -0.003  0.041166  0.084117  -0.004669  3.964213  -0.004
C  C66  1  0.62978564  0.22538081  0.08469555  1  0.1186  -0.002253  3.721965  -0.002  0.089327  -0.004361  3.975192  -0.004  0.09711  -0.003756  3.992765  -0.003  0.040766  0.083862  -0.005011  3.964602  -0.004
C  C67  1  0.97954829  0.93630519  0.01935922  1  -0.088964  -0.000768  3.72576  0.0  -0.116266  -0.001819  3.991145  -0.001  -0.117424  -0.00121  4.0075  0.0  -0.082564  -0.116909  -0.004679  3.982391  -0.003
C  C68  1  0.01927095  0.06368040  0.98059615  1  -0.087651  -0.001183  3.725789  -0.001  -0.114737  -0.002254  3.991075  -0.001  -0.115854  -0.001654  4.007373  -0.001  -0.081885  -0.115518  -0.003518  3.98253  -0.002
N  N69  1  0.16334697  0.17751851  0.15821997  1  -0.483563  -0.039496  2.652466  -0.023  -0.470627  -0.051159  2.948405  -0.026  -0.487897  -0.041972  2.954501  -0.019  -0.244834  -0.455688  -0.059378  2.942898  -0.033
N  N70  1  0.83664030  0.82154810  0.84039696  1  -0.476072  -0.050345  2.662879  -0.067  -0.465367  -0.038118  2.963627  -0.057  -0.481847  -0.045939  2.968523  -0.065  -0.245804  -0.450967  -0.032503  2.959339  -0.051
N  N71  1  0.24040365  0.27175267  0.07961916  1  0.395165  -0.016104  4.218231  -0.019  0.432943  -0.02881  4.494452  -0.032  0.4499  -0.0235  4.526461  -0.027  0.092594  0.421167  -0.033827  4.469559  -0.037
N  N72  1  0.75886925  0.72782955  0.91979048  1  0.39288  0.002759  4.198173  0.003  0.430105  0.00299  4.476003  0.003  0.44706  0.00312  4.507754  0.003  0.090865  0.418126  0.002811  4.451588  0.003
N  N73  1  0.31595106  0.36529993  0.99859311  1  -0.49492  -0.046221  2.650452  -0.031  -0.479516  -0.055315  2.946502  -0.032  -0.499527  -0.04758  2.952786  -0.026  -0.245129  -0.461802  -0.062367  2.940091  -0.037
N  N74  1  0.68238666  0.63469235  0.00137032  1  -0.492015  0.048658  2.665854  0.064  -0.47797  0.036387  2.967586  0.053  -0.497435  0.044917  2.9725  0.061  -0.249661  -0.461437  0.030503  2.962878  0.047
N  N75  1  0.31017501  0.24580176  0.36853068  1  -0.497356  -0.040207  2.633846  -0.025  -0.486617  -0.050343  2.930904  -0.027  -0.503397  -0.041535  2.935849  -0.02  -0.252124  -0.473026  -0.059079  2.92674  -0.035
N  N76  1  0.69326672  0.75419635  0.63157141  1  -0.490838  -0.052345  2.648635  -0.068  -0.481638  -0.041157  2.950206  -0.058  -0.498195  -0.048062  2.954373  -0.065  -0.252552  -0.467848  -0.036627  2.946868  -0.053
N  N77  1  0.35187170  0.34844258  0.28992562  1  0.392386  -0.014528  4.218024  -0.017  0.429062  -0.028557  4.49899  -0.031  0.446025  -0.022782  4.529875  -0.026  0.088438  0.417267  -0.033699  4.47589  -0.036
N  N78  1  0.64770133  0.65210847  0.71070313  1  0.391358  0.001582  4.201209  0.002  0.427831  0.002534  4.481913  0.002  0.444818  0.00196  4.512887  0.002  0.087691  0.415817  0.002363  4.458451  0.002
N  N79  1  0.39356198  0.45141213  0.21301800  1  -0.480147  -0.046216  2.626462  -0.031  -0.466359  -0.056409  2.919649  -0.033  -0.484643  -0.048093  2.92547  -0.027  -0.241272  -0.450601  -0.065048  2.914264  -0.041
N  N80  1  0.60209241  0.54970848  0.78833283  1  -0.476695  0.050613  2.646701  0.065  -0.463419  0.038554  2.944926  0.054  -0.481648  0.046838  2.949763  0.063  -0.244586  -0.447914  0.033268  2.940469  0.049
N  N81  1  0.07512962  0.03078220  0.57970700  1  -0.591929  0.001757  2.828522  0.0  -0.553536  0.001889  3.159657  -0.001  -0.584179  0.001351  3.163372  -0.001  -0.314551  -0.527628  0.003058  3.155011  0.001
N  N82  1  0.92406619  0.96855042  0.42088439  1  -0.592072  -0.000973  2.830541  0.001  -0.553394  -0.001675  3.161303  0.001  -0.583904  -0.000381  3.164908  0.002  -0.315033  -0.527675  -0.00329  3.156863  0.0
N  N83  1  0.09355556  0.09568551  0.64412777  1  0.397436  -0.000273  4.186753  0.0  0.431766  -0.000262  4.466249  0.0  0.448556  -0.000164  4.497965  0.0  0.095107  0.419808  -0.000605  4.440505  -0.001
N  N84  1  0.90591469  0.90373717  0.35631884  1  0.396788  0.00017  4.188796  0.0  0.431  -0.000776  4.4681  -0.001  0.447808  -0.000315  4.499681  0.0  0.095227  0.419005  -0.00134  4.442613  -0.001
N  N85  1  0.11225865  0.16118958  0.70316818  1  -0.368598  0.004731  2.456401  0.005  -0.370039  0.00296  2.702589  0.003  -0.380026  0.003585  2.716701  0.003  -0.167022  -0.35856  0.003294  2.69054  0.003
N  N86  1  0.88725824  0.83808740  0.29740257  1  -0.368137  -0.008896  2.455576  -0.009  -0.369661  -0.007394  2.701885  -0.007  -0.379579  -0.007171  2.715908  -0.007  -0.167282  -0.358279  -0.008896  2.689945  -0.008
N  N87  1  0.94891850  0.27068110  0.37938026  1  -0.331198  -0.027157  3.254234  -0.015  -0.261107  -0.030126  3.524328  -0.015  -0.280644  -0.027487  3.542106  -0.012  -0.319828  -0.247439  -0.032333  3.513194  -0.017
N  N88  1  0.05153338  0.72916733  0.62090972  1  -0.331026  0.026995  3.253938  0.015  -0.260351  0.029176  3.522799  0.014  -0.280308  0.027114  3.540969  0.012  -0.31967  -0.245843  0.03003  3.511028  0.015
N  N89  1  0.32344004  0.65230344  0.98533366  1  -0.341466  -0.026399  3.271065  -0.015  -0.269961  -0.029167  3.540885  -0.014  -0.290325  -0.026491  3.557691  -0.012  -0.326395  -0.256094  -0.03274  3.530213  -0.017
N  N90  1  0.67742651  0.34911456  0.01407718  1  -0.340907  -0.02683  3.27295  -0.015  -0.270264  -0.029651  3.544193  -0.014  -0.290495  -0.026855  3.560737  -0.012  -0.326852  -0.2564  -0.032109  3.53344  -0.017
N  N91  1  0.30775823  0.97580922  0.32449559  1  -0.334283  -0.02621  3.265911  -0.014  -0.264164  -0.029356  3.540254  -0.013  -0.283734  -0.026213  3.556888  -0.011  -0.326484  -0.250918  -0.03236  3.529923  -0.016
N  N92  1  0.69243375  0.02383118  0.67567159  1  -0.335443  0.025997  3.268248  0.014  -0.264659  0.028345  3.54192  0.013  -0.284672  0.025657  3.558865  0.01  -0.326772  -0.250731  0.030378  3.531296  0.015
