# generated using pymatgen
data_Zn3H15C31N5O18
_symmetry_space_group_name_H-M   'P 1'
_cell_length_a   21.80974262
_cell_length_b   21.91968935
_cell_length_c   21.82461329
_cell_angle_alpha   118.97646923
_cell_angle_beta   117.93539317
_cell_angle_gamma   92.67439721
_symmetry_Int_Tables_number   1
_chemical_formula_structural   Zn3H15C31N5O18
_chemical_formula_sum   'Zn6 H30 C62 N10 O36'
_cell_volume   7541.66301924
_cell_formula_units_Z   2
loop_
 _symmetry_equiv_pos_site_id
 _symmetry_equiv_pos_as_xyz
  1  'x, y, z'
loop_
 _atom_site_type_symbol
 _atom_site_label
 _atom_site_symmetry_multiplicity
 _atom_site_fract_x
 _atom_site_fract_y
 _atom_site_fract_z
 _atom_site_occupancy
 _atom_site_pbe_bader_charge
 _atom_site_pbe_bader_spin_density
 _atom_site_pbe_cm5_charge
 _atom_site_pbe_ddec_charge
 _atom_site_pbe_ddec_spin_density
 _atom_site_pbe_ddec_sum_bond_order
 _atom_site_pbe_magmom
Zn  Zn0  1  0.50346606  0.43046145  0.49481850  1  1.317251  0  0.740559  0.974067  0  2.08042  0
Zn  Zn1  1  0.50346579  0.56061507  0.50445421  1  1.321958  0  0.742342  0.97215  0  2.126953  0
Zn  Zn2  1  0.93958595  0.00511245  0.50649881  1  1.32426  0  0.749521  0.982886  0  2.092706  0
Zn  Zn3  1  0.06161308  0.99792786  0.49649199  1  1.325919  0  0.748044  0.991576  0  2.067196  0
Zn  Zn4  1  0.03989627  0.53829825  0.58107503  1  1.308733  0  0.72015  0.950665  0  2.173676  0
Zn  Zn5  1  0.96174090  0.44830446  0.41013703  1  1.302356  0  0.718277  0.944646  0  2.14286  0
H  H6  1  0.72956747  0.70151108  0.07190626  1  0.113259  0  0.133968  0.13882  0  0.92241  0
H  H7  1  0.17277246  0.30751029  0.91305963  1  0.145088  0  0.135481  0.14022  0  0.921053  0
H  H8  1  0.87746571  0.81510508  0.09517038  1  0.082195  0  0.118819  0.154239  0  0.942251  0
H  H9  1  0.12796046  0.16281854  0.93774230  1  0.094509  0  0.114332  0.137336  0  0.95503  0
H  H10  1  0.16402182  0.42869444  0.41325351  1  0.113018  0  0.115029  0.151918  0  0.991297  0
H  H11  1  0.80928053  0.49967343  0.51320859  1  0.117518  0  0.115  0.148946  0  0.999827  0
H  H12  1  0.34547161  0.56857600  0.55515949  1  0.13853  0  0.122206  0.13552  0  0.980313  0
H  H13  1  0.64195437  0.35335243  0.40230504  1  0.121465  0  0.126835  0.139782  0  0.968851  0
H  H14  1  0.02501861  0.64357274  0.41759557  1  0.116665  0  0.116451  0.121393  0  0.970332  0
H  H15  1  0.02725611  0.36273727  0.63726583  1  0.11056  0  0.117642  0.120987  0  0.969956  0
H  H16  1  0.02551506  0.73995835  0.57830052  1  0.118484  0  0.116117  0.14165  0  0.986805  0
H  H17  1  0.05324207  0.29925455  0.49404821  1  0.120938  0  0.117689  0.142716  0  0.984371  0
H  H18  1  0.61119628  0.66480807  0.91274868  1  0.11671  0  0.125193  0.088096  0  0.940555  0
H  H19  1  0.31882349  0.39236884  0.06206345  1  0.116047  0  0.128835  0.094853  0  0.935328  0
H  H20  1  0.79631363  0.88180726  0.06267823  1  0.130891  0  0.137452  0.14965  0  0.9203  0
H  H21  1  0.24721240  0.14918245  0.96206121  1  0.121874  0  0.133951  0.142921  0  0.928913  0
H  H22  1  0.83664849  0.72853047  0.07290409  1  0.083347  0  0.115547  0.138495  0  0.960611  0
H  H23  1  0.11592313  0.24532704  0.94601157  1  0.094  0  0.12169  0.153609  0  0.943006  0
H  H24  1  0.72597954  0.61060759  0.92199811  1  0.629344  0  0.304231  0.349488  0  0.965588  0
H  H25  1  0.19506140  0.37782808  0.07046229  1  0.602915  0  0.303166  0.34029  0  0.971136  0
H  H26  1  0.30770448  0.61698120  0.64581645  1  0.606089  0  0.346605  0.366705  0  0.865762  0
H  H27  1  0.66463447  0.30115537  0.29548336  1  0.629643  0  0.350054  0.373474  0  0.857365  0
H  H28  1  0.95129091  0.85086973  0.53570162  1  0.62439  0  0.332936  0.371825  0  0.884025  0
H  H29  1  0.12675936  0.18031166  0.51059266  1  0.627679  0  0.344103  0.379855  0  0.865243  0
H  H30  1  0.60684356  0.82374313  0.95539350  1  0.619484  0  0.336126  0.378122  0  0.86884  0
H  H31  1  0.39945681  0.27627641  0.02448195  1  0.633227  0  0.337782  0.38039  0  0.864143  0
H  H32  1  0.84784253  0.67025270  0.94904486  1  0.616598  0  0.347248  0.391096  0  0.844092  0
H  H33  1  0.21487328  0.33821295  0.15729659  1  0.61389  0  0.332774  0.374996  0  0.87664  0
H  H34  1  0.79827277  0.76521815  0.89769125  1  0.580489  0  0.336449  0.382634  0  0.862186  0
H  H35  1  0.18889203  0.18778509  0.07348358  1  0.603372  0  0.342544  0.383562  0  0.854666  0
C  C36  1  0.39146351  0.46161862  0.50386645  1  1.591245  0  0.224136  0.603167  0  4.157873  0
C  C37  1  0.60568450  0.46872707  0.47522620  1  1.585701  0  0.225776  0.605217  0  4.154944  0
C  C38  1  0.82486303  0.77010268  0.05902890  1  -0.042038  0  -0.15473  -0.35245  0  3.816009  0
C  C39  1  0.15738685  0.21948445  0.96200213  1  -0.066535  0  -0.153226  -0.348042  0  3.827322  0
C  C40  1  0.78833237  0.73389312  0.96378758  1  0.97872  0  0.157082  0.483275  0  3.865504  0
C  C41  1  0.21308385  0.26441312  0.05854510  1  0.975202  0  0.155512  0.479824  0  3.873026  0
C  C42  1  0.81246104  0.84738536  0.17751709  1  -0.011153  0  -0.017055  -0.03531  0  3.992991  0
C  C43  1  0.14926020  0.16270785  0.82844131  1  -0.203994  0  -0.018596  -0.037581  0  4.00619  0
C  C44  1  0.66395985  0.67330295  0.82775156  1  -0.151071  0  -0.023886  -0.006861  0  4.051337  0
C  C45  1  0.33368495  0.36676752  0.17592408  1  -0.320508  0  -0.021108  -0.008175  0  4.057976  0
C  C46  1  0.63048385  0.63768069  0.75124778  1  -0.089219  0  -0.028974  -0.160494  0  3.911652  0
C  C47  1  0.37025917  0.40872281  0.25257105  1  0.098121  0  -0.030563  -0.168222  0  3.919302  0
C  C48  1  0.24088073  0.52610699  0.53509526  1  0.45813  0  0.094653  0.34193  0  4.093539  0
C  C49  1  0.73248071  0.39735273  0.39943804  1  0.461472  0  0.095374  0.338468  0  4.096258  0
C  C50  1  0.17110869  0.47609414  0.46952195  1  0.063168  0  -0.103082  -0.351708  0  3.815507  0
C  C51  1  0.79996478  0.45280330  0.45510642  1  0.085966  0  -0.100842  -0.342831  0  3.812999  0
C  C52  1  0.30491607  0.51788571  0.53108872  1  -0.000972  0  -0.04932  -0.154711  0  3.899671  0
C  C53  1  0.67667561  0.40378769  0.41907292  1  -0.005584  0  -0.044726  -0.149362  0  3.87746  0
C  C54  1  0.32235910  0.45540590  0.50332650  1  0.069463  0  0.008856  -0.051093  0  3.988061  0
C  C55  1  0.66284870  0.46725011  0.45551424  1  0.110242  0  0.008836  -0.055172  0  3.991552  0
C  C56  1  0.01415634  0.88070410  0.49179526  1  1.555326  0  0.217362  0.541222  0  4.19778  0
C  C57  1  0.04560124  0.12542718  0.52456363  1  1.542809  0  0.215936  0.539178  0  4.210449  0
C  C58  1  0.58702596  0.59331998  0.66000633  1  1.698492  0  0.23145  0.681818  0  4.195297  0
C  C59  1  0.41685044  0.45073741  0.34367124  1  1.621333  0  0.228011  0.67746  0  4.207718  0
C  C60  1  0.89497560  0.93044472  0.34536334  1  1.649732  0  0.234634  0.686188  0  4.189967  0
C  C61  1  0.05994731  0.07377552  0.66110845  1  1.668172  0  0.230682  0.678868  0  4.198759  0
C  C62  1  0.01284434  0.62227798  0.52162695  1  1.553629  0  0.215433  0.646006  0  4.14658  0
C  C63  1  0.03524420  0.40442010  0.54249706  1  1.53557  0  0.213299  0.640115  0  4.157685  0
C  C64  1  0.10329827  0.48160967  0.46715350  1  1.563515  0  0.209698  0.664227  0  4.141936  0
C  C65  1  0.86663579  0.45759497  0.45378359  1  1.545257  0  0.215083  0.672415  0  4.131225  0
C  C66  1  0.02597506  0.69377159  0.46675541  1  -0.005964  0  -0.066421  -0.04809  0  3.945331  0
C  C67  1  0.03786715  0.32299203  0.59180253  1  -0.063801  0  -0.067713  -0.056853  0  3.952591  0
C  C68  1  0.02016683  0.69111292  0.52441236  1  -0.029391  0  -0.081654  -0.203394  0  3.854751  0
C  C69  1  0.04688024  0.33901435  0.54355801  1  0.01424  0  -0.078613  -0.19298  0  3.854778  0
C  C70  1  0.03623315  0.75932790  0.46545338  1  0.191889  0  0.000113  -0.02996  0  4.062709  0
C  C71  1  0.03164069  0.25103086  0.58017315  1  0.167779  0  0.003388  -0.021948  0  4.044641  0
C  C72  1  0.01013284  0.81487680  0.49625639  1  0.51861  0  0.099551  0.136172  0  3.968561  0
C  C73  1  0.06161560  0.20207253  0.54540644  1  0.567185  0  0.099247  0.134825  0  3.973973  0
C  C74  1  0.67121971  0.67735380  0.94673337  1  0.532232  0  0.018006  0.192996  0  3.77641  0
C  C75  1  0.26686275  0.35552444  0.04008701  1  0.535795  0  0.017555  0.18717  0  3.785828  0
C  C76  1  0.68947272  0.79465819  0.95088026  1  0.629425  0  0.11559  0.267729  0  3.856763  0
C  C77  1  0.32781183  0.26278732  0.05185401  1  0.62591  0  0.117302  0.270643  0  3.83958  0
C  C78  1  0.74701347  0.84869769  0.04993948  1  0.069549  0  -0.044604  -0.158281  0  3.842405  0
C  C79  1  0.26663038  0.19392275  0.95855116  1  0.08187  0  -0.044964  -0.157844  0  3.844316  0
C  C80  1  0.84702087  0.88590798  0.25420686  1  -0.215381  0  -0.027798  -0.154475  0  3.913623  0
C  C81  1  0.10702819  0.12029075  0.75213213  1  -0.07993  0  -0.028942  -0.153678  0  3.926051  0
C  C82  1  0.70243578  0.71782091  0.91898850  1  0.078245  0  0.004795  -0.084381  0  3.820785  0
C  C83  1  0.28710463  0.31416474  0.08484720  1  0.135665  0  0.005089  -0.080395  0  3.821105  0
C  C84  1  0.70650396  0.73249209  0.04460074  1  0.054556  0  -0.052014  -0.138598  0  3.842539  0
C  C85  1  0.22359659  0.29599492  0.94165255  1  0.054077  0  -0.050465  -0.135562  0  3.841845  0
C  C86  1  0.77297896  0.80132350  0.08605031  1  0.159088  0  0.021314  0.171178  0  3.861374  0
C  C87  1  0.19834480  0.21595336  0.91925499  1  0.14615  0  0.020114  0.167772  0  3.870289  0
C  C88  1  0.65138505  0.75271292  0.06264872  1  0.843374  0  0.166459  0.244522  0  3.989857  0
C  C89  1  0.26409658  0.30278270  0.90653906  1  0.822501  0  0.166913  0.246583  0  3.987587  0
C  C90  1  0.27987760  0.38514027  0.47513302  1  0.8352  0  0.17406  0.249334  0  4.043483  0
C  C91  1  0.69841434  0.53620058  0.47471765  1  0.834428  0  0.173473  0.250415  0  4.046504  0
C  C92  1  0.06951175  0.75992845  0.42291657  1  0.81279  0  0.165161  0.237423  0  4.067722  0
C  C93  1  0.99058281  0.23346844  0.60820500  1  0.830118  0  0.164389  0.239964  0  4.067398  0
C  C94  1  0.70009049  0.82951446  0.91150356  1  0.850604  0  0.163997  0.157592  0  3.957716  0
C  C95  1  0.36799374  0.23614437  0.10442693  1  0.895453  0  0.167068  0.183244  0  3.931581  0
C  C96  1  0.71530208  0.90041412  0.08656521  1  0.814063  0  0.171969  0.239489  0  3.997647  0
C  C97  1  0.29989370  0.16627949  0.91082973  1  0.821477  0  0.171001  0.239217  0  4.002925  0
N  N98  1  0.60631503  0.76708346  0.07597407  1  -1.089682  0  -0.30902  -0.347698  0  2.682097  0
N  N99  1  0.29565977  0.30969007  0.87822228  1  -1.080073  0  -0.310075  -0.34955  0  2.679938  0
N  N100  1  0.24521247  0.32686538  0.45101221  1  -1.080109  0  -0.301524  -0.340727  0  2.650183  0
N  N101  1  0.72654660  0.59364262  0.49155526  1  -1.086888  0  -0.301852  -0.338406  0  2.64519  0
N  N102  1  0.09577064  0.75416033  0.38524171  1  -1.100597  0  -0.329199  -0.370619  0  2.667428  0
N  N103  1  0.95797549  0.22703830  0.63594971  1  -1.109543  0  -0.331296  -0.374679  0  2.670511  0
N  N104  1  0.70607466  0.85869128  0.88092687  1  -1.066632  0  -0.296033  -0.303438  0  2.679564  0
N  N105  1  0.40478800  0.21561348  0.14415233  1  -1.098683  0  -0.304372  -0.317957  0  2.670925  0
N  N106  1  0.68670482  0.94122556  0.11002295  1  -1.067352  0  -0.288312  -0.323229  0  2.667565  0
N  N107  1  0.33139345  0.14595797  0.87815527  1  -1.067891  0  -0.289842  -0.32478  0  2.67042  0
O  O108  1  0.41688939  0.40839351  0.49606473  1  -1.116668  0  -0.301424  -0.502091  0  2.227156  0
O  O109  1  0.58591364  0.52503069  0.49131640  1  -1.172532  0  -0.300831  -0.557655  0  2.340192  0
O  O110  1  0.97993836  0.55949664  0.45044836  1  -1.178877  0  -0.31362  -0.572505  0  2.286772  0
O  O111  1  0.06100714  0.46859761  0.61244953  1  -1.131982  0  -0.321006  -0.532946  0  2.198983  0
O  O112  1  0.10860254  0.52333227  0.53618027  1  -1.165497  0  -0.31007  -0.561699  0  2.306249  0
O  O113  1  0.86204866  0.42102213  0.38345678  1  -1.113615  0  -0.314803  -0.519606  0  2.197288  0
O  O114  1  0.04149195  0.44102680  0.39281678  1  -1.127687  0  -0.328743  -0.539414  0  2.188404  0
O  O115  1  0.92695509  0.50160277  0.52668604  1  -1.172294  0  -0.319173  -0.579922  0  2.287075  0
O  O116  1  0.41966520  0.51913955  0.51215962  1  -1.178968  0  -0.309799  -0.57754  0  2.347178  0
O  O117  1  0.58081402  0.41377322  0.47451842  1  -1.124091  0  -0.309165  -0.517351  0  2.232095  0
O  O118  1  0.57131038  0.52327767  0.62132802  1  -1.148959  0  -0.301025  -0.555354  0  2.23844  0
O  O119  1  0.43693695  0.52238116  0.38616451  1  -1.101838  0  -0.305857  -0.512015  0  2.183602  0
O  O120  1  0.56723342  0.62948556  0.62615631  1  -1.102425  0  -0.305597  -0.511869  0  2.198473  0
O  O121  1  0.43436910  0.41297186  0.37428559  1  -1.148763  0  -0.297448  -0.555165  0  2.253024  0
O  O122  1  0.96675565  0.91030005  0.49910715  1  -1.179148  0  -0.310519  -0.585798  0  2.339959  0
O  O123  1  0.09004213  0.09240991  0.51076275  1  -1.127604  0  -0.312914  -0.531445  0  2.235448  0
O  O124  1  0.06350887  0.90408199  0.48448007  1  -1.108442  0  -0.289304  -0.479059  0  2.279749  0
O  O125  1  0.99007214  0.09704443  0.51910818  1  -1.165963  0  -0.291039  -0.539295  0  2.408431  0
O  O126  1  0.86431385  0.94962370  0.38660990  1  -1.103653  0  -0.299598  -0.506365  0  2.188905  0
O  O127  1  0.09164512  0.05371708  0.62220561  1  -1.134681  0  -0.298784  -0.553995  0  2.2484  0
O  O128  1  0.96407806  0.94651165  0.37711833  1  -1.148304  0  -0.302873  -0.563428  0  2.259603  0
O  O129  1  0.98956569  0.05757027  0.62745454  1  -1.088054  0  -0.30365  -0.511849  0  2.202087  0
O  O130  1  0.04227636  0.63266589  0.59450402  1  -1.120463  0  -0.322371  -0.533243  0  2.212486  0
O  O131  1  0.99826231  0.39087316  0.46908095  1  -1.153965  0  -0.311891  -0.570578  0  2.282037  0
O  O132  1  0.68301538  0.60940749  0.92613156  1  -1.126853  0  -0.405526  -0.488322  0  2.167518  0
O  O133  1  0.22658349  0.40077692  0.06114169  1  -1.108922  0  -0.404783  -0.484421  0  2.176787  0
O  O134  1  0.25434797  0.59015616  0.60514970  1  -1.086584  0  -0.326429  -0.400913  0  2.255695  0
O  O135  1  0.71624758  0.33275633  0.32833784  1  -1.116091  0  -0.327354  -0.408508  0  2.237227  0
O  O136  1  0.97311365  0.81149450  0.53028946  1  -1.102886  0  -0.317485  -0.375047  0  2.305738  0
O  O137  1  0.10739464  0.22091035  0.52721293  1  -1.100013  0  -0.311207  -0.371664  0  2.304528  0
O  O138  1  0.61487738  0.77750370  0.92614853  1  -1.076267  0  -0.353078  -0.472626  0  2.194456  0
O  O139  1  0.38015706  0.30784781  0.05572473  1  -1.096091  0  -0.352095  -0.474771  0  2.189753  0
O  O140  1  0.79504543  0.66284593  0.92223929  1  -1.115722  0  -0.373245  -0.545475  0  2.207782  0
O  O141  1  0.17933321  0.30955004  0.09568811  1  -1.108823  0  -0.376983  -0.533524  0  2.182309  0
O  O142  1  0.82345070  0.78395321  0.95742002  1  -1.079805  0  -0.378614  -0.534009  0  2.190994  0
O  O143  1  0.23341879  0.21896161  0.08784766  1  -1.110712  0  -0.374392  -0.536218  0  2.218158  0
