# generated using pymatgen
data_Zn2H21C25NO8
_symmetry_space_group_name_H-M   'P 1'
_cell_length_a   10.16971295
_cell_length_b   11.09458927
_cell_length_c   29.52801720
_cell_angle_alpha   89.99928779
_cell_angle_beta   90.00041073
_cell_angle_gamma   89.99940379
_symmetry_Int_Tables_number   1
_chemical_formula_structural   Zn2H21C25NO8
_chemical_formula_sum   'Zn8 H84 C100 N4 O32'
_cell_volume   3331.61039701
_cell_formula_units_Z   4
loop_
 _symmetry_equiv_pos_site_id
 _symmetry_equiv_pos_as_xyz
  1  'x, y, z'
loop_
 _atom_site_type_symbol
 _atom_site_label
 _atom_site_symmetry_multiplicity
 _atom_site_fract_x
 _atom_site_fract_y
 _atom_site_fract_z
 _atom_site_occupancy
 _atom_site_pbe_bader_charge
 _atom_site_pbe_bader_spin_density
 _atom_site_pbe_cm5_charge
 _atom_site_pbe_ddec_charge
 _atom_site_pbe_ddec_spin_density
 _atom_site_pbe_ddec_sum_bond_order
 _atom_site_pbe_magmom
Zn  Zn0  1  0.65957171  0.68217990  0.99002707  1  1.342098  0  0.680348  0.947796  0  2.310964  0
Zn  Zn1  1  0.84042916  0.31782400  0.49002947  1  1.342038  0  0.680357  0.947879  0  2.310974  0
Zn  Zn2  1  0.34043765  0.18219959  0.50996989  1  1.342054  0  0.680342  0.94783  0  2.310724  0
Zn  Zn3  1  0.15956339  0.81779411  0.00997286  1  1.342128  0  0.680287  0.94775  0  2.310946  0
Zn  Zn4  1  0.96533228  0.56515016  0.99437987  1  1.362291  0  0.684633  0.964627  0  2.295083  0
Zn  Zn5  1  0.53466573  0.43485091  0.49437621  1  1.362198  0  0.684668  0.964782  0  2.294945  0
Zn  Zn6  1  0.03468923  0.06517651  0.50561427  1  1.362094  0  0.684656  0.964748  0  2.295025  0
Zn  Zn7  1  0.46531959  0.93482094  0.00562048  1  1.362133  0  0.684659  0.964706  0  2.294951  0
H  H8  1  0.75232554  0.99733266  0.02196076  1  0.079308  0  0.10922  0.074359  0  0.962296  0
H  H9  1  0.74767743  0.00266399  0.52196282  1  0.079275  0  0.109218  0.074421  0  0.96236  0
H  H10  1  0.24764727  0.49735688  0.47803698  1  0.07891  0  0.109223  0.074444  0  0.962121  0
H  H11  1  0.25234085  0.50263416  0.97805430  1  0.078879  0  0.109236  0.074427  0  0.962366  0
H  H12  1  0.87919444  0.14253038  0.98020033  1  0.060124  0  0.099091  0.095061  0  1.031886  0
H  H13  1  0.62081409  0.85747295  0.48020335  1  0.060479  0  0.099075  0.095019  0  1.0319  0
H  H14  1  0.12080161  0.64256002  0.51980427  1  0.059996  0  0.099126  0.095036  0  1.031948  0
H  H15  1  0.37916522  0.35741984  0.01981640  1  0.059873  0  0.099159  0.095176  0  1.032149  0
H  H16  1  0.91612136  0.25062191  0.90798565  1  0.061009  0  0.099931  0.099615  0  1.010891  0
H  H17  1  0.58389355  0.74938107  0.40799045  1  0.061268  0  0.099896  0.099593  0  1.010961  0
H  H18  1  0.08388527  0.75063242  0.59202081  1  0.061133  0  0.099889  0.099616  0  1.010828  0
H  H19  1  0.41608798  0.24934058  0.09203320  1  0.061102  0  0.099823  0.099589  0  1.010783  0
H  H20  1  0.83059656  0.16390645  0.83550476  1  0.043844  0  0.096077  0.090487  0  1.009922  0
H  H21  1  0.66938636  0.83611692  0.33550665  1  0.043917  0  0.096136  0.090451  0  1.009818  0
H  H22  1  0.16937958  0.66388043  0.66450042  1  0.044088  0  0.096091  0.090463  0  1.009878  0
H  H23  1  0.33064138  0.33610823  0.16451659  1  0.044798  0  0.096086  0.090451  0  1.009792  0
H  H24  1  0.71170370  0.96709852  0.83669209  1  0.064195  0  0.096504  0.09101  0  1.001124  0
H  H25  1  0.78827825  0.03292211  0.33669333  1  0.064418  0  0.096459  0.090905  0  1.001162  0
H  H26  1  0.28824343  0.46705421  0.66330894  1  0.06445  0  0.096488  0.090883  0  1.001285  0
H  H27  1  0.21181291  0.53295341  0.16332592  1  0.063878  0  0.096621  0.09094  0  1.001408  0
H  H28  1  0.67400882  0.86064742  0.90975511  1  0.088019  0  0.100533  0.106333  0  1.024595  0
H  H29  1  0.82599235  0.13936452  0.40975662  1  0.08804  0  0.100558  0.106367  0  1.024669  0
H  H30  1  0.32594346  0.36062857  0.59024338  1  0.088216  0  0.100555  0.106332  0  1.024784  0
H  H31  1  0.17410055  0.63938144  0.09025976  1  0.087609  0  0.100554  0.106195  0  1.024859  0
H  H32  1  0.96348389  0.50810940  0.13217920  1  0.116671  0  0.099042  0.099579  0  1.039796  0
H  H33  1  0.53649383  0.49191520  0.63218045  1  0.116536  0  0.098952  0.099362  0  1.039846  0
H  H34  1  0.03652692  0.00808425  0.36781883  1  0.116837  0  0.099097  0.099632  0  1.039866  0
H  H35  1  0.46349432  0.99191309  0.86782114  1  0.116509  0  0.098998  0.099452  0  1.039855  0
H  H36  1  0.94265445  0.47613130  0.21504835  1  0.079345  0  0.098506  0.096209  0  1.014267  0
H  H37  1  0.55732498  0.52389331  0.71504950  1  0.079129  0  0.098484  0.096223  0  1.014023  0
H  H38  1  0.05734515  0.97608980  0.28494917  1  0.079415  0  0.098478  0.096276  0  1.014068  0
H  H39  1  0.44266749  0.02389133  0.78495330  1  0.079216  0  0.098533  0.096276  0  1.014059  0
H  H40  1  0.52381329  0.53330006  0.20498267  1  0.058101  0  0.099808  0.097522  0  1.013871  0
H  H41  1  0.97616200  0.46667890  0.70498310  1  0.05802  0  0.099865  0.097549  0  1.014012  0
H  H42  1  0.47618347  0.03329924  0.29500847  1  0.058089  0  0.099894  0.097623  0  1.013802  0
H  H43  1  0.02383725  0.96662838  0.79501320  1  0.058318  0  0.099851  0.097531  0  1.014056  0
H  H44  1  0.54786403  0.57272231  0.12273259  1  0.106406  0  0.105893  0.113476  0  1.007014  0
H  H45  1  0.95209875  0.42726024  0.62273721  1  0.106567  0  0.105922  0.113616  0  1.007097  0
H  H46  1  0.45214212  0.07271813  0.37725667  1  0.106681  0  0.105922  0.113547  0  1.007057  0
H  H47  1  0.04788719  0.92723024  0.87726063  1  0.106274  0  0.105925  0.113619  0  1.007097  0
H  H48  1  0.87989189  0.35240916  0.26827225  1  0.046559  0  0.100785  0.099713  0  1.009936  0
H  H49  1  0.62010242  0.64759568  0.76827331  1  0.04664  0  0.100833  0.099886  0  1.010003  0
H  H50  1  0.12012485  0.85237691  0.23173161  1  0.046332  0  0.100826  0.099915  0  1.009914  0
H  H51  1  0.37991422  0.14757350  0.73172822  1  0.046906  0  0.100765  0.099753  0  1.009884  0
H  H52  1  0.86745500  0.32435004  0.35157352  1  0.071757  0  0.106428  0.111888  0  0.997168  0
H  H53  1  0.63254202  0.67566200  0.85157279  1  0.073043  0  0.106445  0.111853  0  0.997145  0
H  H54  1  0.13254436  0.82433301  0.14842843  1  0.072999  0  0.10645  0.111848  0  0.997183  0
H  H55  1  0.36748217  0.17565077  0.64842726  1  0.071947  0  0.106368  0.111805  0  0.997086  0
H  H56  1  0.53650140  0.56345906  0.35791771  1  0.109317  0  0.106782  0.111347  0  0.995836  0
H  H57  1  0.96348985  0.43654376  0.85792468  1  0.109387  0  0.106724  0.111289  0  0.995818  0
H  H58  1  0.46348322  0.06345613  0.14207634  1  0.109436  0  0.106744  0.111378  0  0.995929  0
H  H59  1  0.03651466  0.93656030  0.64206905  1  0.10955  0  0.106766  0.111354  0  0.995892  0
H  H60  1  0.55496594  0.60176548  0.27512915  1  0.062238  0  0.101923  0.101918  0  1.005468  0
H  H61  1  0.94502065  0.39823553  0.77513389  1  0.062391  0  0.101905  0.101868  0  1.005426  0
H  H62  1  0.44501726  0.10177535  0.22486776  1  0.062238  0  0.101935  0.102009  0  1.005327  0
H  H63  1  0.05496070  0.89823567  0.72486138  1  0.062198  0  0.101865  0.101848  0  1.005315  0
H  H64  1  0.97035245  0.35340181  0.05914453  1  0.129006  0  0.122699  0.053866  0  1.023889  0
H  H65  1  0.52965031  0.64660444  0.55914978  1  0.129092  0  0.12264  0.05384  0  1.02388  0
H  H66  1  0.02966625  0.85342669  0.44084814  1  0.123764  0  0.122644  0.053724  0  1.0237  0
H  H67  1  0.47035061  0.14656647  0.94084465  1  0.123857  0  0.122622  0.053603  0  1.023873  0
H  H68  1  0.03262965  0.05566368  0.06992062  1  0.084695  0  0.107022  0.139035  0  1.010737  0
H  H69  1  0.46737755  0.94433799  0.56992147  1  0.084937  0  0.107026  0.139077  0  1.010785  0
H  H70  1  0.96738849  0.55569348  0.43007245  1  0.084437  0  0.10698  0.139057  0  1.010619  0
H  H71  1  0.53260327  0.44431509  0.93007323  1  0.084127  0  0.106981  0.139074  0  1.010556  0
H  H72  1  0.99824049  0.19438297  0.09897695  1  0.029941  0  0.109541  0.120732  0  0.986667  0
H  H73  1  0.50176801  0.80562018  0.59897798  1  0.029928  0  0.109568  0.120819  0  0.986635  0
H  H74  1  0.00178198  0.69441934  0.40101716  1  0.029242  0  0.109478  0.120679  0  0.986814  0
H  H75  1  0.49821045  0.30559495  0.90101569  1  0.029247  0  0.1095  0.120721  0  0.986907  0
H  H76  1  0.16341973  0.14188216  0.09432283  1  0.057767  0  0.100298  0.113605  0  1.017402  0
H  H77  1  0.33658994  0.85812772  0.59432783  1  0.057843  0  0.100381  0.113714  0  1.017299  0
H  H78  1  0.83659743  0.64191852  0.40567051  1  0.057946  0  0.100243  0.113586  0  1.017336  0
H  H79  1  0.66339481  0.35809806  0.90566830  1  0.058102  0  0.10035  0.113718  0  1.017321  0
H  H80  1  0.25493584  0.12637726  0.01513242  1  0.072622  0  0.103751  0.115651  0  1.023626  0
H  H81  1  0.24506334  0.87363070  0.51513374  1  0.072495  0  0.103753  0.115668  0  1.023608  0
H  H82  1  0.74508740  0.62640109  0.48486098  1  0.07288  0  0.103745  0.115686  0  1.023682  0
H  H83  1  0.75490058  0.37361110  0.98486435  1  0.073095  0  0.103766  0.115694  0  1.023667  0
H  H84  1  0.18932091  0.23185297  0.97493206  1  0.08805  0  0.109472  0.128448  0  0.993522  0
H  H85  1  0.31067305  0.76815620  0.47493632  1  0.087856  0  0.109484  0.12847  0  0.993568  0
H  H86  1  0.81070067  0.73186865  0.52506331  1  0.087942  0  0.109445  0.128491  0  0.993565  0
H  H87  1  0.68927778  0.26813782  0.02506421  1  0.08766  0  0.109476  0.128484  0  0.993639  0
H  H88  1  0.11315053  0.08764057  0.98241740  1  0.120347  0  0.104815  0.125696  0  1.027187  0
H  H89  1  0.38684457  0.91235844  0.48241947  1  0.120358  0  0.10479  0.125618  0  1.027365  0
H  H90  1  0.88686777  0.58765667  0.51757527  1  0.117945  0  0.104778  0.125722  0  1.027152  0
H  H91  1  0.61310659  0.41234463  0.01757428  1  0.117461  0  0.104766  0.125768  0  1.027142  0
C  C92  1  0.87571117  0.85014803  0.00246859  1  1.588354  0  0.224036  0.598368  0  4.09791  0
C  C93  1  0.62429631  0.14986098  0.50247439  1  1.588915  0  0.22401  0.598253  0  4.097768  0
C  C94  1  0.12427806  0.35015387  0.49753087  1  1.588067  0  0.224182  0.598467  0  4.097719  0
C  C95  1  0.37571538  0.64983744  0.99753899  1  1.588471  0  0.224275  0.599025  0  4.097532  0
C  C96  1  0.75332915  0.92936293  0.99469539  1  0.51492  0  -0.007014  0.057937  0  3.969974  0
C  C97  1  0.74667083  0.07063812  0.49469838  1  0.514486  0  -0.007042  0.057668  0  3.970155  0
C  C98  1  0.24664988  0.42937916  0.50529939  1  0.514507  0  -0.00712  0.057814  0  3.969786  0
C  C99  1  0.25334910  0.57061469  0.00531392  1  0.515593  0  -0.007131  0.057406  0  3.970619  0
C  C100  1  0.77414797  0.99482971  0.94971358  1  0.032032  0  -0.016784  0.059972  0  3.941238  0
C  C101  1  0.72585403  0.00517912  0.44971615  1  0.031742  0  -0.016755  0.060108  0  3.941028  0
C  C102  1  0.22584801  0.49483656  0.55028259  1  0.031856  0  -0.016754  0.060099  0  3.941156  0
C  C103  1  0.27416567  0.50516033  0.05029409  1  0.030827  0  -0.016825  0.060154  0  3.941  0
C  C104  1  0.84268887  0.10420157  0.94860936  1  -0.035906  0  -0.092996  -0.126002  0  3.97871  0
C  C105  1  0.65731999  0.89580189  0.44861398  1  -0.036543  0  -0.092926  -0.125905  0  3.978284  0
C  C106  1  0.15731449  0.60421632  0.55139068  1  -0.036081  0  -0.093147  -0.126127  0  3.978543  0
C  C107  1  0.34267266  0.39576702  0.05140389  1  -0.035673  0  -0.092938  -0.126018  0  3.978972  0
C  C108  1  0.86342419  0.16493895  0.90785270  1  -0.052839  0  -0.094923  -0.083758  0  4.021179  0
C  C109  1  0.63657399  0.83506584  0.40785620  1  -0.05294  0  -0.094917  -0.083824  0  4.02114  0
C  C110  1  0.13657751  0.66494715  0.59215045  1  -0.053194  0  -0.094893  -0.083852  0  4.020915  0
C  C111  1  0.36340852  0.33503305  0.09216297  1  -0.052681  0  -0.09492  -0.084121  0  4.021218  0
C  C112  1  0.81553184  0.11623952  0.86741421  1  -0.024089  0  -0.100241  -0.100954  0  4.049131  0
C  C113  1  0.68446747  0.88377109  0.36741760  1  -0.035095  0  -0.100294  -0.100822  0  4.049064  0
C  C114  1  0.18445074  0.61622612  0.63258984  1  -0.03499  0  -0.100178  -0.100797  0  4.049113  0
C  C115  1  0.31556366  0.38376628  0.13260473  1  -0.035847  0  -0.100307  -0.100745  0  4.048688  0
C  C116  1  0.74813332  0.00641783  0.86819771  1  -0.128552  0  -0.097931  -0.091875  0  4.046817  0
C  C117  1  0.75185716  0.99359907  0.36819973  1  -0.117437  0  -0.097877  -0.091791  0  4.046952  0
C  C118  1  0.25184657  0.50640111  0.63180178  1  -0.117889  0  -0.097808  -0.09158  0  4.047056  0
C  C119  1  0.24818453  0.49360665  0.13181768  1  -0.117828  0  -0.098095  -0.09191  0  4.046692  0
C  C120  1  0.72732252  0.94589864  0.90911118  1  -0.104459  0  -0.094133  -0.123346  0  3.960098  0
C  C121  1  0.77267667  0.05411151  0.40911296  1  -0.104397  0  -0.094226  -0.123498  0  3.960416  0
C  C122  1  0.27264256  0.44588839  0.59088657  1  -0.104116  0  -0.09427  -0.123575  0  3.960718  0
C  C123  1  0.22737885  0.55411619  0.09089942  1  -0.102974  0  -0.094075  -0.123177  0  3.95998  0
C  C124  1  0.77090229  0.56543382  0.07278574  1  1.582741  0  0.221718  0.6034  0  4.171288  0
C  C125  1  0.72907616  0.43456387  0.57278774  1  1.582729  0  0.221876  0.603791  0  4.170895  0
C  C126  1  0.22909508  0.06545448  0.42720931  1  1.582803  0  0.221639  0.60323  0  4.171909  0
C  C127  1  0.27091952  0.93455085  0.92721379  1  1.582788  0  0.221839  0.603628  0  4.171041  0
C  C128  1  0.75699006  0.54274364  0.12240035  1  -0.019657  0  -0.022512  -0.04421  0  3.976943  0
C  C129  1  0.74298746  0.45724703  0.62240059  1  -0.01952  0  -0.02254  -0.044426  0  3.977149  0
C  C130  1  0.24301741  0.04276398  0.37759481  1  -0.018642  0  -0.022418  -0.043684  0  3.976366  0
C  C131  1  0.25700698  0.95723756  0.87759677  1  -0.018476  0  -0.022522  -0.044265  0  3.976784  0
C  C132  1  0.86762095  0.51369519  0.14855369  1  -0.138648  0  -0.089983  -0.094201  0  3.998378  0
C  C133  1  0.63236498  0.48630183  0.64855452  1  -0.138719  0  -0.08982  -0.093842  0  3.998554  0
C  C134  1  0.13238980  0.01369761  0.35144432  1  -0.139001  0  -0.090164  -0.094559  0  3.998549  0
C  C135  1  0.36763307  0.98629847  0.85144371  1  -0.13901  0  -0.089925  -0.094053  0  3.998527  0
C  C136  1  0.85510299  0.49472309  0.19487515  1  -0.072864  0  -0.095697  -0.139314  0  3.995666  0
C  C137  1  0.64488389  0.50527693  0.69487559  1  -0.072867  0  -0.095654  -0.139337  0  3.995638  0
C  C138  1  0.14489738  0.99471705  0.30512194  1  -0.073072  0  -0.095564  -0.139353  0  3.995495  0
C  C139  1  0.35511175  0.00527423  0.80512289  1  -0.073148  0  -0.09564  -0.139288  0  3.995785  0
C  C140  1  0.73154610  0.50187186  0.21630480  1  0.059104  0  -0.006375  0.068535  0  4.00271  0
C  C141  1  0.76843828  0.49812026  0.71630795  1  0.059519  0  -0.006502  0.068397  0  4.002702  0
C  C142  1  0.26845200  0.00188240  0.28369293  1  0.059348  0  -0.006413  0.06865  0  4.002503  0
C  C143  1  0.23155963  0.99808525  0.78369261  1  0.059995  0  -0.006492  0.068302  0  4.002826  0
C  C144  1  0.62116792  0.52997120  0.18953442  1  -0.075762  0  -0.090689  -0.134393  0  3.980807  0
C  C145  1  0.87881296  0.47000195  0.68953663  1  -0.075829  0  -0.090709  -0.134327  0  3.980499  0
C  C146  1  0.37883675  0.02998432  0.31045978  1  -0.076222  0  -0.090672  -0.13452  0  3.980881  0
C  C147  1  0.12118036  0.96997614  0.81046270  1  -0.076509  0  -0.090745  -0.134318  0  3.980826  0
C  C148  1  0.63360228  0.55105515  0.14330304  1  -0.028501  0  -0.080475  -0.076938  0  3.968273  0
C  C149  1  0.86637075  0.44892222  0.64330430  1  -0.028766  0  -0.080475  -0.077085  0  3.968299  0
C  C150  1  0.36640313  0.05107409  0.35668869  1  -0.029287  0  -0.080615  -0.077192  0  3.968293  0
C  C151  1  0.13362083  0.94889478  0.85669276  1  -0.028618  0  -0.080521  -0.077118  0  3.968348  0
C  C152  1  0.71926025  0.48037144  0.26547102  1  -0.042127  0  -0.004836  0.073845  0  4.000926  0
C  C153  1  0.78072417  0.51963529  0.76547240  1  -0.041882  0  -0.00475  0.07411  0  4.000896  0
C  C154  1  0.28074521  0.98035830  0.23452681  1  -0.041725  0  -0.004767  0.074119  0  4.00043  0
C  C155  1  0.21927032  0.01963168  0.73452838  1  -0.041891  0  -0.004721  0.074112  0  4.000474  0
C  C156  1  0.80622110  0.40142948  0.28780265  1  -0.0227  0  -0.093617  -0.139707  0  3.994986  0
C  C157  1  0.69376771  0.59857562  0.78780209  1  -0.022952  0  -0.093671  -0.140046  0  3.995196  0
C  C158  1  0.19377640  0.90141970  0.21219894  1  -0.02258  0  -0.093631  -0.140091  0  3.994932  0
C  C159  1  0.30624850  0.09855569  0.71219460  1  -0.023021  0  -0.093635  -0.139775  0  3.994445  0
C  C160  1  0.79852432  0.38378412  0.33428599  1  0.00169  0  -0.083518  -0.08315  0  3.983989  0
C  C161  1  0.70146939  0.61623749  0.83428401  1  0.000306  0  -0.083554  -0.083104  0  3.984044  0
C  C162  1  0.20147043  0.88376407  0.16571501  1  0.000494  0  -0.083572  -0.083003  0  3.98386  0
C  C163  1  0.29854564  0.11622545  0.66571124  1  0.000923  0  -0.083451  -0.083033  0  3.983673  0
C  C164  1  0.70152151  0.44232351  0.35988244  1  -0.032988  0  -0.020696  -0.043899  0  3.981433  0
C  C165  1  0.79845798  0.55768284  0.85988369  1  -0.032534  0  -0.020752  -0.04379  0  3.981392  0
C  C166  1  0.29845782  0.94231058  0.14011219  1  -0.033277  0  -0.020791  -0.044075  0  3.981733  0
C  C167  1  0.20154002  0.05770141  0.64011082  1  -0.032051  0  -0.020775  -0.044041  0  3.981756  0
C  C168  1  0.61219188  0.51868855  0.33792300  1  -0.034582  0  -0.082656  -0.086951  0  3.986573  0
C  C169  1  0.88780190  0.48132753  0.83792449  1  -0.035172  0  -0.082544  -0.087049  0  3.986449  0
C  C170  1  0.38779423  0.01867668  0.16207024  1  -0.034601  0  -0.082529  -0.087011  0  3.986512  0
C  C171  1  0.11220603  0.98132918  0.66206835  1  -0.03502  0  -0.082517  -0.08703  0  3.986319  0
C  C172  1  0.62200376  0.53850252  0.29148131  1  -0.108186  0  -0.092656  -0.138865  0  3.984507  0
C  C173  1  0.87797727  0.46149795  0.79148423  1  -0.108173  0  -0.092682  -0.138788  0  3.984648  0
C  C174  1  0.37797721  0.03851447  0.20851082  1  -0.108129  0  -0.092775  -0.139131  0  3.984418  0
C  C175  1  0.12202106  0.96149528  0.70851108  1  -0.108063  0  -0.092676  -0.138845  0  3.984211  0
C  C176  1  0.69759282  0.42468709  0.41005889  1  1.577044  0  0.220461  0.593503  0  4.189143  0
C  C177  1  0.80240541  0.57533655  0.91006108  1  1.577208  0  0.220477  0.593537  0  4.188957  0
C  C178  1  0.30239458  0.92466674  0.08993955  1  1.576971  0  0.220696  0.594199  0  4.188363  0
C  C179  1  0.19761205  0.07533787  0.58993741  1  1.576672  0  0.220695  0.594067  0  4.188703  0
C  C180  1  0.02589597  0.32102074  0.02954443  1  1.352857  0  0.171641  0.284971  0  4.104786  0
C  C181  1  0.47411334  0.67898855  0.52954385  1  1.353314  0  0.17164  0.285011  0  4.105308  0
C  C182  1  0.97413391  0.82104646  0.47045246  1  1.358938  0  0.171567  0.285515  0  4.104951  0
C  C183  1  0.52586852  0.17895178  0.97045313  1  1.358863  0  0.171633  0.28561  0  4.105399  0
C  C184  1  0.06805301  0.14715033  0.07695241  1  0.30643  0  -0.132412  -0.281256  0  3.894459  0
C  C185  1  0.43195040  0.85285561  0.57695598  1  0.306014  0  -0.132593  -0.281585  0  3.894589  0
C  C186  1  0.93196507  0.64718250  0.42304191  1  0.307171  0  -0.132369  -0.281246  0  3.894654  0
C  C187  1  0.56802851  0.35282449  0.92304119  1  0.307261  0  -0.132577  -0.281601  0  3.894978  0
C  C188  1  0.16478400  0.16160042  0.99956237  1  0.198792  0  -0.136935  -0.278604  0  3.873124  0
C  C189  1  0.33521342  0.83840344  0.49956499  1  0.198829  0  -0.137029  -0.278614  0  3.873336  0
C  C190  1  0.83523936  0.66162117  0.50043165  1  0.201498  0  -0.136982  -0.2787  0  3.873282  0
C  C191  1  0.66474546  0.33838069  0.00043351  1  0.20185  0  -0.137045  -0.278865  0  3.873458  0
N  N192  1  0.08225122  0.21370141  0.03475269  1  -1.211921  0  -0.27924  0.039218  0  3.737373  0
N  N193  1  0.41774640  0.78630681  0.53475688  1  -1.212036  0  -0.279078  0.039241  0  3.737285  0
N  N194  1  0.91776905  0.71372693  0.46524200  1  -1.212714  0  -0.279007  0.038995  0  3.737426  0
N  N195  1  0.58222540  0.28628139  0.96523993  1  -1.212331  0  -0.278971  0.039186  0  3.737385  0
O  O196  1  0.86382596  0.73824404  0.99366272  1  -1.201502  0  -0.306524  -0.56939  0  2.477  0
O  O197  1  0.63618874  0.26176065  0.49366386  1  -1.201598  0  -0.306476  -0.569254  0  2.476876  0
O  O198  1  0.13618866  0.23825588  0.50632890  1  -1.20183  0  -0.306525  -0.569342  0  2.477283  0
O  O199  1  0.36381034  0.76173434  0.00633704  1  -1.201724  0  -0.306583  -0.569611  0  2.477149  0
O  O200  1  0.97979262  0.90110729  0.01573329  1  -1.17622  0  -0.302462  -0.526226  0  2.341733  0
O  O201  1  0.52021022  0.09890308  0.51574381  1  -1.176596  0  -0.302476  -0.526191  0  2.34158  0
O  O202  1  0.02018817  0.40112087  0.48426119  1  -1.175237  0  -0.302568  -0.526334  0  2.341419  0
O  O203  1  0.47980009  0.59887989  0.98426202  1  -1.176105  0  -0.302524  -0.526434  0  2.3413  0
O  O204  1  0.63757899  0.85944380  0.99571580  1  -1.152267  0  -0.39418  -0.611173  0  2.495179  0
O  O205  1  0.86242789  0.14055361  0.49571943  1  -1.15192  0  -0.39424  -0.611188  0  2.495003  0
O  O206  1  0.36241656  0.35947879  0.50427525  1  -1.151647  0  -0.394165  -0.611248  0  2.495143  0
O  O207  1  0.13758535  0.64052141  0.00429051  1  -1.152031  0  -0.394175  -0.610983  0  2.495319  0
O  O208  1  0.67288234  0.61161659  0.05248987  1  -1.177728  0  -0.311467  -0.548929  0  2.361315  0
O  O209  1  0.82710946  0.38841872  0.55248861  1  -1.177488  0  -0.311606  -0.549268  0  2.361218  0
O  O210  1  0.32712140  0.11162123  0.44750327  1  -1.177596  0  -0.311385  -0.548915  0  2.361409  0
O  O211  1  0.17290346  0.88838433  0.94751449  1  -1.177731  0  -0.311428  -0.549046  0  2.361497  0
O  O212  1  0.88000664  0.53504130  0.05466452  1  -1.185765  0  -0.317351  -0.5752  0  2.409151  0
O  O213  1  0.61997734  0.46494977  0.55466610  1  -1.186013  0  -0.317404  -0.575305  0  2.409175  0
O  O214  1  0.11998617  0.03506421  0.44532831  1  -1.186083  0  -0.317307  -0.575184  0  2.409485  0
O  O215  1  0.38001406  0.96495584  0.94533698  1  -1.186029  0  -0.317459  -0.575297  0  2.409172  0
O  O216  1  0.79857548  0.37531090  0.42747581  1  -1.176235  0  -0.313079  -0.559078  0  2.399922  0
O  O217  1  0.70140836  0.62469054  0.92747582  1  -1.176626  0  -0.313051  -0.559104  0  2.399962  0
O  O218  1  0.20141150  0.87527947  0.07252963  1  -1.176435  0  -0.313144  -0.559405  0  2.399423  0
O  O219  1  0.29858691  0.12472661  0.57252209  1  -1.176721  0  -0.31321  -0.559353  0  2.399679  0
O  O220  1  0.59648475  0.46336825  0.43117319  1  -1.172551  0  -0.3164  -0.556294  0  2.348265  0
O  O221  1  0.90351391  0.53663849  0.93117548  1  -1.172438  0  -0.31645  -0.556312  0  2.347996  0
O  O222  1  0.40350320  0.96336114  0.06882912  1  -1.1725  0  -0.316498  -0.556472  0  2.347773  0
O  O223  1  0.09649513  0.03665317  0.56882692  1  -1.172328  0  -0.316452  -0.556443  0  2.347926  0
O  O224  1  0.03304740  0.38335158  0.99394701  1  -1.171617  0  -0.303144  -0.463953  0  2.364169  0
O  O225  1  0.46697350  0.61666779  0.49394796  1  -1.171606  0  -0.303095  -0.463933  0  2.364771  0
O  O226  1  0.96699999  0.88336188  0.50604833  1  -1.171954  0  -0.303053  -0.464204  0  2.364828  0
O  O227  1  0.53299773  0.11664521  0.00604583  1  -1.172046  0  -0.303084  -0.46412  0  2.365304  0
