# generated using pymatgen
data_MnH24C30(N2O3)2
_symmetry_space_group_name_H-M   'P 1'
_cell_length_a   9.78403760
_cell_length_b   11.43005877
_cell_length_c   23.19760833
_cell_angle_alpha   90.00019393
_cell_angle_beta   90.00004400
_cell_angle_gamma   97.02472783
_symmetry_Int_Tables_number   1
_chemical_formula_structural   MnH24C30(N2O3)2
_chemical_formula_sum   'Mn4 H96 C120 N16 O24'
_cell_volume   2574.76408663
_cell_formula_units_Z   4
loop_
 _symmetry_equiv_pos_site_id
 _symmetry_equiv_pos_as_xyz
  1  'x, y, z'
loop_
 _atom_site_type_symbol
 _atom_site_label
 _atom_site_symmetry_multiplicity
 _atom_site_fract_x
 _atom_site_fract_y
 _atom_site_fract_z
 _atom_site_occupancy
 _atom_site_pbe_bader_charge
 _atom_site_pbe_bader_spin_density
 _atom_site_pbe_cm5_charge
 _atom_site_pbe_ddec_charge
 _atom_site_pbe_ddec_spin_density
 _atom_site_pbe_ddec_sum_bond_order
 _atom_site_pbe_magmom
Mn  Mn0  1  0.24795505  0.49848249  0.76861935  1  1.51688  4.525241  0.604614  0.930014  4.653634  2.417983  4.458
Mn  Mn1  1  0.25204766  0.50151789  0.26861867  1  1.516887  4.525239  0.604586  0.929984  4.653629  2.418093  4.458
Mn  Mn2  1  0.75204608  0.50151918  0.23138129  1  1.516835  4.525248  0.604614  0.929988  4.653627  2.418062  4.458
Mn  Mn3  1  0.74795618  0.49848115  0.73138197  1  1.516847  4.525237  0.60464  0.930093  4.653618  2.417927  4.458
H  H4  1  0.14687492  0.63799593  0.66452510  1  0.142435  0.001487  0.119009  0.089443  0.00067  1.035949  0.001
H  H5  1  0.35312503  0.36200809  0.16452465  1  0.142544  0.001487  0.119023  0.089472  0.00067  1.035918  0.001
H  H6  1  0.85312688  0.36200310  0.33547554  1  0.142415  0.001487  0.119013  0.089452  0.00067  1.035948  0.001
H  H7  1  0.64687724  0.63799447  0.83547556  1  0.142459  0.001487  0.119034  0.089511  0.000669  1.035929  0.001
H  H8  1  0.14541155  0.64114154  0.55755588  1  0.092157  0.000592  0.09914  0.099639  0.000318  1.074565  0.0
H  H9  1  0.35458401  0.35886169  0.05755500  1  0.091957  0.000592  0.099156  0.09961  0.000318  1.074583  0.0
H  H10  1  0.85458946  0.35885924  0.44244519  1  0.091879  0.000592  0.099147  0.099649  0.000318  1.074592  0.0
H  H11  1  0.64541646  0.64114262  0.94244521  1  0.092289  0.000592  0.099148  0.099641  0.000318  1.074591  0.0
H  H12  1  0.35123700  0.32609144  0.56176557  1  0.14422  0.000513  0.103774  0.104721  0.000283  1.090232  0.0
H  H13  1  0.14876085  0.67391359  0.06176514  1  0.144211  0.000513  0.103795  0.104739  0.000283  1.090149  0.0
H  H14  1  0.64876172  0.67390757  0.43823421  1  0.144315  0.000513  0.10378  0.104737  0.000283  1.09022  0.0
H  H15  1  0.85123529  0.32608893  0.93823593  1  0.144227  0.000513  0.103755  0.104706  0.000283  1.090246  0.0
H  H16  1  0.35107380  0.34242169  0.66793084  1  0.121671  0.001415  0.11994  0.089046  0.000613  1.03292  0.001
H  H17  1  0.14892832  0.65758324  0.16793082  1  0.121679  0.001415  0.119921  0.089016  0.000612  1.032919  0.001
H  H18  1  0.64892582  0.65757645  0.33206851  1  0.121682  0.001415  0.119941  0.089043  0.000613  1.032918  0.001
H  H19  1  0.85107167  0.34241754  0.83207025  1  0.121718  0.001415  0.119933  0.089055  0.000613  1.032908  0.001
H  H20  1  0.06928222  0.57674015  0.47615303  1  0.075775  0.000663  0.104043  0.109013  0.000373  1.028996  0.0
H  H21  1  0.43071975  0.42326699  0.97615407  1  0.075897  0.000663  0.104019  0.108993  0.000373  1.02899  0.0
H  H22  1  0.93071825  0.42326416  0.52384632  1  0.075898  0.000663  0.104038  0.109027  0.000373  1.029004  0.0
H  H23  1  0.56928277  0.57673733  0.02384700  1  0.07604  0.000663  0.104049  0.109042  0.000373  1.028999  0.0
H  H24  1  0.08111496  0.57698801  0.36916786  1  0.122636  0.001511  0.12045  0.09183  0.000695  1.003227  0.001
H  H25  1  0.41889044  0.42301574  0.86916804  1  0.122566  0.001511  0.120454  0.091865  0.000695  1.003211  0.001
H  H26  1  0.91888629  0.42301454  0.63083191  1  0.122579  0.001511  0.12045  0.091852  0.000695  1.003227  0.001
H  H27  1  0.58111400  0.57698771  0.13083303  1  0.122612  0.001511  0.120449  0.091857  0.000695  1.003193  0.001
H  H28  1  0.42470722  0.40041277  0.36901732  1  0.103874  0.001371  0.122312  0.094367  0.000552  0.996369  0.001
H  H29  1  0.07528765  0.59958124  0.86901725  1  0.103837  0.001371  0.122301  0.094355  0.000552  0.99643  0.001
H  H30  1  0.57529355  0.59958626  0.63098202  1  0.103879  0.00137  0.122297  0.094308  0.000551  0.996501  0.001
H  H31  1  0.92470867  0.40041512  0.13098252  1  0.103864  0.001371  0.122323  0.094373  0.000552  0.996389  0.001
H  H32  1  0.42855176  0.39000623  0.47631243  1  0.069196  0.000689  0.10862  0.116929  0.000391  1.01517  0.0
H  H33  1  0.07143854  0.60999029  0.97631237  1  0.069141  0.000689  0.108624  0.116919  0.000391  1.015161  0.0
H  H34  1  0.57144480  0.60999190  0.52368778  1  0.069182  0.000688  0.108611  0.116919  0.000391  1.015182  0.0
H  H35  1  0.92856055  0.39001137  0.02368783  1  0.069178  0.000689  0.108621  0.116926  0.000391  1.015141  0.0
H  H36  1  0.75161416  0.99082089  0.63966301  1  0.059174  2.6e-05  0.107342  0.137445  1.7e-05  1.020488  0.0
H  H37  1  0.74838886  0.00917879  0.13966022  1  0.05937  2.6e-05  0.107353  0.137475  1.7e-05  1.020387  0.0
H  H38  1  0.24838955  0.00917726  0.36033806  1  0.0594  2.6e-05  0.107317  0.137385  1.7e-05  1.020521  0.0
H  H39  1  0.25161179  0.99081935  0.86033870  1  0.059395  2.6e-05  0.107352  0.137456  1.7e-05  1.02041  0.0
H  H40  1  0.92089669  0.13251234  0.80133201  1  0.056585  0.000321  0.099029  0.108806  0.000172  1.046552  0.0
H  H41  1  0.57910041  0.86748671  0.30133016  1  0.056621  0.000321  0.098987  0.108754  0.000172  1.046497  0.0
H  H42  1  0.07910125  0.86748843  0.19866906  1  0.056607  0.000321  0.099046  0.108828  0.000172  1.046549  0.0
H  H43  1  0.42089500  0.13251053  0.69866919  1  0.056632  0.000321  0.098979  0.108767  0.000172  1.046492  0.0
H  H44  1  0.74103053  0.00557214  0.85327688  1  0.059257  2.1e-05  0.094916  0.0878  2e-06  1.01483  0.0
H  H45  1  0.75896721  0.99443081  0.35327573  1  0.059333  2.1e-05  0.094918  0.087768  2e-06  1.014809  0.0
H  H46  1  0.25896483  0.99443215  0.14672376  1  0.059323  2.1e-05  0.094911  0.087766  2e-06  1.014881  0.0
H  H47  1  0.24103026  0.00556644  0.64672404  1  0.059332  2.1e-05  0.094964  0.087836  2e-06  1.014792  0.0
H  H48  1  0.56628118  0.87024313  0.80132782  1  0.030907  0.000289  0.097764  0.107252  0.000143  1.04909  0.0
H  H49  1  0.93371629  0.12975857  0.30132572  1  0.030942  0.000289  0.097784  0.107272  0.000143  1.049059  0.0
H  H50  1  0.43371676  0.12975765  0.19867281  1  0.030934  0.000289  0.09776  0.107239  0.000143  1.049082  0.0
H  H51  1  0.06628208  0.87023780  0.69867406  1  0.03084  0.000289  0.097774  0.107238  0.000143  1.049051  0.0
H  H52  1  0.38788393  0.73288868  0.67866460  1  0.048552  0.002141  0.110376  0.097877  0.001245  0.999102  0.001
H  H53  1  0.11211955  0.26711106  0.17866306  1  0.048527  0.002141  0.110366  0.097897  0.001245  0.999066  0.001
H  H54  1  0.61212249  0.26710685  0.32133603  1  0.048512  0.002141  0.110351  0.097857  0.001244  0.999071  0.001
H  H55  1  0.88788213  0.73288709  0.82133801  1  0.048488  0.002141  0.11035  0.097906  0.001245  0.99915  0.001
H  H56  1  0.39704400  0.81526496  0.74318727  1  0.083925  0.000551  0.106921  0.098503  8.8e-05  1.015459  0.0
H  H57  1  0.10295659  0.18473522  0.24318559  1  0.083963  0.000551  0.106924  0.098547  8.8e-05  1.015374  0.0
H  H58  1  0.60295755  0.18473231  0.25681207  1  0.08396  0.000551  0.106897  0.098479  8.8e-05  1.015485  0.0
H  H59  1  0.89703828  0.81526554  0.75681548  1  0.083938  0.000551  0.106913  0.098551  8.8e-05  1.015334  0.0
H  H60  1  0.11393951  0.25474257  0.67904480  1  0.051123  0.001861  0.111233  0.1014  0.001049  0.999875  0.001
H  H61  1  0.38606294  0.74525717  0.17904112  1  0.051094  0.001862  0.111253  0.101502  0.001049  0.999827  0.001
H  H62  1  0.88606318  0.74525559  0.32095670  1  0.051131  0.001862  0.11122  0.101372  0.001049  0.999857  0.001
H  H63  1  0.61393554  0.25474009  0.82095865  1  0.051101  0.001861  0.111237  0.101445  0.001049  0.999801  0.001
H  H64  1  0.09677156  0.17723079  0.74495756  1  0.103489  0.000663  0.108107  0.100783  0.000194  1.014195  0.0
H  H65  1  0.40322850  0.82277293  0.24495273  1  0.103467  0.000662  0.108141  0.100789  0.000194  1.014336  0.0
H  H66  1  0.90322729  0.82276911  0.25504437  1  0.103542  0.000663  0.108143  0.100755  0.000194  1.014283  0.0
H  H67  1  0.59676879  0.17723048  0.75504575  1  0.103618  0.000662  0.108143  0.100776  0.000194  1.014261  0.0
H  H68  1  0.19906491  0.79650198  0.39836461  1  0.106006  8.4e-05  0.107994  0.114474  -2.2e-05  1.039084  0.0
H  H69  1  0.30094124  0.20349934  0.89836309  1  0.105945  8.4e-05  0.108009  0.114479  -2.2e-05  1.039058  0.0
H  H70  1  0.80093881  0.20349618  0.60163689  1  0.105979  8.4e-05  0.108001  0.114478  -2.2e-05  1.039125  0.0
H  H71  1  0.69906050  0.79650674  0.10163367  1  0.106039  8.4e-05  0.108018  0.114491  -2.2e-05  1.039088  0.0
H  H72  1  0.43720011  0.77512957  0.37156833  1  0.074191  0.000117  0.112667  0.086559  -0.000149  0.992039  0.0
H  H73  1  0.06281089  0.22487774  0.87156375  1  0.074019  0.000117  0.112642  0.086473  -0.000149  0.992047  0.0
H  H74  1  0.56280830  0.22487301  0.62843532  1  0.074044  0.000117  0.11265  0.086487  -0.000149  0.992084  0.0
H  H75  1  0.93719656  0.77513276  0.12843085  1  0.074261  0.000117  0.112658  0.086521  -0.000149  0.992034  0.0
H  H76  1  0.58225831  0.86538721  0.53560215  1  0.122388  6e-06  0.108501  0.075723  -2e-06  1.040056  0.0
H  H77  1  0.91774237  0.13461172  0.03559574  1  0.12253  6e-06  0.108538  0.075742  -2e-06  1.040112  0.0
H  H78  1  0.41774487  0.13461447  0.46440237  1  0.122513  6e-06  0.108513  0.075744  -2e-06  1.040086  0.0
H  H79  1  0.08225389  0.86539169  0.96439627  1  0.122386  6e-06  0.108508  0.075764  -2e-06  1.040017  0.0
H  H80  1  0.34831254  0.89010385  0.57048633  1  0.063453  4.4e-05  0.105621  0.112355  2.5e-05  1.014095  0.0
H  H81  1  0.15168461  0.10989596  0.07048281  1  0.063297  4.4e-05  0.105664  0.112432  2.5e-05  1.014087  0.0
H  H82  1  0.65168744  0.10989693  0.42951689  1  0.063346  4.4e-05  0.105653  0.112408  2.5e-05  1.014135  0.0
H  H83  1  0.84830960  0.89010744  0.92951222  1  0.063371  4.4e-05  0.105666  0.112456  2.5e-05  1.014047  0.0
H  H84  1  0.02027348  0.86910730  0.42102042  1  0.09099  2.7e-05  0.106207  0.117908  1.5e-05  1.035337  0.0
H  H85  1  0.47972551  0.13088621  0.92101927  1  0.091058  2.7e-05  0.10619  0.117857  1.5e-05  1.035306  0.0
H  H86  1  0.97973102  0.13088910  0.57898021  1  0.090946  2.7e-05  0.106193  0.117857  1.5e-05  1.035391  0.0
H  H87  1  0.52027526  0.86911281  0.07897792  1  0.091011  2.7e-05  0.106198  0.117906  1.6e-05  1.035311  0.0
H  H88  1  0.78089530  0.86674463  0.45717255  1  0.107934  1.7e-05  0.106014  0.067412  7e-06  1.036345  0.0
H  H89  1  0.71910116  0.13324761  0.95717088  1  0.108132  1.7e-05  0.106018  0.067416  7e-06  1.036279  0.0
H  H90  1  0.21910565  0.13324823  0.54282680  1  0.107924  1.7e-05  0.106018  0.067422  7e-06  1.03629  0.0
H  H91  1  0.28089606  0.86674788  0.04282803  1  0.10797  1.7e-05  0.106006  0.067366  7e-06  1.036329  0.0
H  H92  1  0.89984182  0.82562291  0.62610633  1  0.071474  7.6e-05  0.113493  0.087369  -5.4e-05  0.990137  0.0
H  H93  1  0.60016014  0.17437667  0.12610376  1  0.071391  7.6e-05  0.113413  0.087238  -5.4e-05  0.990087  0.0
H  H94  1  0.10015618  0.17437082  0.37389474  1  0.071393  7.6e-05  0.113447  0.087315  -5.4e-05  0.990065  0.0
H  H95  1  0.39983274  0.82561703  0.87389472  1  0.071532  7.6e-05  0.113496  0.087451  -5.4e-05  0.990152  0.0
H  H96  1  0.14509225  0.82905080  0.59838050  1  0.08269  5.2e-05  0.104264  0.106069  1.4e-05  1.031807  0.0
H  H97  1  0.35490817  0.17095010  0.09837888  1  0.082762  5.2e-05  0.104258  0.10607  1.4e-05  1.031768  0.0
H  H98  1  0.85490611  0.17094557  0.40162099  1  0.08272  5.2e-05  0.10424  0.106026  1.4e-05  1.031724  0.0
H  H99  1  0.64508670  0.82905066  0.90161702  1  0.082796  5.2e-05  0.104271  0.1061  1.4e-05  1.031758  0.0
C  C100  1  0.19347089  0.57229302  0.63978026  1  0.448728  0.007462  0.04759  0.089452  0.005721  3.965529  0.005
C  C101  1  0.30652922  0.42771259  0.13977990  1  0.448693  0.007462  0.047541  0.089321  0.005721  3.965544  0.005
C  C102  1  0.80653204  0.42770690  0.36022038  1  0.448727  0.007462  0.047573  0.089372  0.005721  3.965502  0.005
C  C103  1  0.69347125  0.57229172  0.86022117  1  0.448792  0.007462  0.047543  0.089316  0.005721  3.965612  0.005
C  C104  1  0.19146846  0.57221737  0.57998875  1  -0.038364  0.00069  -0.08862  -0.182572  0.000121  3.96657  0.0
C  C105  1  0.30852842  0.42778779  0.07998796  1  -0.038054  0.00069  -0.0886  -0.182408  0.000121  3.966484  0.0
C  C106  1  0.80853141  0.42778253  0.42001189  1  -0.038094  0.00069  -0.088615  -0.182558  0.000121  3.966445  0.0
C  C107  1  0.69147217  0.57221740  0.92001224  1  -0.038359  0.00069  -0.088578  -0.182475  0.000121  3.966503  0.0
C  C108  1  0.24919955  0.48441999  0.54950795  1  -0.024829  0.005952  0.008656  0.103299  0.004529  3.980917  0.003
C  C109  1  0.25079802  0.51558320  0.04950687  1  -0.024878  0.005951  0.008604  0.103234  0.004529  3.981112  0.003
C  C110  1  0.75079827  0.51557990  0.45049225  1  -0.024836  0.005952  0.008663  0.103381  0.004529  3.980793  0.003
C  C111  1  0.74920449  0.48442112  0.95049334  1  -0.024987  0.005953  0.008622  0.103265  0.00453  3.980844  0.003
C  C112  1  0.30669770  0.39909979  0.58189011  1  -0.000382  0.000623  -0.085262  -0.17836  0.000147  3.937923  0.0
C  C113  1  0.19330123  0.60090539  0.08188872  1  -0.000463  0.000623  -0.085247  -0.178384  0.000147  3.937927  0.0
C  C114  1  0.69330205  0.60089923  0.41811010  1  -0.000471  0.000623  -0.085347  -0.178484  0.000146  3.93797  0.0
C  C115  1  0.80669695  0.39909714  0.91811149  1  -0.000461  0.000623  -0.085242  -0.178308  0.000146  3.937878  0.0
C  C116  1  0.30545757  0.40629579  0.64168938  1  0.404073  0.007649  0.050588  0.098395  0.005691  3.94723  0.005
C  C117  1  0.19454370  0.59371072  0.14168841  1  0.403968  0.007649  0.050586  0.098402  0.005691  3.947219  0.005
C  C118  1  0.69454092  0.59370146  0.35831039  1  0.404116  0.00765  0.050526  0.098306  0.005692  3.9472  0.005
C  C119  1  0.80545665  0.40629271  0.85831180  1  0.404071  0.00765  0.050599  0.098341  0.005692  3.947217  0.005
C  C120  1  0.24942465  0.48379360  0.48601089  1  -0.004254  0.004654  0.008624  0.100726  0.003536  3.97855  0.003
C  C121  1  0.25057139  0.51620742  0.98601031  1  -0.004261  0.004655  0.008647  0.100684  0.003536  3.978675  0.003
C  C122  1  0.75057431  0.51620718  0.51398975  1  -0.004263  0.004654  0.008642  0.10069  0.003535  3.97862  0.003
C  C123  1  0.74942998  0.48379601  0.01399033  1  -0.004229  0.004654  0.008652  0.100743  0.003536  3.978548  0.003
C  C124  1  0.15044655  0.53614585  0.45462191  1  -0.036704  0.001118  -0.08615  -0.181699  0.000628  3.965512  0.001
C  C125  1  0.34955386  0.46385761  0.95462213  1  -0.036901  0.001118  -0.086086  -0.181548  0.000627  3.965549  0.001
C  C126  1  0.84955344  0.46385494  0.54537830  1  -0.036908  0.001118  -0.08614  -0.181667  0.000628  3.965592  0.001
C  C127  1  0.65044865  0.53614671  0.04537894  1  -0.036959  0.001118  -0.08618  -0.181761  0.000628  3.965626  0.001
C  C128  1  0.15596811  0.53671674  0.39488299  1  0.457141  0.006431  0.055074  0.100624  0.005068  3.94947  0.004
C  C129  1  0.34403201  0.46328540  0.89488364  1  0.457251  0.006431  0.05502  0.100467  0.005068  3.949658  0.004
C  C130  1  0.84403200  0.46328492  0.60511721  1  0.457222  0.006431  0.055046  0.100524  0.005067  3.949561  0.004
C  C131  1  0.65597014  0.53671627  0.10511699  1  0.457186  0.006431  0.055055  0.100551  0.005068  3.949575  0.004
C  C132  1  0.34849176  0.43881380  0.39477862  1  0.452635  0.006627  0.061103  0.110166  0.00496  3.923572  0.004
C  C133  1  0.15150709  0.56118657  0.89477765  1  0.452634  0.006628  0.061147  0.110185  0.004961  3.923671  0.004
C  C134  1  0.65150594  0.56118521  0.60522245  1  0.45262  0.006628  0.06115  0.110241  0.00496  3.923596  0.004
C  C135  1  0.84849187  0.43881421  0.10522256  1  0.45264  0.006628  0.061137  0.110192  0.004961  3.923619  0.004
C  C136  1  0.34947920  0.43288735  0.45458306  1  0.042413  0.001015  -0.07747  -0.165918  0.000604  3.93583  0.0
C  C137  1  0.15051526  0.56710991  0.95458296  1  0.042429  0.001015  -0.077508  -0.165907  0.000604  3.93586  0.0
C  C138  1  0.65051826  0.56710990  0.54541672  1  0.042434  0.001015  -0.077476  -0.165908  0.000604  3.935814  0.0
C  C139  1  0.84948383  0.43289175  0.04541682  1  0.042415  0.001015  -0.077524  -0.165978  0.000604  3.935839  0.0
C  C140  1  0.64876524  0.92200943  0.71670709  1  0.487049  0.000342  0.082503  0.287588  0.000103  4.075244  0.0
C  C141  1  0.85123380  0.07798991  0.21670487  1  0.486965  0.000342  0.082561  0.287755  0.000103  4.075253  0.0
C  C142  1  0.35123644  0.07798872  0.28329441  1  0.487385  0.000342  0.082555  0.287722  0.000103  4.075107  0.0
C  C143  1  0.14876469  0.92200735  0.78329447  1  0.487168  0.000342  0.082609  0.287876  0.000103  4.075087  0.0
C  C144  1  0.74989519  0.99446623  0.68656311  1  -0.006988  2.6e-05  -0.121487  -0.337465  -4e-06  3.961871  0.0
C  C145  1  0.75010478  0.00553289  0.18656160  1  -0.007265  2.6e-05  -0.121518  -0.337562  -4e-06  3.961777  0.0
C  C146  1  0.25010841  0.00553105  0.31343839  1  -0.007952  2.6e-05  -0.121504  -0.33748  -4e-06  3.961784  0.0
C  C147  1  0.24989280  0.99446524  0.81343817  1  -0.007426  2.6e-05  -0.121559  -0.337605  -4e-06  3.961796  0.0
C  C148  1  0.84738454  0.07077212  0.71657795  1  0.455501  0.000305  0.08051  0.280298  8.8e-05  4.07551  0.0
C  C149  1  0.65261677  0.92922899  0.21657579  1  0.455245  0.000305  0.080592  0.280496  8.8e-05  4.075358  0.0
C  C150  1  0.15261509  0.92922602  0.28342312  1  0.455613  0.000305  0.080538  0.280354  8.8e-05  4.075407  0.0
C  C151  1  0.34738183  0.07076914  0.78342398  1  0.455278  0.000305  0.080565  0.280465  8.8e-05  4.075379  0.0
C  C152  1  0.84562257  0.07443932  0.77706005  1  0.016989  0.000747  -0.125813  -0.253306  0.000486  4.022556  0.0
C  C153  1  0.65437675  0.92556133  0.27705746  1  0.016887  0.000748  -0.125747  -0.253324  0.000487  4.022435  0.0
C  C154  1  0.15437639  0.92556146  0.22294145  1  0.016911  0.000748  -0.125815  -0.253357  0.000487  4.022612  0.0
C  C155  1  0.34562083  0.07443680  0.72294189  1  0.016915  0.000748  -0.125752  -0.253383  0.000487  4.022475  0.0
C  C156  1  0.74387856  0.00140793  0.80628755  1  -0.083134  0.000378  -0.09655  -0.033901  0.000306  4.067709  0.0
C  C157  1  0.75612301  0.99859382  0.30628512  1  -0.083376  0.000378  -0.096546  -0.033832  0.000306  4.067677  0.0
C  C158  1  0.25612052  0.99859373  0.19371352  1  -0.083123  0.000378  -0.09656  -0.033897  0.000306  4.06785  0.0
C  C159  1  0.24387457  0.00140431  0.69371337  1  -0.083408  0.000378  -0.0966  -0.033877  0.000306  4.06767  0.0
C  C160  1  0.64501236  0.92507887  0.77722755  1  -0.014676  0.00069  -0.127183  -0.258229  0.000437  4.027818  0.0
C  C161  1  0.85498582  0.07492089  0.27722576  1  -0.014241  0.00069  -0.12726  -0.258335  0.000438  4.028002  0.0
C  C162  1  0.35498739  0.07492015  0.22277309  1  -0.01454  0.00069  -0.127189  -0.258246  0.000437  4.02794  0.0
C  C163  1  0.14501267  0.92507636  0.72277358  1  -0.014202  0.00069  -0.127246  -0.258323  0.000437  4.027899  0.0
C  C164  1  0.45887603  0.77089533  0.71232544  1  0.443459  0.003504  -0.070588  -0.134694  0.002493  3.916477  0.002
C  C165  1  0.04112550  0.22910464  0.21232338  1  0.443747  0.003504  -0.070605  -0.134758  0.002493  3.916294  0.002
C  C166  1  0.54112974  0.22910284  0.28767519  1  0.443671  0.003504  -0.070521  -0.134615  0.002492  3.916289  0.002
C  C167  1  0.95887106  0.77089348  0.78767726  1  0.443773  0.003504  -0.070555  -0.134755  0.002493  3.916365  0.002
C  C168  1  0.52044276  0.66988016  0.74241554  1  1.59164  0.026986  0.210471  0.582716  0.026458  4.192775  0.023
C  C169  1  0.97955839  0.33011937  0.24241379  1  1.591393  0.026986  0.210357  0.582548  0.026459  4.192727  0.023
C  C170  1  0.47955982  0.33011711  0.25758596  1  1.591429  0.026987  0.210423  0.582625  0.026459  4.192836  0.023
C  C171  1  0.02044057  0.66988141  0.75758470  1  1.59147  0.026988  0.210462  0.582705  0.026461  4.192655  0.023
C  C172  1  0.03935015  0.22078746  0.71220206  1  0.422485  0.003531  -0.072233  -0.138982  0.002485  3.90816  0.002
C  C173  1  0.46065185  0.77921603  0.21219846  1  0.422583  0.003531  -0.072285  -0.139193  0.002485  3.908493  0.002
C  C174  1  0.96064935  0.77920980  0.28779944  1  0.42242  0.003532  -0.072236  -0.13888  0.002485  3.908075  0.002
C  C175  1  0.53934837  0.22078652  0.78780174  1  0.422377  0.003532  -0.072271  -0.139098  0.002485  3.908145  0.002
C  C176  1  0.97849199  0.32544372  0.73915680  1  1.587463  0.025637  0.210545  0.583433  0.024799  4.194482  0.022
C  C177  1  0.52150897  0.67456195  0.23915634  1  1.587517  0.025641  0.210539  0.58349  0.0248  4.194425  0.022
C  C178  1  0.02150788  0.67455618  0.26084340  1  1.587476  0.02564  0.210558  0.583444  0.024801  4.19436  0.022
C  C179  1  0.47848933  0.32544147  0.76084559  1  1.587421  0.025639  0.210583  0.583613  0.024799  4.194275  0.022
C  C180  1  0.24967692  0.84367033  0.48772602  1  -0.043785  0.000109  0.004864  0.090331  8.2e-05  3.983459  0.0
C  C181  1  0.25032154  0.15633335  0.98772225  1  -0.044216  0.000109  0.004772  0.090323  8.2e-05  3.983421  0.0
C  C182  1  0.75032421  0.15633134  0.51227634  1  -0.044059  0.000109  0.004793  0.090368  8.2e-05  3.983382  0.0
C  C183  1  0.74967598  0.84367182  0.01227192  1  -0.043645  0.000109  0.004893  0.090439  8.2e-05  3.983282  0.0
C  C184  1  0.27952588  0.81357978  0.43076582  1  -0.00783  9.4e-05  -0.082847  -0.169366  2.3e-05  3.940058  0.0
C  C185  1  0.22047855  0.18642353  0.93076295  1  -0.007675  9.3e-05  -0.082818  -0.169426  2.3e-05  3.940058  0.0
C  C186  1  0.72047730  0.18642190  0.56923654  1  -0.007586  9.4e-05  -0.082821  -0.169453  2.3e-05  3.940015  0.0
C  C187  1  0.77952125  0.81358342  0.06923208  1  -0.007956  9.4e-05  -0.0829  -0.169475  2.3e-05  3.940058  0.0
C  C188  1  0.41476557  0.80222083  0.41542201  1  0.512556  0.0001  0.041753  0.094101  1.9e-05  3.973707  0.0
C  C189  1  0.08523858  0.19778060  0.91541869  1  0.512615  0.0001  0.041758  0.094244  1.9e-05  3.973703  0.0
C  C190  1  0.58523965  0.19778086  0.58458078  1  0.512542  0.0001  0.04178  0.094261  1.9e-05  3.973723  0.0
C  C191  1  0.91476406  0.80222460  0.08457635  1  0.512692  0.0001  0.041792  0.094187  1.9e-05  3.97363  0.0
C  C192  1  0.49378825  0.85102575  0.50651076  1  0.503412  7.3e-05  0.03713  0.085434  5.9e-05  3.985926  0.0
C  C193  1  0.00621227  0.14897714  0.00650554  1  0.503488  7.3e-05  0.03712  0.085517  5.9e-05  3.986125  0.0
C  C194  1  0.50621210  0.14897767  0.49349418  1  0.503502  7.3e-05  0.03713  0.085478  5.9e-05  3.986083  0.0
C  C195  1  0.99378603  0.85102628  0.99348820  1  0.503479  7.3e-05  0.037094  0.08539  5.9e-05  3.986003  0.0
C  C196  1  0.36158386  0.86360226  0.52590155  1  -0.071653  5.2e-05  -0.08647  -0.173602  4e-05  3.93954  0.0
C  C197  1  0.13841557  0.13639989  0.02589806  1  -0.071118  5.2e-05  -0.086503  -0.173763  4e-05  3.939636  0.0
C  C198  1  0.63841601  0.13639765  0.47410125  1  -0.07143  5.2e-05  -0.086486  -0.173724  4e-05  3.939597  0.0
C  C199  1  0.86158285  0.86360441  0.97409611  1  -0.071711  5.2e-05  -0.086523  -0.173846  4e-05  3.939589  0.0
C  C200  1  0.10595969  0.84809728  0.50667192  1  -0.048413  6.1e-05  0.003703  0.089953  4.7e-05  3.993019  0.0
C  C201  1  0.39404047  0.15190297  0.00666984  1  -0.048473  6.1e-05  0.003753  0.089967  4.7e-05  3.992982  0.0
C  C202  1  0.89404415  0.15190176  0.49332958  1  -0.048416  6.1e-05  0.003695  0.089855  4.7e-05  3.993168  0.0
C  C203  1  0.60595477  0.84810044  0.99332605  1  -0.048338  6.1e-05  0.003722  0.089953  4.7e-05  3.992938  0.0
C  C204  1  0.99950855  0.85832497  0.46702790  1  -0.025728  0.000113  -0.088179  -0.178349  8.7e-05  3.925821  0.0
C  C205  1  0.50048932  0.14166999  0.96702661  1  -0.025943  0.000113  -0.088168  -0.178242  8.7e-05  3.925744  0.0
C  C206  1  0.00049071  0.14167053  0.53297317  1  -0.025781  0.000113  -0.088094  -0.178139  8.7e-05  3.92582  0.0
C  C207  1  0.49951031  0.85832815  0.03297187  1  -0.025787  0.000113  -0.088206  -0.178354  8.7e-05  3.925764  0.0
C  C208  1  0.86524990  0.85798628  0.48717435  1  0.45551  6.3e-05  0.037585  0.090155  5.3e-05  3.995019  0.0
C  C209  1  0.63474803  0.14200882  0.98717311  1  0.455364  6.3e-05  0.037594  0.090125  5.3e-05  3.995104  0.0
C  C210  1  0.13475039  0.14200922  0.51282585  1  0.455524  6.3e-05  0.037598  0.090139  5.3e-05  3.995011  0.0
C  C211  1  0.36525135  0.85798756  0.01282537  1  0.455474  6.3e-05  0.037604  0.090231  5.3e-05  3.994982  0.0
C  C212  1  0.93068652  0.83621299  0.58091461  1  0.566047  0.000107  0.041781  0.092629  3.3e-05  3.989357  0.0
C  C213  1  0.56931381  0.16378273  0.08091245  1  0.56626  0.000107  0.041853  0.092731  3.3e-05  3.989171  0.0
C  C214  1  0.06931022  0.16377897  0.41908602  1  0.566206  0.000107  0.041776  0.092548  3.3e-05  3.989126  0.0
C  C215  1  0.43068022  0.83621185  0.91908474  1  0.566354  0.000107  0.041748  0.09252  3.3e-05  3.989463  0.0
C  C216  1  0.06831748  0.83779436  0.56514259  1  -0.088635  0.000104  -0.089854  -0.189109  6.4e-05  3.962809  0.0
C  C217  1  0.43168375  0.16220543  0.06514011  1  -0.088618  0.000104  -0.089899  -0.189154  6.4e-05  3.96283  0.0
C  C218  1  0.93168178  0.16220113  0.43485891  1  -0.088644  0.000104  -0.089851  -0.188992  6.4e-05  3.962743  0.0
C  C219  1  0.56831227  0.83779621  0.93485535  1  -0.089146  0.000104  -0.089889  -0.18918  6.4e-05  3.962878  0.0
N  N220  1  0.25025684  0.49111249  0.67079848  1  -1.25174  0.046577  -0.314427  -0.251533  0.032977  3.485873  0.014
N  N221  1  0.24974325  0.50889246  0.17079738  1  -1.251661  0.04658  -0.314409  -0.251475  0.032977  3.48587  0.014
N  N222  1  0.74974369  0.50888477  0.32920172  1  -1.251705  0.046569  -0.314313  -0.25135  0.032977  3.485863  0.014
N  N223  1  0.75025915  0.49111098  0.82920239  1  -1.251675  0.04657  -0.314419  -0.25149  0.032979  3.485796  0.014
N  N224  1  0.25406545  0.49036103  0.36516094  1  -1.232754  0.049149  -0.306871  -0.213563  0.033047  3.463704  0.018
N  N225  1  0.24593230  0.50963913  0.86516121  1  -1.232751  0.049148  -0.306877  -0.213539  0.033049  3.463791  0.018
N  N226  1  0.74593237  0.50963886  0.63483970  1  -1.232773  0.049147  -0.30689  -0.213537  0.033049  3.463696  0.018
N  N227  1  0.75406757  0.49036077  0.13483943  1  -1.232821  0.049149  -0.306867  -0.2135  0.033047  3.463849  0.018
N  N228  1  0.52149780  0.81993857  0.45214609  1  -1.235874  0.00014  -0.321524  -0.273316  9e-05  3.349375  0.0
N  N229  1  0.97850407  0.18006334  0.95214157  1  -1.235987  0.00014  -0.321503  -0.273383  9e-05  3.349481  0.0
N  N230  1  0.47850538  0.18006311  0.54785800  1  -1.235946  0.00014  -0.321524  -0.273374  9e-05  3.349491  0.0
N  N231  1  0.02149460  0.81994272  0.04785260  1  -1.235967  0.00014  -0.321508  -0.273235  9e-05  3.349484  0.0
N  N232  1  0.82921131  0.84663550  0.54301673  1  -1.213434  8e-05  -0.319708  -0.265754  3.7e-05  3.322088  0.0
N  N233  1  0.67079017  0.15336172  0.04301372  1  -1.213556  8e-05  -0.319696  -0.265708  3.7e-05  3.322118  0.0
N  N234  1  0.17078964  0.15335736  0.45698477  1  -1.213472  8e-05  -0.319717  -0.265759  3.7e-05  3.322027  0.0
N  N235  1  0.32920500  0.84663375  0.95698433  1  -1.213512  8e-05  -0.319654  -0.265716  3.7e-05  3.322103  0.0
O  O236  1  0.55714047  0.85225284  0.68312122  1  -1.090401  0.000772  -0.187059  -0.187113  0.000157  2.557286  0.0
O  O237  1  0.94285835  0.14774538  0.18312002  1  -1.090514  0.000772  -0.187071  -0.187168  0.000157  2.557259  0.0
O  O238  1  0.44286517  0.14774445  0.31687898  1  -1.090407  0.000772  -0.187101  -0.18717  0.000157  2.557199  0.0
O  O239  1  0.05714014  0.85225188  0.81688019  1  -1.090457  0.000772  -0.187086  -0.187247  0.000157  2.557232  0.0
O  O240  1  0.44081611  0.60677452  0.77637889  1  -1.217998  0.064512  -0.319409  -0.573695  0.045765  2.367225  0.029
O  O241  1  0.05918559  0.39322590  0.27637797  1  -1.217887  0.064506  -0.319366  -0.573686  0.045766  2.367243  0.029
O  O242  1  0.55918568  0.39322451  0.22362390  1  -1.217882  0.064504  -0.319404  -0.573707  0.045765  2.367322  0.029
O  O243  1  0.94081476  0.60677753  0.72362008  1  -1.217998  0.064511  -0.319413  -0.573716  0.045764  2.367198  0.029
O  O244  1  0.64481922  0.65660199  0.73195068  1  -1.195706  0.065701  -0.307139  -0.551513  0.047223  2.338929  0.032
O  O245  1  0.85518418  0.34339924  0.23194847  1  -1.195789  0.065696  -0.307086  -0.551364  0.047222  2.338846  0.032
O  O246  1  0.35518233  0.34339528  0.26805168  1  -1.195818  0.065698  -0.307099  -0.551406  0.04722  2.338864  0.032
O  O247  1  0.14481580  0.65660155  0.76805044  1  -1.195802  0.065697  -0.307132  -0.551456  0.047222  2.338806  0.032
O  O248  1  0.94169994  0.13852725  0.68297628  1  -1.097381  0.000747  -0.184423  -0.193929  0.000172  2.591446  0.0
O  O249  1  0.55830129  0.86147362  0.18297398  1  -1.097174  0.000747  -0.184451  -0.193948  0.000172  2.591544  0.0
O  O250  1  0.05830047  0.86146913  0.31702522  1  -1.097227  0.000747  -0.184465  -0.193991  0.000172  2.591379  0.0
O  O251  1  0.44169768  0.13852716  0.81702579  1  -1.097195  0.000747  -0.184422  -0.193937  0.000172  2.591409  0.0
O  O252  1  0.85727984  0.34229114  0.72499197  1  -1.20251  0.065145  -0.306152  -0.548124  0.04699  2.316957  0.033
O  O253  1  0.64271819  0.65770825  0.22499238  1  -1.202724  0.065145  -0.306123  -0.548095  0.046989  2.316947  0.033
O  O254  1  0.14271840  0.65770435  0.27500909  1  -1.2025  0.065141  -0.30614  -0.548087  0.04699  2.316926  0.033
O  O255  1  0.35727976  0.34229252  0.77500912  1  -1.202563  0.065143  -0.306138  -0.548128  0.046989  2.316894  0.033
O  O256  1  0.05604045  0.38721210  0.77451380  1  -1.214893  0.062162  -0.319392  -0.577942  0.044108  2.359045  0.026
O  O257  1  0.44395723  0.61279622  0.27451423  1  -1.214775  0.062163  -0.319436  -0.577989  0.044109  2.35899  0.026
O  O258  1  0.94395774  0.61279044  0.22548512  1  -1.214917  0.062165  -0.31939  -0.577959  0.044108  2.35903  0.026
O  O259  1  0.55604348  0.38720985  0.72548857  1  -1.21476  0.062162  -0.3195  -0.57811  0.044114  2.358921  0.026
