# generated using pymatgen
data_LiH11C12(N2O5)2
_symmetry_space_group_name_H-M   'P 1'
_cell_length_a   4.87927120
_cell_length_b   6.54590859
_cell_length_c   24.65787192
_cell_angle_alpha   90.00019904
_cell_angle_beta   90.00006611
_cell_angle_gamma   112.75478279
_symmetry_Int_Tables_number   1
_chemical_formula_structural   LiH11C12(N2O5)2
_chemical_formula_sum   'Li2 H22 C24 N8 O20'
_cell_volume   726.25788160
_cell_formula_units_Z   2
loop_
 _symmetry_equiv_pos_site_id
 _symmetry_equiv_pos_as_xyz
  1  'x, y, z'
loop_
 _atom_site_type_symbol
 _atom_site_label
 _atom_site_symmetry_multiplicity
 _atom_site_fract_x
 _atom_site_fract_y
 _atom_site_fract_z
 _atom_site_occupancy
 _atom_site_pbe_bader_spin_density
 _atom_site_pbe_cm5_charge
 _atom_site_pbe_ddec_charge
 _atom_site_pbe_ddec_spin_density
 _atom_site_pbe_ddec_sum_bond_order
 _atom_site_pbe_magmom
Li  Li0  1  0.99999703  0.49999871  0.00000076  1  0  0.462674  0.732842  0  0.593234  0
Li  Li1  1  0.49999663  0.99999743  0.49999988  1  0  0.462672  0.732841  0  0.593245  0
H  H2  1  0.80001795  0.71279023  0.76879021  1  0  0.127874  0.142438  0  0.967215  0
H  H3  1  0.69998496  0.78720892  0.26878844  1  0  0.127888  0.1425  0  0.967229  0
H  H4  1  0.19998758  0.28720911  0.23121070  1  0  0.127899  0.142509  0  0.967196  0
H  H5  1  0.30001075  0.21279530  0.73121003  1  0  0.127896  0.142499  0  0.967213  0
H  H6  1  0.03238574  0.44104088  0.79455093  1  0  0.121703  0.140228  0  1.012529  0
H  H7  1  0.46761586  0.05895309  0.29455105  1  0  0.121725  0.140298  0  1.012614  0
H  H8  1  0.96762017  0.55895517  0.20544957  1  0  0.121712  0.140251  0  1.012592  0
H  H9  1  0.53238602  0.94105118  0.70544946  1  0  0.121694  0.140227  0  1.012606  0
H  H10  1  0.37723227  0.22464274  0.97871397  1  0  0.308849  0.395803  0  0.935238  0
H  H11  1  0.12276836  0.27535933  0.47871299  1  0  0.308888  0.395828  0  0.935186  0
H  H12  1  0.62276877  0.77535988  0.02128735  1  0  0.308888  0.395824  0  0.935194  0
H  H13  1  0.87723268  0.72464329  0.52128590  1  0  0.308874  0.395813  0  0.935217  0
H  H14  1  0.41723399  0.20129264  0.04230996  1  0  0.299769  0.331234  0  1.033341  0
H  H15  1  0.08276654  0.29871022  0.54230932  1  0  0.299766  0.331236  0  1.033371  0
H  H16  1  0.58276621  0.79870832  0.95769055  1  0  0.299763  0.331226  0  1.033394  0
H  H17  1  0.91723366  0.70129074  0.45768997  1  0  0.299773  0.33122  0  1.033353  0
H  H18  1  0.37458697  0.10615287  0.87483431  1  0  0.297169  0.357477  0  0.991505  0
H  H19  1  0.12541832  0.39384745  0.37483141  1  0  0.297203  0.357599  0  0.991419  0
H  H20  1  0.62541071  0.89384312  0.12516701  1  0  0.297199  0.357641  0  0.991348  0
H  H21  1  0.87458478  0.60615517  0.62516626  1  0  0.297199  0.357618  0  0.991352  0
H  H22  1  0.50000077  0.00000089  0.00000046  1  0  0.301035  0.410142  0  0.921975  0
H  H23  1  0.99999816  0.49999804  0.49999970  1  0  0.301034  0.410136  0  0.921983  0
C  C24  1  0.72756638  0.77046797  0.85312678  1  0  0.128097  0.067479  0  3.948818  0
C  C25  1  0.77243197  0.72952929  0.35312458  1  0  0.128071  0.067588  0  3.948683  0
C  C26  1  0.27242925  0.22952800  0.14687413  1  0  0.128131  0.067599  0  3.948685  0
C  C27  1  0.22756411  0.27047163  0.64687349  1  0  0.128122  0.067514  0  3.948771  0
C  C28  1  0.97840579  0.48819459  0.88030867  1  0  0.125713  0.066569  0  3.971988  0
C  C29  1  0.52159486  0.01179931  0.38030783  1  0  0.12572  0.066703  0  3.9718  0
C  C30  1  0.02159394  0.51180142  0.11969183  1  0  0.125714  0.066695  0  3.971884  0
C  C31  1  0.47840656  0.98820001  0.61969187  1  0  0.125706  0.066626  0  3.971927  0
C  C32  1  0.13044032  0.33928000  0.89974205  1  0  0.223141  0.557546  0  4.218569  0
C  C33  1  0.36955786  0.16071410  0.39974143  1  0  0.223096  0.557415  0  4.218556  0
C  C34  1  0.86955615  0.66071763  0.10025926  1  0  0.223088  0.557411  0  4.218589  0
C  C35  1  0.63044356  0.83928522  0.60025867  1  0  0.223113  0.557463  0  4.218521  0
C  C36  1  0.58775710  0.93427865  0.84097332  1  0  0.226416  0.535159  0  4.190876  0
C  C37  1  0.91224397  0.56572007  0.34097343  1  0  0.226269  0.53478  0  4.191186  0
C  C38  1  0.41224348  0.06571901  0.15902678  1  0  0.226358  0.534986  0  4.190927  0
C  C39  1  0.08775296  0.43428251  0.65902667  1  0  0.226315  0.534959  0  4.191218  0
C  C40  1  0.82509125  0.67277450  0.81088466  1  0  -0.036846  -0.045754  0  3.833881  0
C  C41  1  0.67490770  0.82722039  0.31088293  1  0  -0.036924  -0.045957  0  3.83386  0
C  C42  1  0.17490765  0.32721984  0.18911625  1  0  -0.036921  -0.045906  0  3.833935  0
C  C43  1  0.32509128  0.17278221  0.68911636  1  0  -0.036905  -0.045856  0  3.83382  0
C  C44  1  0.95196071  0.52447207  0.82498882  1  0  -0.0446  -0.062629  0  3.859725  0
C  C45  1  0.54804022  0.97553463  0.32498761  1  0  -0.044545  -0.062647  0  3.859683  0
C  C46  1  0.04804323  0.47553222  0.17501249  1  0  -0.044548  -0.062632  0  3.859738  0
C  C47  1  0.45195877  0.02446796  0.67501128  1  0  -0.044525  -0.062562  0  3.859688  0
N  N48  1  0.87830297  0.58485865  0.91930964  1  0  -0.212649  -0.181161  0  3.344259  0
N  N49  1  0.62169467  0.91513643  0.41930838  1  0  -0.212729  -0.181288  0  3.344161  0
N  N50  1  0.12169350  0.41513898  0.08069127  1  0  -0.212688  -0.181238  0  3.344289  0
N  N51  1  0.37830675  0.08486288  0.58069091  1  0  -0.212697  -0.181223  0  3.344248  0
N  N52  1  0.75044206  0.72294881  0.90551733  1  0  -0.154824  -0.092459  0  3.366954  0
N  N53  1  0.74955743  0.77704605  0.40551557  1  0  -0.154764  -0.092372  0  3.366706  0
N  N54  1  0.24955562  0.27704717  0.09448358  1  0  -0.154833  -0.092462  0  3.366885  0
N  N55  1  0.25044315  0.22295161  0.59448371  1  0  -0.154853  -0.092459  0  3.366916  0
O  O56  1  0.15646050  0.32234118  0.95055827  1  0  -0.3477  -0.596572  0  2.277218  0
O  O57  1  0.34354095  0.17765875  0.45055685  1  0  -0.347668  -0.596488  0  2.277207  0
O  O58  1  0.84353971  0.67765977  0.04944304  1  0  -0.347669  -0.596487  0  2.277207  0
O  O59  1  0.65645925  0.82234220  0.54944244  1  0  -0.347698  -0.596535  0  2.277127  0
O  O60  1  0.48217947  0.99620118  0.88455171  1  0  -0.321177  -0.481598  0  2.363542  0
O  O61  1  0.01782856  0.50379988  0.38454843  1  0  -0.321151  -0.481572  0  2.363731  0
O  O62  1  0.51781821  0.00379481  0.11544960  1  0  -0.321186  -0.481694  0  2.363641  0
O  O63  1  0.98217950  0.49620443  0.61544843  1  0  -0.321195  -0.481645  0  2.363623  0
O  O64  1  0.22398808  0.24814578  0.86272747  1  0  -0.299897  -0.520598  0  2.270235  0
O  O65  1  0.27601040  0.25184933  0.36272610  1  0  -0.299851  -0.520584  0  2.270272  0
O  O66  1  0.77601044  0.75185186  0.13727465  1  0  -0.299859  -0.520628  0  2.270228  0
O  O67  1  0.72398896  0.74814997  0.63727359  1  0  -0.299847  -0.520598  0  2.270259  0
O  O68  1  0.57696124  0.99696353  0.79432090  1  0  -0.277921  -0.471527  0  2.153208  0
O  O69  1  0.92303747  0.50303108  0.29431771  1  0  -0.277844  -0.471349  0  2.15315  0
O  O70  1  0.42303728  0.00303412  0.20568082  1  0  -0.277891  -0.471427  0  2.153089  0
O  O71  1  0.07695778  0.49696819  0.70567955  1  0  -0.277834  -0.471422  0  2.153354  0
O  O72  1  0.50753472  0.18672929  0.00580884  1  0  -0.544994  -0.713154  0  2.247433  0
O  O73  1  0.99246803  0.31327307  0.50580831  1  0  -0.544992  -0.713154  0  2.247522  0
O  O74  1  0.49246838  0.81327334  0.99419167  1  0  -0.544989  -0.71314  0  2.247531  0
O  O75  1  0.00753217  0.68672789  0.49419057  1  0  -0.545  -0.713143  0  2.247483  0
