# generated using pymatgen
data_CdH20C15S(NO)4
_symmetry_space_group_name_H-M   'P 1'
_cell_length_a   13.12069631
_cell_length_b   13.12070786
_cell_length_c   19.63111718
_cell_angle_alpha   90.00057777
_cell_angle_beta   89.99939210
_cell_angle_gamma   120.00006034
_symmetry_Int_Tables_number   1
_chemical_formula_structural   CdH20C15S(NO)4
_chemical_formula_sum   'Cd6 H120 C90 S6 N24 O24'
_cell_volume   2926.77631879
_cell_formula_units_Z   6
loop_
 _symmetry_equiv_pos_site_id
 _symmetry_equiv_pos_as_xyz
  1  'x, y, z'
loop_
 _atom_site_type_symbol
 _atom_site_label
 _atom_site_symmetry_multiplicity
 _atom_site_fract_x
 _atom_site_fract_y
 _atom_site_fract_z
 _atom_site_occupancy
 _atom_site_pbe_bader_charge
 _atom_site_pbe_bader_spin_density
 _atom_site_pbe_cm5_charge
 _atom_site_pbe_ddec_charge
 _atom_site_pbe_ddec_spin_density
 _atom_site_pbe_ddec_sum_bond_order
 _atom_site_pbe_magmom
Cd  Cd0  1  0.24361102  0.54711792  0.68713202  1  1.227474  0  0.788595  0.827565  0  2.178469  0
Cd  Cd1  1  0.45289465  0.69649410  0.35379874  1  1.227623  0  0.788589  0.827693  0  2.178434  0
Cd  Cd2  1  0.30350148  0.75639509  0.02045319  1  1.229762  0  0.788605  0.827691  0  2.178406  0
Cd  Cd3  1  0.69649475  0.45289877  0.64620426  1  1.227691  0  0.788556  0.827615  0  2.178495  0
Cd  Cd4  1  0.75639130  0.30349769  0.97954575  1  1.22973  0  0.78861  0.827714  0  2.17845  0
Cd  Cd5  1  0.54712078  0.24361052  0.31286238  1  1.227525  0  0.788635  0.827656  0  2.178355  0
H  H6  1  0.10912793  0.32503147  0.63320003  1  0.475302  0  0.283456  0.252798  0  1.013802  0
H  H7  1  0.67495889  0.78409513  0.29986754  1  0.476798  0  0.283466  0.252707  0  1.013708  0
H  H8  1  0.21590839  0.89085521  0.96653613  1  0.484757  0  0.283394  0.252622  0  1.013933  0
H  H9  1  0.78409486  0.67495751  0.70013336  1  0.476834  0  0.283447  0.252672  0  1.013782  0
H  H10  1  0.89085466  0.21590781  0.03346280  1  0.484776  0  0.283386  0.252591  0  1.013964  0
H  H11  1  0.32503038  0.10912809  0.36679902  1  0.475295  0  0.283463  0.252856  0  1.013806  0
H  H12  1  0.17929790  0.43984701  0.82258674  1  0.48456  0  0.296518  0.268805  0  0.968044  0
H  H13  1  0.56017513  0.73947700  0.48925641  1  0.478712  0  0.296616  0.268894  0  0.9679  0
H  H14  1  0.26055092  0.82070409  0.15593133  1  0.49505  0  0.296617  0.268933  0  0.967951  0
H  H15  1  0.73947722  0.56017521  0.51074452  1  0.478741  0  0.296599  0.268934  0  0.967858  0
H  H16  1  0.82070235  0.26055006  0.84406811  1  0.495063  0  0.296612  0.268926  0  0.967953  0
H  H17  1  0.43984812  0.17929928  0.17741126  1  0.484536  0  0.296555  0.268894  0  0.968022  0
H  H18  1  0.16684236  0.56170405  0.36261184  1  0.081199  0  0.113952  0.083159  0  1.000502  0
H  H19  1  0.43826338  0.60512974  0.02928766  1  0.079532  0  0.113931  0.083193  0  1.00055  0
H  H20  1  0.39484152  0.83312953  0.69594703  1  0.092204  0  0.114079  0.083315  0  1.00063  0
H  H21  1  0.60512679  0.43826131  0.97071179  1  0.079903  0  0.113919  0.083185  0  1.000563  0
H  H22  1  0.83312663  0.39483941  0.30405188  1  0.092244  0  0.11407  0.083274  0  1.000633  0
H  H23  1  0.56170311  0.16684073  0.63738766  1  0.081257  0  0.113944  0.083171  0  1.00051  0
H  H24  1  0.99684069  0.40065611  0.42646768  1  0.085731  0  0.100779  0.10251  0  1.031973  0
H  H25  1  0.59930611  0.59614466  0.09315199  1  0.073686  0  0.100791  0.102504  0  1.031741  0
H  H26  1  0.40382831  0.00314394  0.75981270  1  0.085076  0  0.100748  0.102438  0  1.031954  0
H  H27  1  0.59614317  0.59930542  0.90684896  1  0.073657  0  0.100844  0.102598  0  1.031754  0
H  H28  1  0.00314283  0.40382760  0.24018636  1  0.085186  0  0.10076  0.10245  0  1.031927  0
H  H29  1  0.40065607  0.99683957  0.57353120  1  0.08573  0  0.100775  0.102469  0  1.032  0
H  H30  1  0.03827103  0.31222665  0.52840233  1  0.117783  0  0.111751  0.121823  0  1.001555  0
H  H31  1  0.68773617  0.72601245  0.19508570  1  0.111574  0  0.111772  0.121886  0  1.001562  0
H  H32  1  0.27397998  0.96170679  0.86175303  1  0.111136  0  0.111818  0.121878  0  1.001488  0
H  H33  1  0.72601442  0.68773531  0.80491675  1  0.111574  0  0.111813  0.12194  0  1.001546  0
H  H34  1  0.96170861  0.27397994  0.13824486  1  0.111402  0  0.111845  0.121937  0  1.001504  0
H  H35  1  0.31222726  0.03826942  0.47159623  1  0.117962  0  0.11181  0.121928  0  1.001512  0
H  H36  1  0.40852649  0.54056486  0.48921655  1  0.138117  0  0.121175  0.101385  0  1.008523  0
H  H37  1  0.45945840  0.86799568  0.15588188  1  0.129512  0  0.121129  0.101278  0  1.008498  0
H  H38  1  0.13198318  0.59143808  0.82254412  1  0.15793  0  0.121163  0.101421  0  1.008276  0
H  H39  1  0.86799476  0.45945645  0.84411905  1  0.129504  0  0.121111  0.101268  0  1.008489  0
H  H40  1  0.59143820  0.13198438  0.17745437  1  0.157937  0  0.121176  0.101412  0  1.008308  0
H  H41  1  0.54056701  0.40852607  0.51078190  1  0.138327  0  0.121136  0.101302  0  1.008577  0
H  H42  1  0.24102272  0.27846168  0.55966156  1  0.03747  0  0.094725  0.06552  0  1.004958  0
H  H43  1  0.72151956  0.96255305  0.22633218  1  0.038474  0  0.094762  0.065649  0  1.004971  0
H  H44  1  0.03744392  0.75895492  0.89301172  1  0.029214  0  0.094749  0.065467  0  1.004958  0
H  H45  1  0.96255290  0.72151818  0.77366767  1  0.038503  0  0.094757  0.065623  0  1.004955  0
H  H46  1  0.75895426  0.03744342  0.10698930  1  0.029136  0  0.094743  0.065467  0  1.00495  0
H  H47  1  0.27846324  0.24102284  0.44033747  1  0.037712  0  0.094732  0.065557  0  1.004953  0
H  H48  1  0.35566256  0.41899130  0.58454610  1  0.062959  0  0.109253  0.097538  0  1.014031  0
H  H49  1  0.58099985  0.93667286  0.25121553  1  0.108343  0  0.109291  0.097666  0  1.013934  0
H  H50  1  0.06332960  0.64431030  0.91789062  1  0.112155  0  0.109339  0.097697  0  1.013775  0
H  H51  1  0.93667159  0.58099831  0.74878485  1  0.108338  0  0.109284  0.097639  0  1.013915  0
H  H52  1  0.64431071  0.06332934  0.08211042  1  0.112175  0  0.10934  0.097697  0  1.013785  0
H  H53  1  0.41899037  0.35565916  0.41545238  1  0.063003  0  0.109231  0.097465  0  1.014018  0
H  H54  1  0.31889569  0.33884659  0.69630730  1  0.017786  0  0.107551  0.05955  0  0.989067  0
H  H55  1  0.66116499  0.98006671  0.36297317  1  0.027817  0  0.107531  0.059486  0  0.989029  0
H  H56  1  0.01994148  0.68109879  0.02964904  1  0.077391  0  0.107535  0.05949  0  0.989076  0
H  H57  1  0.98006596  0.66116303  0.63702719  1  0.027794  0  0.107516  0.059458  0  0.98903  0
H  H58  1  0.68109737  0.01994027  0.97034996  1  0.077362  0  0.107528  0.059438  0  0.98911  0
H  H59  1  0.33884588  0.31889522  0.30369222  1  0.017784  0  0.107577  0.059569  0  0.989024  0
H  H60  1  0.07394461  0.12052782  0.67791826  1  0.082758  0  0.092813  0.132814  0  0.99103  0
H  H61  1  0.87948406  0.95342529  0.34458313  1  0.022296  0  0.092822  0.132801  0  0.990936  0
H  H62  1  0.04659087  0.92605993  0.01126569  1  0.016984  0  0.09279  0.1328  0  0.990914  0
H  H63  1  0.95342438  0.87948181  0.65541771  1  0.022304  0  0.092816  0.132799  0  0.99093  0
H  H64  1  0.92605801  0.04658900  0.98873428  1  0.017183  0  0.092805  0.132828  0  0.990927  0
H  H65  1  0.12052874  0.07394252  0.32208236  1  0.08273  0  0.092791  0.132794  0  0.991005  0
H  H66  1  0.19828651  0.12563345  0.71810302  1  0.027103  0  0.086902  0.117866  0  1.014078  0
H  H67  1  0.87438282  0.07267143  0.38476179  1  0.028593  0  0.08693  0.117906  0  1.013972  0
H  H68  1  0.92734691  0.80171312  0.05144019  1  0.029296  0  0.086898  0.117824  0  1.014125  0
H  H69  1  0.07267224  0.87438194  0.61523920  1  0.028605  0  0.086943  0.117917  0  1.013979  0
H  H70  1  0.80171274  0.92734789  0.94856016  1  0.029317  0  0.08692  0.117891  0  1.014095  0
H  H71  1  0.12563213  0.19828652  0.28189656  1  0.027075  0  0.086904  0.117837  0  1.01411  0
H  H72  1  0.20107970  0.15075195  0.62949937  1  0.024203  0  0.086143  0.118804  0  1.024901  0
H  H73  1  0.84925898  0.05032680  0.29615554  1  0.024311  0  0.086067  0.118675  0  1.024962  0
H  H74  1  0.94969024  0.79894277  0.96283653  1  0.018334  0  0.08603  0.118685  0  1.024877  0
H  H75  1  0.05032600  0.84925652  0.70384495  1  0.02439  0  0.08607  0.118664  0  1.024978  0
H  H76  1  0.79894080  0.94968962  0.03716433  1  0.01842  0  0.086003  0.118658  0  1.024904  0
H  H77  1  0.15075148  0.20107877  0.37050071  1  0.024256  0  0.086152  0.118802  0  1.02485  0
H  H78  1  0.07981065  0.28320454  0.75574982  1  0.129518  0  0.115049  0.109897  0  0.983799  0
H  H79  1  0.71681609  0.79663438  0.42242032  1  0.100563  0  0.115095  0.109881  0  0.983811  0
H  H80  1  0.20339295  0.92018901  0.08909258  1  0.102153  0  0.115055  0.109864  0  0.983808  0
H  H81  1  0.79663420  0.71681477  0.57758058  1  0.100555  0  0.115078  0.109855  0  0.983879  0
H  H82  1  0.92018858  0.20339248  0.91090635  1  0.102168  0  0.115044  0.109864  0  0.983816  0
H  H83  1  0.28320756  0.07981144  0.24424975  1  0.129563  0  0.11504  0.109885  0  0.983787  0
H  H84  1  0.18199065  0.25479818  0.79961034  1  0.005018  0  0.097412  0.071087  0  0.980378  0
H  H85  1  0.74522330  0.92721869  0.46627349  1  -0.010811  0  0.097325  0.070959  0  0.98031  0
H  H86  1  0.07279992  0.81800307  0.13294501  1  0.009912  0  0.097393  0.071042  0  0.980405  0
H  H87  1  0.92721988  0.74522237  0.53372738  1  -0.010886  0  0.097325  0.070939  0  0.980322  0
H  H88  1  0.81800306  0.07279914  0.86705446  1  0.010175  0  0.097385  0.071043  0  0.980399  0
H  H89  1  0.25479918  0.18199025  0.20038922  1  0.004991  0  0.097401  0.07109  0  0.980366  0
H  H90  1  0.40721321  0.47173989  0.77526932  1  0.076944  0  0.108209  0.089777  0  1.02258  0
H  H91  1  0.52830021  0.93550623  0.44194607  1  0.060848  0  0.108122  0.08974  0  1.022593  0
H  H92  1  0.06451661  0.59279277  0.10862422  1  0.081391  0  0.108188  0.089858  0  1.022423  0
H  H93  1  0.93550862  0.52830149  0.55805483  1  0.060999  0  0.108142  0.089774  0  1.022544  0
H  H94  1  0.59279008  0.06451504  0.89137734  1  0.081326  0  0.108191  0.089897  0  1.022377  0
H  H95  1  0.47174098  0.40721266  0.22473016  1  0.07697  0  0.10822  0.089789  0  1.022567  0
H  H96  1  0.34116965  0.40970322  0.85570899  1  0.027278  0  0.099495  0.072409  0  0.978658  0
H  H97  1  0.59031507  0.93148222  0.52238191  1  0.032395  0  0.099433  0.072254  0  0.978482  0
H  H98  1  0.06854516  0.65883817  0.18906254  1  0.033579  0  0.099488  0.072361  0  0.978566  0
H  H99  1  0.93148616  0.59031787  0.47761949  1  0.032593  0  0.099441  0.072264  0  0.978438  0
H  H100  1  0.65883714  0.06854521  0.81093849  1  0.0336  0  0.099495  0.072398  0  0.978546  0
H  H101  1  0.40970347  0.34117009  0.14428899  1  0.027421  0  0.099467  0.072391  0  0.978641  0
H  H102  1  0.55071003  0.67779475  0.77361856  1  0.171108  0  0.108138  0.121592  0  1.064379  0
H  H103  1  0.32223881  0.87295359  0.44029564  1  0.187733  0  0.108097  0.121646  0  1.0642  0
H  H104  1  0.12706519  0.44928065  0.10696288  1  0.178818  0  0.108086  0.121572  0  1.064216  0
H  H105  1  0.87295635  0.32224150  0.55970429  1  0.187665  0  0.10808  0.121595  0  1.064217  0
H  H106  1  0.44927743  0.12706226  0.89303767  1  0.178909  0  0.108098  0.121606  0  1.064268  0
H  H107  1  0.67779425  0.55071119  0.22638086  1  0.171173  0  0.108142  0.121583  0  1.064405  0
H  H108  1  0.63275548  0.87513995  0.82802439  1  0.083989  0  0.105227  0.105342  0  1.009154  0
H  H109  1  0.12488765  0.75764577  0.49468308  1  0.075612  0  0.105189  0.105205  0  1.009114  0
H  H110  1  0.24237316  0.36724545  0.16136511  1  0.076294  0  0.105165  0.105203  0  1.009127  0
H  H111  1  0.75764932  0.12489131  0.50531640  1  0.075421  0  0.105187  0.105223  0  1.009148  0
H  H112  1  0.36724199  0.24237173  0.83863594  1  0.076245  0  0.105204  0.105241  0  1.009122  0
H  H113  1  0.87513606  0.63275574  0.17197294  1  0.084105  0  0.105254  0.105369  0  1.009156  0
H  H114  1  0.52281863  0.89741201  0.92841701  1  0.088202  0  0.109728  0.083168  0  1.068155  0
H  H115  1  0.10259315  0.62541793  0.59506926  1  0.129213  0  0.109723  0.083108  0  1.068183  0
H  H116  1  0.37460001  0.47717958  0.26174545  1  0.110402  0  0.109703  0.083125  0  1.068096  0
H  H117  1  0.62541901  0.10259619  0.40493076  1  0.129044  0  0.109731  0.08314  0  1.06816  0
H  H118  1  0.47717714  0.37459769  0.73825608  1  0.110293  0  0.109712  0.083102  0  1.068121  0
H  H119  1  0.89740818  0.52282074  0.07158493  1  0.088222  0  0.109727  0.083168  0  1.068125  0
H  H120  1  0.27305362  0.54537187  0.92402113  1  0.173333  0  0.116093  0.097128  0  1.070912  0
H  H121  1  0.45463558  0.72769482  0.59068908  1  0.15619  0  0.116082  0.097143  0  1.070734  0
H  H122  1  0.27231697  0.72694236  0.25736279  1  0.171555  0  0.116062  0.097171  0  1.070749  0
H  H123  1  0.72769733  0.45463978  0.40931239  1  0.156155  0  0.116058  0.097097  0  1.070772  0
H  H124  1  0.72694135  0.27231688  0.74263870  1  0.171586  0  0.116094  0.097182  0  1.070726  0
H  H125  1  0.54537109  0.27304946  0.07597683  1  0.173304  0  0.116125  0.097241  0  1.070731  0
C  C126  1  0.18086232  0.51845546  0.40614559  1  0.432238  0  0.04107  0.078595  0  3.980286  0
C  C127  1  0.48152660  0.66239777  0.07281757  1  0.460932  0  0.040937  0.078461  0  3.980492  0
C  C128  1  0.33757160  0.81911502  0.73947502  1  0.486212  0  0.040747  0.078171  0  3.980634  0
C  C129  1  0.66239653  0.48152443  0.92718339  1  0.460187  0  0.040944  0.078452  0  3.980473  0
C  C130  1  0.81911566  0.33757219  0.26052339  1  0.486192  0  0.040756  0.078236  0  3.9805  0
C  C131  1  0.51845646  0.18086177  0.59385341  1  0.432321  0  0.04107  0.078525  0  3.98024  0
C  C132  1  0.08695537  0.42951071  0.44196478  1  -0.038833  0  -0.090831  -0.129522  0  4.012215  0
C  C133  1  0.57046535  0.65742569  0.10863945  1  -0.06304  0  -0.090673  -0.129293  0  4.01206  0
C  C134  1  0.34255085  0.91302376  0.77530109  1  -0.070084  0  -0.090646  -0.129236  0  4.012384  0
C  C135  1  0.65742234  0.57046366  0.89136150  1  -0.062796  0  -0.090756  -0.129453  0  4.01217  0
C  C136  1  0.91302301  0.34254999  0.22469781  1  -0.070162  0  -0.090636  -0.129175  0  4.012383  0
C  C137  1  0.42951289  0.08695523  0.55803323  1  -0.038947  0  -0.090817  -0.1294  0  4.012164  0
C  C138  1  0.11037190  0.37964438  0.49823693  1  -0.062415  0  -0.068511  -0.086203  0  3.917299  0
C  C139  1  0.62034507  0.73072083  0.16490530  1  -0.041529  0  -0.068622  -0.086493  0  3.917466  0
C  C140  1  0.26927318  0.88960825  0.83157265  1  -0.07131  0  -0.068544  -0.086304  0  3.917146  0
C  C141  1  0.73071902  0.62034045  0.83509614  1  -0.041767  0  -0.068623  -0.086445  0  3.917618  0
C  C142  1  0.88961009  0.26927144  0.16842729  1  -0.071636  0  -0.068607  -0.086536  0  3.917301  0
C  C143  1  0.37964708  0.11036967  0.50176109  1  -0.062638  0  -0.0686  -0.086405  0  3.917484  0
C  C144  1  0.22741677  0.41929254  0.51671802  1  0.076567  0  -0.004682  0.051563  0  3.954665  0
C  C145  1  0.58070346  0.80812558  0.18338605  1  0.066707  0  -0.004691  0.051682  0  3.954617  0
C  C146  1  0.19186205  0.77255860  0.85005594  1  0.068326  0  -0.004661  0.051754  0  3.954298  0
C  C147  1  0.80812346  0.58069939  0.81661436  1  0.067027  0  -0.004679  0.051632  0  3.954658  0
C  C148  1  0.77255947  0.19186123  0.14994352  1  0.068309  0  -0.004629  0.05187  0  3.954215  0
C  C149  1  0.41929403  0.22741412  0.48328150  1  0.076645  0  -0.004707  0.051527  0  3.954647  0
C  C150  1  0.31592660  0.50744723  0.47684151  1  0.428943  0  0.052122  0.047988  0  3.892228  0
C  C151  1  0.49255989  0.80849628  0.14350377  1  0.439602  0  0.052058  0.047932  0  3.892435  0
C  C152  1  0.19148261  0.68404343  0.81016693  1  0.430684  0  0.052022  0.047492  0  3.892424  0
C  C153  1  0.80849494  0.49255665  0.85649717  1  0.439562  0  0.052035  0.047935  0  3.892365  0
C  C154  1  0.68404526  0.19148367  0.18983204  1  0.430693  0  0.052004  0.047485  0  3.892362  0
C  C155  1  0.50744775  0.31592638  0.52315900  1  0.428766  0  0.052103  0.04801  0  3.89241  0
C  C156  1  0.26032840  0.36742157  0.57522942  1  0.2871  0  -0.066991  -0.067602  0  3.941653  0
C  C157  1  0.63256516  0.89290296  0.24189938  1  0.240683  0  -0.066998  -0.067764  0  3.941828  0
C  C158  1  0.10709556  0.73964674  0.90857649  1  0.247713  0  -0.066987  -0.067474  0  3.941482  0
C  C159  1  0.89290084  0.63256276  0.75810151  1  0.240711  0  -0.066947  -0.067683  0  3.941642  0
C  C160  1  0.73964647  0.10709454  0.09142300  1  0.247743  0  -0.066989  -0.067511  0  3.941442  0
C  C161  1  0.36742139  0.26032583  0.42476908  1  0.287001  0  -0.066967  -0.067531  0  3.941681  0
C  C162  1  0.22243489  0.29736489  0.69331328  1  0.341752  0  -0.002165  0.158283  0  3.842845  0
C  C163  1  0.70264479  0.92508313  0.35997861  1  0.305135  0  -0.002018  0.158495  0  3.842574  0
C  C164  1  0.07493533  0.77756187  0.02665189  1  0.286565  0  -0.002026  0.158424  0  3.842921  0
C  C165  1  0.92508306  0.70264351  0.64002226  1  0.30501  0  -0.001956  0.158622  0  3.842569  0
C  C166  1  0.77756041  0.07493576  0.97334862  1  0.287001  0  -0.001997  0.158545  0  3.84283  0
C  C167  1  0.29736616  0.22243560  0.30668525  1  0.340968  0  -0.0022  0.158387  0  3.84264  0
C  C168  1  0.17068487  0.16607585  0.67851406  1  -0.127843  0  -0.244169  -0.417996  0  3.930852  0
C  C169  1  0.83394083  0.00462071  0.34517507  1  -0.047374  0  -0.244059  -0.417821  0  3.930409  0
C  C170  1  0.99540050  0.82932225  0.01185442  1  -0.06068  0  -0.243958  -0.417746  0  3.930574  0
C  C171  1  0.00462099  0.83394036  0.65482544  1  -0.047447  0  -0.244085  -0.417851  0  3.930401  0
C  C172  1  0.82932062  0.99540107  0.98814642  1  -0.060812  0  -0.243975  -0.417847  0  3.930585  0
C  C173  1  0.16607425  0.17068370  0.32148500  1  -0.127839  0  -0.244144  -0.417957  0  3.930675  0
C  C174  1  0.17392911  0.31230069  0.76138961  1  0.257587  0  -0.071175  -0.089548  0  3.876582  0
C  C175  1  0.68771657  0.86165114  0.42805761  1  0.303677  0  -0.071172  -0.089398  0  3.876624  0
C  C176  1  0.13837231  0.82607018  0.09472946  1  0.279848  0  -0.071247  -0.089454  0  3.876639  0
C  C177  1  0.86165182  0.68771608  0.57194379  1  0.303795  0  -0.07118  -0.089448  0  3.876839  0
C  C178  1  0.82606891  0.13837110  0.90527052  1  0.279585  0  -0.071236  -0.089487  0  3.876613  0
C  C179  1  0.31230009  0.17392885  0.23860994  1  0.257555  0  -0.071148  -0.089497  0  3.876568  0
C  C180  1  0.34978782  0.47266817  0.81547457  1  0.301648  0  -0.067358  -0.073346  0  3.936039  0
C  C181  1  0.52735442  0.87713961  0.48214583  1  0.282882  0  -0.067142  -0.072823  0  3.935492  0
C  C182  1  0.12288391  0.65021966  0.14882161  1  0.262777  0  -0.06746  -0.07357  0  3.936032  0
C  C183  1  0.87714153  0.52735614  0.51785559  1  0.282501  0  -0.067152  -0.072878  0  3.935406  0
C  C184  1  0.65021660  0.12288278  0.85117992  1  0.262822  0  -0.067461  -0.0736  0  3.936152  0
C  C185  1  0.47266889  0.34978781  0.18452441  1  0.301494  0  -0.067354  -0.073299  0  3.935949  0
C  C186  1  0.40528470  0.59469693  0.84492854  1  -0.003469  0  -0.008875  0.046929  0  3.968425  0
C  C187  1  0.40532359  0.81061626  0.51159775  1  0.033306  0  -0.00884  0.046883  0  3.968247  0
C  C188  1  0.18940916  0.59471525  0.17826832  1  -0.010439  0  -0.008737  0.047326  0  3.968225  0
C  C189  1  0.81061820  0.40532544  0.48840218  1  0.033286  0  -0.008858  0.046816  0  3.968244  0
C  C190  1  0.59471255  0.18940750  0.82173220  1  -0.010163  0  -0.008763  0.047179  0  3.96825  0
C  C191  1  0.59469888  0.40528668  0.15507143  1  -0.003511  0  -0.008874  0.046964  0  3.968381  0
C  C192  1  0.50759555  0.68922332  0.81803140  1  -0.036647  0  -0.066876  -0.077264  0  3.914242  0
C  C193  1  0.31080311  0.81840952  0.48470713  1  -0.06718  0  -0.066908  -0.0774  0  3.914626  0
C  C194  1  0.18160971  0.49239713  0.15137600  1  -0.046931  0  -0.066835  -0.077288  0  3.914267  0
C  C195  1  0.81841271  0.31080538  0.51529281  1  -0.067152  0  -0.066887  -0.077271  0  3.914535  0
C  C196  1  0.49239397  0.18160677  0.84862454  1  -0.047059  0  -0.06687  -0.077308  0  3.91423  0
C  C197  1  0.68922036  0.50759780  0.18196751  1  -0.036757  0  -0.066862  -0.077233  0  3.914271  0
C  C198  1  0.55319436  0.79985705  0.84807371  1  -0.117266  0  -0.089439  -0.129576  0  3.992957  0
C  C199  1  0.20017037  0.75337919  0.51474024  1  -0.074435  0  -0.089352  -0.129264  0  3.992902  0
C  C200  1  0.24664158  0.44679876  0.18141568  1  -0.104999  0  -0.089399  -0.129433  0  3.993003  0
C  C201  1  0.75338195  0.20017318  0.48525872  1  -0.074199  0  -0.089423  -0.129432  0  3.993022  0
C  C202  1  0.44679629  0.24663933  0.81858434  1  -0.105019  0  -0.089456  -0.129516  0  3.992958  0
C  C203  1  0.79985499  0.55319741  0.15192467  1  -0.117749  0  -0.089502  -0.129654  0  3.993034  0
C  C204  1  0.49423167  0.81354915  0.90300869  1  0.510085  0  0.037886  0.07131  0  3.964028  0
C  C205  1  0.18645926  0.68069851  0.56966662  1  0.441019  0  0.038057  0.071522  0  3.963562  0
C  C206  1  0.31931700  0.50576425  0.23634423  1  0.481354  0  0.037941  0.07139  0  3.963693  0
C  C207  1  0.68070035  0.18646297  0.43033337  1  0.441284  0  0.038081  0.071547  0  3.963775  0
C  C208  1  0.50576294  0.31931670  0.76365730  1  0.48147  0  0.037961  0.071491  0  3.96367  0
C  C209  1  0.81354490  0.49423255  0.09699122  1  0.510679  0  0.037961  0.071409  0  3.964096  0
C  C210  1  0.35328195  0.61548627  0.90110135  1  0.423653  0  0.038835  0.019874  0  3.932093  0
C  C211  1  0.38451960  0.73781543  0.56776963  1  0.439573  0  0.038722  0.019546  0  3.931896  0
C  C212  1  0.26220586  0.64671227  0.23444079  1  0.436117  0  0.038718  0.019458  0  3.932236  0
C  C213  1  0.73781721  0.38452311  0.43223083  1  0.439634  0  0.038713  0.019595  0  3.931936  0
C  C214  1  0.64671160  0.26220527  0.76556123  1  0.435892  0  0.038752  0.019593  0  3.932032  0
C  C215  1  0.61548374  0.35327948  0.09889913  1  0.423642  0  0.038821  0.019737  0  3.931979  0
S  S216  1  0.94006706  0.38129479  0.68898370  1  3.783437  0  0.531901  1.399949  0  6.450281  0
S  S217  1  0.61870235  0.55877360  0.35565800  1  3.762589  0  0.531839  1.400129  0  6.450556  0
S  S218  1  0.44121164  0.05992848  0.02231270  1  3.76946  0  0.531903  1.400547  0  6.450711  0
S  S219  1  0.55877511  0.61870203  0.64434346  1  3.762144  0  0.531709  1.39992  0  6.450892  0
S  S220  1  0.05992607  0.44120957  0.97768481  1  3.770433  0  0.531981  1.400789  0  6.450514  0
S  S221  1  0.38129200  0.94006764  0.31101621  1  3.783017  0  0.531884  1.399853  0  6.450319  0
N  N222  1  0.29331849  0.55646399  0.42313111  1  -1.216981  0  -0.324814  -0.229243  0  3.506957  0
N  N223  1  0.44353429  0.73686671  0.08980018  1  -1.210118  0  -0.324653  -0.229128  0  3.507173  0
N  N224  1  0.26311285  0.70665375  0.75646069  1  -1.252386  0  -0.324679  -0.228825  0  3.507181  0
N  N225  1  0.73686483  0.44353146  0.91020077  1  -1.210093  0  -0.32464  -0.229098  0  3.507161  0
N  N226  1  0.70665356  0.26311271  0.24353775  1  -1.252399  0  -0.324676  -0.228794  0  3.507046  0
N  N227  1  0.55646562  0.29332025  0.57686837  1  -1.216927  0  -0.324714  -0.229081  0  3.506998  0
N  N228  1  0.19942971  0.36199285  0.63929118  1  -1.085734  0  -0.484187  -0.367742  0  3.411482  0
N  N229  1  0.63800718  0.83744376  0.30596175  1  -1.086351  0  -0.484413  -0.368013  0  3.411577  0
N  N230  1  0.16256605  0.80055574  0.97263347  1  -1.090789  0  -0.484361  -0.36782  0  3.411802  0
N  N231  1  0.83744390  0.63800708  0.69403915  1  -1.086316  0  -0.484436  -0.367959  0  3.411489  0
N  N232  1  0.80055360  0.16256396  0.02736650  1  -1.091232  0  -0.48437  -0.367823  0  3.41188  0
N  N233  1  0.36199384  0.19942923  0.36070785  1  -1.085059  0  -0.484225  -0.367964  0  3.41165  0
N  N234  1  0.23262662  0.43500514  0.78563499  1  -1.086  0  -0.480566  -0.327634  0  3.416867  0
N  N235  1  0.56501594  0.79764200  0.45230301  1  -1.082766  0  -0.48071  -0.327968  0  3.417135  0
N  N236  1  0.20238376  0.76737866  0.11897676  1  -1.098579  0  -0.480589  -0.327869  0  3.416851  0
N  N237  1  0.79764270  0.56501558  0.54769791  1  -1.082797  0  -0.480688  -0.327933  0  3.417213  0
N  N238  1  0.76737731  0.20238246  0.88102321  1  -1.098551  0  -0.480622  -0.32789  0  3.416963  0
N  N239  1  0.43500238  0.23262409  0.21436401  1  -1.085944  0  -0.480617  -0.327892  0  3.417099  0
N  N240  1  0.39582677  0.72265149  0.92884883  1  -1.260362  0  -0.33622  -0.233384  0  3.550041  0
N  N241  1  0.27734994  0.67317851  0.59550942  1  -1.258575  0  -0.336309  -0.233442  0  3.549716  0
N  N242  1  0.32683290  0.60417560  0.26218361  1  -1.234  0  -0.336176  -0.233271  0  3.550046  0
N  N243  1  0.67317955  0.27735280  0.40449055  1  -1.258615  0  -0.336263  -0.233412  0  3.549842  0
N  N244  1  0.60417550  0.32683464  0.73781891  1  -1.234043  0  -0.336176  -0.233312  0  3.549847  0
N  N245  1  0.72265081  0.39582870  0.07115111  1  -1.260494  0  -0.336264  -0.233424  0  3.550137  0
O  O246  1  0.04681374  0.50319145  0.68425653  1  -1.351388  0  -0.390652  -0.69736  0  2.273003  0
O  O247  1  0.49680991  0.54363504  0.35095310  1  -1.328451  0  -0.390476  -0.697347  0  2.273368  0
O  O248  1  0.45636669  0.95318219  0.01762209  1  -1.333398  0  -0.390473  -0.697396  0  2.273267  0
O  O249  1  0.54363584  0.49680896  0.64904788  1  -1.32834  0  -0.390504  -0.697323  0  2.273403  0
O  O250  1  0.95317790  0.45636043  0.98237475  1  -1.333354  0  -0.390546  -0.697511  0  2.27327  0
O  O251  1  0.50319021  0.04681455  0.31574352  1  -1.351368  0  -0.390674  -0.697348  0  2.273067  0
O  O252  1  0.95828015  0.29813249  0.64590888  1  -1.362844  0  -0.390564  -0.689519  0  2.14538  0
O  O253  1  0.70184491  0.66013202  0.31256931  1  -1.364485  0  -0.390494  -0.689433  0  2.145236  0
O  O254  1  0.33986742  0.04170347  0.97920658  1  -1.361255  0  -0.390518  -0.689701  0  2.14545  0
O  O255  1  0.66013248  0.70184256  0.68743467  1  -1.364311  0  -0.390411  -0.689396  0  2.145381  0
O  O256  1  0.04170306  0.33986653  0.02079146  1  -1.361177  0  -0.390515  -0.68973  0  2.145349  0
O  O257  1  0.29812956  0.95828062  0.35409257  1  -1.362355  0  -0.390551  -0.689521  0  2.145348  0
O  O258  1  0.83777677  0.38931709  0.66129387  1  -1.354695  0  -0.38754  -0.688473  0  2.283393  0
O  O259  1  0.61066135  0.44845356  0.32796845  1  -1.355226  0  -0.387575  -0.688467  0  2.283545  0
O  O260  1  0.55153586  0.16221274  0.99463072  1  -1.360158  0  -0.387566  -0.688526  0  2.283597  0
O  O261  1  0.44845372  0.61066063  0.67203150  1  -1.355181  0  -0.387556  -0.688412  0  2.283636  0
O  O262  1  0.16220700  0.55153560  0.00536675  1  -1.361177  0  -0.387548  -0.688557  0  2.283611  0
O  O263  1  0.38931632  0.83777854  0.33870504  1  -1.354606  0  -0.387529  -0.688442  0  2.283416  0
O  O264  1  0.91938667  0.34258802  0.76099941  1  -1.356008  0  -0.379173  -0.670683  0  2.143605  0
O  O265  1  0.65744166  0.57681023  0.42766605  1  -1.35625  0  -0.379273  -0.670881  0  2.143794  0
O  O266  1  0.42313746  0.08063047  0.09431485  1  -1.357416  0  -0.379323  -0.671004  0  2.143805  0
O  O267  1  0.57681420  0.65744201  0.57233540  1  -1.356018  0  -0.379204  -0.670758  0  2.143813  0
O  O268  1  0.08063233  0.42313437  0.90568368  1  -1.357449  0  -0.379384  -0.671113  0  2.143757  0
O  O269  1  0.34258437  0.91938819  0.23900000  1  -1.356187  0  -0.379179  -0.670667  0  2.143592  0
