# generated using pymatgen
data_CuH19C12N2ClO3
_symmetry_space_group_name_H-M   'P 1'
_cell_length_a   7.15002658
_cell_length_b   9.78118359
_cell_length_c   9.26764002
_cell_angle_alpha   90.00030220
_cell_angle_beta   93.89409574
_cell_angle_gamma   89.99884348
_symmetry_Int_Tables_number   1
_chemical_formula_structural   CuH19C12N2ClO3
_chemical_formula_sum   'Cu2 H38 C24 N4 Cl2 O6'
_cell_volume   646.64273186
_cell_formula_units_Z   2
loop_
 _symmetry_equiv_pos_site_id
 _symmetry_equiv_pos_as_xyz
  1  'x, y, z'
loop_
 _atom_site_type_symbol
 _atom_site_label
 _atom_site_symmetry_multiplicity
 _atom_site_fract_x
 _atom_site_fract_y
 _atom_site_fract_z
 _atom_site_occupancy
 _atom_site_hle17_ddec_charge
 _atom_site_hle17_ddec_spin_density
 _atom_site_hle17_ddec_sum_bond_order
 _atom_site_hle17_magmom
 _atom_site_hse06_10hf_ddec_charge
 _atom_site_hse06_10hf_ddec_spin_density
 _atom_site_hse06_10hf_ddec_sum_bond_order
 _atom_site_hse06_10hf_magmom
 _atom_site_hse06_ddec_charge
 _atom_site_hse06_ddec_spin_density
 _atom_site_hse06_ddec_sum_bond_order
 _atom_site_hse06_magmom
 _atom_site_pbe_cm5_charge
 _atom_site_pbe_ddec_charge
 _atom_site_pbe_ddec_spin_density
 _atom_site_pbe_ddec_sum_bond_order
 _atom_site_pbe_magmom
Cu  Cu0  1  0.82658289  0.87055784  0.50498183  1  0.761925  0.650259  1.920412  0.455  0.743148  0.773299  2.340567  0.597  0.842682  0.864521  2.262916  0.699  0.661914  0.682424  0.704401  2.396383  0.531
Cu  Cu1  1  0.17339500  0.37055586  0.49504150  1  0.76197  -0.650266  1.920125  -0.455  0.743124  -0.773298  2.340356  -0.597  0.842756  -0.864527  2.262551  -0.699  0.661908  0.682391  -0.704398  2.396194  -0.531
H  H2  1  0.84383879  0.15252179  0.41595198  1  0.369254  0.00043  0.919252  0.001  0.338579  0.000493  1.000453  0.001  0.349603  0.000307  0.988319  0.001  0.307732  0.330728  0.000605  1.008963  0.002
H  H3  1  0.15617675  0.65251278  0.58403448  1  0.369271  -0.000429  0.91935  -0.001  0.338612  -0.000493  1.000489  -0.001  0.349608  -0.000307  0.988409  -0.001  0.307757  0.330757  -0.000604  1.008997  -0.002
H  H4  1  0.50380600  0.77925509  0.47561580  1  0.281245  -0.002885  0.865429  -0.004  0.273785  -0.000969  0.918398  -0.002  0.279838  -0.001048  0.916767  -0.002  0.308859  0.269369  -0.0008  0.920486  -0.001
H  H5  1  0.49617472  0.27924472  0.52439412  1  0.281256  0.002882  0.865396  0.004  0.273769  0.000967  0.918368  0.002  0.27983  0.001047  0.916702  0.002  0.308809  0.26936  0.000799  0.920453  0.001
H  H6  1  0.54108903  0.95908685  0.02197582  1  0.099947  0.000462  0.943803  0.0  0.117544  0.000468  1.004688  0.0  0.119731  0.000298  1.003642  0.0  0.103445  0.116127  0.000485  1.005317  0.0
H  H7  1  0.45889528  0.45908620  0.97802101  1  0.099975  -0.000463  0.943773  0.0  0.117638  -0.000468  1.004585  0.0  0.119827  -0.000298  1.003533  0.0  0.103427  0.11622  -0.000485  1.005215  0.0
H  H8  1  0.55839558  0.11530585  0.12014644  1  0.109879  7.9e-05  0.948627  0.0  0.122079  0.000115  1.013961  0.0  0.124607  6.4e-05  1.012416  0.0  0.106835  0.120388  0.000233  1.014937  0.0
H  H9  1  0.44157711  0.61530726  0.87985396  1  0.109887  -7.9e-05  0.948646  0.0  0.122092  -0.000115  1.013961  0.0  0.124627  -6.5e-05  1.012425  0.0  0.106857  0.120401  -0.000233  1.014928  0.0
H  H10  1  0.24933965  0.09573822  0.19795520  1  0.080307  8.7e-05  0.969043  0.0  0.090868  3.6e-05  1.032656  0.0  0.092479  3.2e-05  1.032787  0.0  0.089395  0.0891  5.7e-05  1.033697  0.0
H  H11  1  0.75063442  0.59575487  0.80202504  1  0.080308  -8.7e-05  0.96892  0.0  0.090846  -3.6e-05  1.032562  0.0  0.092457  -3.2e-05  1.032694  0.0  0.089361  0.08907  -5.7e-05  1.033607  0.0
H  H12  1  0.13122129  0.86863175  0.28294204  1  0.076065  -0.000196  0.973157  0.0  0.081184  -0.000213  1.04627  0.0  0.08232  -0.000192  1.046124  0.0  0.089703  0.079774  -0.000151  1.047091  0.0
H  H13  1  0.86878820  0.36862454  0.71706199  1  0.076057  0.000196  0.973141  0.0  0.081162  0.000214  1.046261  0.0  0.082297  0.000192  1.046113  0.0  0.089701  0.079744  0.000152  1.047097  0.0
H  H14  1  0.37466410  0.70307517  0.09676301  1  0.089826  0.001462  0.958497  0.002  0.106339  0.000804  1.020863  0.001  0.105659  0.000413  1.023229  0.001  0.098193  0.106832  0.001239  1.019322  0.002
H  H15  1  0.62536367  0.20308213  0.90325487  1  0.089826  -0.00146  0.958568  -0.002  0.106336  -0.000803  1.020908  -0.001  0.105662  -0.000413  1.023284  -0.001  0.098184  0.106832  -0.001238  1.019372  -0.002
H  H16  1  0.31735364  0.66428689  0.27102803  1  0.100679  -7.8e-05  0.938246  0.0  0.114743  0.000238  1.000873  0.0  0.116325  0.000177  0.999806  0.0  0.094792  0.112896  0.000322  1.003043  0.001
H  H17  1  0.68267100  0.16427857  0.72900521  1  0.100594  7.9e-05  0.938205  0.0  0.114622  -0.000238  1.000891  0.0  0.116213  -0.000177  0.999826  0.0  0.09473  0.112789  -0.000322  1.003054  -0.001
H  H18  1  0.96198540  0.07210538  0.95886284  1  0.103981  0.000291  0.945939  0.0  0.131278  9.1e-05  0.998706  0.0  0.131926  3.2e-05  0.999963  0.0  0.087741  0.130993  0.000232  0.997733  0.0
H  H19  1  0.03802290  0.57211839  0.04111620  1  0.104089  -0.000291  0.945788  0.0  0.13136  -9e-05  0.998577  0.0  0.13201  -3.2e-05  0.999836  0.0  0.087731  0.131074  -0.000232  0.997601  0.0
H  H20  1  0.93426068  0.03513430  0.14373232  1  0.098995  -5.1e-05  0.98254  0.0  0.116828  -3.4e-05  1.049312  0.0  0.118031  -3e-05  1.049757  0.0  0.085789  0.116096  -2.7e-05  1.0489  0.0
H  H21  1  0.06571845  0.53513625  0.85625502  1  0.099015  5.1e-05  0.98248  0.0  0.116879  3.5e-05  1.049205  0.0  0.118076  3.1e-05  1.049651  0.0  0.085789  0.116152  2.7e-05  1.048789  0.0
H  H22  1  0.86004995  0.91591340  0.00447888  1  0.098623  0.000321  0.991919  0.0  0.11992  0.000144  1.055295  0.0  0.12085  6.9e-05  1.055891  0.0  0.077119  0.119329  0.000253  1.055004  0.0
H  H23  1  0.13996018  0.41591631  0.99551364  1  0.098684  -0.000321  0.992016  0.0  0.119984  -0.000144  1.055349  0.0  0.120913  -6.9e-05  1.055949  0.0  0.077152  0.119392  -0.000253  1.055066  0.0
H  H24  1  0.15378823  0.91373292  0.81867392  1  0.111214  -4.5e-05  0.967095  0.0  0.131947  -5.4e-05  1.028582  0.0  0.132751  -5.3e-05  1.029652  0.0  0.085748  0.131035  -6.4e-05  1.02837  0.0
H  H25  1  0.84620681  0.41372002  0.18133384  1  0.111295  4.4e-05  0.967096  0.0  0.132038  5.4e-05  1.02854  0.0  0.132845  5.2e-05  1.029609  0.0  0.085782  0.131128  6.4e-05  1.028328  0.0
H  H26  1  0.14299497  0.75497420  0.90396319  1  0.105352  -6.3e-05  0.971556  0.0  0.124637  -6.8e-05  1.038744  0.0  0.125867  -4.3e-05  1.039057  0.0  0.087169  0.123822  -2.2e-05  1.038546  0.0
H  H27  1  0.85702350  0.25497013  0.09602322  1  0.105345  6.2e-05  0.971648  0.0  0.124662  6.8e-05  1.038783  0.0  0.125893  4.4e-05  1.039096  0.0  0.087185  0.123847  2.2e-05  1.038588  0.0
H  H28  1  0.36041121  0.84205225  0.90241122  1  0.09338  0.000424  0.987648  0.0  0.110906  0.0003  1.059178  0.0  0.112897  0.00021  1.057514  0.0  0.077855  0.109532  0.000286  1.06029  0.0
H  H29  1  0.63959641  0.34206221  0.09757772  1  0.093461  -0.000424  0.987641  0.0  0.11095  -0.000299  1.059219  0.0  0.112943  -0.00021  1.057554  0.0  0.077857  0.109589  -0.000286  1.060324  0.0
H  H30  1  0.85746664  0.72418895  0.20867158  1  0.123714  -1.8e-05  0.947966  0.0  0.140351  -0.000107  1.013183  0.0  0.141265  -0.00011  1.013701  0.0  0.096701  0.139584  -0.000108  1.012774  0.0
H  H31  1  0.14253510  0.22419228  0.79133245  1  0.123745  1.8e-05  0.947937  0.0  0.140376  0.000107  1.013135  0.0  0.141281  0.00011  1.013662  0.0  0.096713  0.139612  0.000108  1.012729  0.0
H  H32  1  0.69464184  0.74114209  0.05652802  1  0.127055  -9.8e-05  0.947137  0.0  0.149775  -5.1e-05  1.004325  0.0  0.151085  -4.8e-05  1.004424  0.0  0.099926  0.147856  -3.1e-05  1.005672  0.0
H  H33  1  0.30534451  0.24114199  0.94348656  1  0.12688  9.8e-05  0.947207  0.0  0.149591  5.1e-05  1.004417  0.0  0.1509  4.8e-05  1.004512  0.0  0.099809  0.147677  3.1e-05  1.005763  0.0
H  H34  1  0.68143652  0.59679919  0.16930405  1  0.127578  -0.000151  0.957789  0.0  0.150656  -0.0001  1.013757  0.0  0.151964  -8.2e-05  1.014538  0.0  0.100179  0.149378  -9.6e-05  1.013573  0.0
H  H35  1  0.31855533  0.09679692  0.83071678  1  0.127634  0.000151  0.95774  0.0  0.150632  0.0001  1.013769  0.0  0.151941  8.2e-05  1.014546  0.0  0.100143  0.149355  9.5e-05  1.013582  0.0
H  H36  1  0.57789468  0.53146154  0.37990780  1  0.112633  0.004925  0.94748  0.007  0.120345  0.003247  1.016915  0.004  0.122196  0.002273  1.015199  0.003  0.106664  0.118327  0.003746  1.018846  0.005
H  H37  1  0.42207050  0.03143874  0.62009713  1  0.112595  -0.00492  0.947508  -0.007  0.120384  -0.003247  1.016873  -0.004  0.12224  -0.002273  1.015148  -0.003  0.106647  0.118364  -0.003746  1.018799  -0.005
H  H38  1  0.61216359  0.58615475  0.56212364  1  0.118209  0.000305  0.929142  0.001  0.129467  8.7e-05  0.994057  0.0  0.130962  8.8e-05  0.994134  0.0  0.121791  0.128333  0.000101  0.993907  0.0
H  H39  1  0.38787005  0.08614742  0.43787949  1  0.1181  -0.000302  0.929175  -0.001  0.129327  -8.7e-05  0.994148  0.0  0.130819  -8.8e-05  0.994239  0.0  0.121738  0.128201  -0.000101  0.993975  0.0
C  C40  1  0.86621133  0.57571043  0.46103790  1  0.681111  0.005796  3.811931  0.009  0.641491  0.002648  4.104652  0.005  0.679097  0.002189  4.098689  0.004  0.223627  0.615975  0.00273  4.108627  0.006
C  C41  1  0.13379005  0.07571185  0.53894769  1  0.68118  -0.005786  3.811468  -0.009  0.641605  -0.002653  4.104153  -0.005  0.67923  -0.002193  4.098174  -0.004  0.223725  0.616085  -0.002731  4.108129  -0.006
C  C42  1  0.57447120  0.78360011  0.26018961  1  0.220119  2e-05  3.512005  -0.003  0.22954  0.001307  3.752735  -0.001  0.232663  0.00031  3.770291  -0.002  0.083426  0.227863  0.002164  3.740873  0.0
C  C43  1  0.42553418  0.28358474  0.73982490  1  0.219918  -1.4e-05  3.51195  0.003  0.229297  -0.001306  3.75261  0.001  0.23243  -0.00031  3.770156  0.002  0.083296  0.227623  -0.002163  3.740766  0.0
C  C44  1  0.60891079  0.93569700  0.24674871  1  0.197411  -0.012408  3.603816  -0.011  0.190895  -0.003915  3.867324  -0.003  0.209122  -0.005158  3.878052  -0.005  0.139635  0.17902  -0.002601  3.859759  -0.001
C  C45  1  0.39110395  0.43569132  0.75325287  1  0.197335  0.012391  3.603782  0.011  0.190918  0.003915  3.867191  0.003  0.209145  0.005158  3.877928  0.005  0.1396  0.179041  0.0026  3.859632  0.001
C  C46  1  0.50939568  0.00954679  0.12385078  1  -0.186182  0.002578  3.703575  0.003  -0.228141  0.001542  3.93884  0.002  -0.231356  0.001063  3.947692  0.001  -0.152421  -0.225543  0.002251  3.931899  0.003
C  C47  1  0.49059963  0.50954999  0.87615124  1  -0.186271  -0.002579  3.703659  -0.003  -0.228353  -0.001544  3.938952  -0.002  -0.231581  -0.001065  3.947818  -0.001  -0.152463  -0.225748  -0.002252  3.932004  -0.003
C  C48  1  0.30186818  0.00362793  0.14786452  1  -0.100698  -0.000236  3.629231  0.0  -0.110941  -0.000234  3.878549  0.0  -0.113902  -0.000368  3.896548  0.0  -0.10637  -0.108529  0.000175  3.866016  0.0
C  C49  1  0.69812587  0.50363490  0.85213850  1  -0.100764  0.000235  3.629258  0.0  -0.110912  0.000233  3.878454  0.0  -0.113876  0.000368  3.89646  0.0  -0.106325  -0.108491  -0.000176  3.865903  0.0
C  C50  1  0.22936313  0.86631371  0.19790073  1  -0.107146  0.001101  3.597111  0.001  -0.120389  0.000188  3.85283  0.0  -0.122841  -2.6e-05  3.87089  0.0  -0.112439  -0.117491  0.0007  3.839659  0.001
C  C51  1  0.77063517  0.36631635  0.80210280  1  -0.107175  -0.001094  3.597225  -0.001  -0.120416  -0.000189  3.852906  0.0  -0.122858  2.6e-05  3.870979  0.0  -0.112429  -0.117502  -0.000701  3.839749  -0.001
C  C52  1  0.36776447  0.74803649  0.20472546  1  -0.181233  0.009968  3.586576  0.01  -0.223394  0.005788  3.819841  0.006  -0.225062  0.003506  3.833499  0.004  -0.157073  -0.221978  0.0074  3.810712  0.008
C  C53  1  0.63224847  0.24803734  0.79528960  1  -0.181091  -0.009968  3.586626  -0.01  -0.223183  -0.005784  3.819832  -0.006  -0.224889  -0.003503  3.833541  -0.004  -0.156964  -0.221798  -0.007395  3.81074  -0.008
C  C54  1  0.16024972  0.92567678  0.05127807  1  0.169002  0.004184  3.639813  0.004  0.201003  0.001263  3.876056  0.001  0.200463  0.000505  3.899226  0.001  -0.023432  0.202106  0.003107  3.859024  0.003
C  C55  1  0.83975857  0.42568227  0.94872274  1  0.169297  -0.004189  3.639827  -0.004  0.201233  -0.001261  3.876092  -0.001  0.200697  -0.000503  3.899259  -0.001  -0.023369  0.202335  -0.003106  3.859061  -0.003
C  C56  1  0.96804005  0.99019922  0.04032776  1  -0.337236  0.000182  3.696885  0.0  -0.420216  0.000151  3.932457  0.0  -0.423296  2.5e-05  3.94496  0.0  -0.24888  -0.418012  0.000267  3.922961  0.0
C  C57  1  0.03196716  0.49020147  0.95966647  1  -0.337505  -0.000182  3.697086  0.0  -0.420467  -0.000152  3.932631  0.0  -0.423539  -2.6e-05  3.94513  0.0  -0.248935  -0.418266  -0.000267  3.923131  0.0
C  C58  1  0.20956591  0.85588839  0.91345367  1  -0.34749  -0.000136  3.708236  0.0  -0.427948  4.6e-05  3.944233  0.0  -0.430201  5.3e-05  3.954653  0.0  -0.249406  -0.425693  2e-06  3.936682  0.0
C  C59  1  0.79044663  0.35588837  0.08654446  1  -0.347699  0.000147  3.708354  0.0  -0.428165  -4.6e-05  3.944355  0.0  -0.43042  -5.3e-05  3.954774  0.0  -0.249463  -0.425911  -2e-06  3.936793  0.0
C  C60  1  0.71141019  0.70657011  0.16919428  1  -0.360685  -0.000908  3.608253  -0.001  -0.444338  -0.000627  3.842813  0.0  -0.446983  -0.000592  3.852411  0.0  -0.238701  -0.441695  -0.000596  3.836592  0.0
C  C61  1  0.28858767  0.20656999  0.83082249  1  -0.360511  0.000907  3.608246  0.001  -0.444112  0.000626  3.84288  0.0  -0.446741  0.000592  3.852477  0.0  -0.238538  -0.441466  0.000596  3.836643  0.0
C  C62  1  0.65574009  0.60407020  0.45225303  1  -0.141202  -0.006373  3.618116  -0.011  -0.194101  -0.001624  3.870922  -0.006  -0.194127  -0.001794  3.882303  -0.006  -0.072715  -0.193417  -0.001473  3.864211  -0.006
C  C63  1  0.34426685  0.10406403  0.54774162  1  -0.141072  0.006346  3.617875  0.011  -0.194006  0.001622  3.870625  0.006  -0.194036  0.001792  3.881988  0.006  -0.072663  -0.193321  0.00147  3.86392  0.006
N  N64  1  0.61302470  0.74803089  0.41740476  1  -0.374037  0.14661  3.224719  0.176  -0.345748  0.0966  3.499096  0.124  -0.386953  0.074404  3.525309  0.102  -0.466934  -0.323358  0.103969  3.485149  0.128
N  N65  1  0.38696352  0.24801840  0.58260455  1  -0.373979  -0.146555  3.22432  -0.176  -0.345633  -0.096577  3.498749  -0.124  -0.386903  -0.074386  3.52512  -0.102  -0.466791  -0.323233  -0.103943  3.484787  -0.128
N  N66  1  0.71613386  0.99134897  0.34795824  1  -0.185864  0.060297  3.296862  0.074  -0.170149  0.04746  3.641076  0.064  -0.193514  0.039878  3.650888  0.057  -0.282613  -0.157537  0.050315  3.6367  0.065
N  N67  1  0.28389105  0.49134489  0.65204071  1  -0.185609  -0.060283  3.2968  -0.074  -0.169935  -0.047459  3.641012  -0.064  -0.193316  -0.039876  3.65082  -0.057  -0.28246  -0.15732  -0.050314  3.636632  -0.065
Cl  Cl68  1  0.70040800  0.86723130  0.72862359  1  -0.58484  0.070824  0.828968  0.081  -0.579823  0.028331  1.09194  0.035  -0.603128  0.019268  1.065632  0.026  -0.345385  -0.5626  0.033034  1.112826  0.04
Cl  Cl69  1  0.29954989  0.36725028  0.27137408  1  -0.584872  -0.070836  0.828702  -0.081  -0.579804  -0.028333  1.0916  -0.035  -0.603126  -0.019265  1.06526  -0.026  -0.345402  -0.56258  -0.033037  1.112504  -0.04
O  O70  1  0.91779410  0.45204322  0.45494626  1  -0.560203  -0.056805  2.070826  -0.072  -0.522427  -0.042597  2.343317  -0.06  -0.562841  -0.034112  2.331722  -0.051  -0.310029  -0.496544  -0.047343  2.353206  -0.064
O  O71  1  0.08220013  0.95204052  0.54499886  1  -0.560256  0.056772  2.07052  0.072  -0.522467  0.042581  2.342865  0.06  -0.562865  0.034104  2.331271  0.051  -0.310132  -0.496589  0.047324  2.352763  0.064
O  O72  1  0.97575967  0.67794868  0.48183128  1  -0.615186  0.010618  2.102486  0.014  -0.562854  0.012865  2.354556  0.018  -0.596498  0.01065  2.342253  0.016  -0.310736  -0.540317  0.01376  2.363422  0.019
O  O73  1  0.02421889  0.17794783  0.51817335  1  -0.615241  -0.010627  2.102385  -0.014  -0.562861  -0.012869  2.354388  -0.018  -0.596508  -0.010654  2.342002  -0.016  -0.310725  -0.540325  -0.013767  2.363258  -0.019
O  O74  1  0.73729416  0.13146313  0.34078172  1  -0.3755  0.015655  2.045951  0.018  -0.326909  0.010471  2.278437  0.013  -0.34377  0.007195  2.274985  0.009  -0.257116  -0.314261  0.012375  2.280766  0.015
O  O75  1  0.26273364  0.63146406  0.65918836  1  -0.375672  -0.015653  2.046016  -0.018  -0.327051  -0.01047  2.278498  -0.013  -0.343894  -0.007194  2.275084  -0.009  -0.257227  -0.3144  -0.012374  2.280824  -0.015
