# generated using pymatgen
data_ZnH9C13N5O2
_symmetry_space_group_name_H-M   'P 1'
_cell_length_a   8.86942118
_cell_length_b   10.28509243
_cell_length_c   14.44100000
_cell_angle_alpha   90.00000000
_cell_angle_beta   96.31380558
_cell_angle_gamma   90.00000000
_symmetry_Int_Tables_number   1
_chemical_formula_structural   ZnH9C13N5O2
_chemical_formula_sum   'Zn4 H36 C52 N20 O8'
_cell_volume   1309.35829764
_cell_formula_units_Z   4
loop_
 _symmetry_equiv_pos_site_id
 _symmetry_equiv_pos_as_xyz
  1  'x, y, z'
loop_
 _atom_site_type_symbol
 _atom_site_label
 _atom_site_symmetry_multiplicity
 _atom_site_fract_x
 _atom_site_fract_y
 _atom_site_fract_z
 _atom_site_occupancy
 _atom_site_hle17_bader_spin_density
 _atom_site_hle17_ddec_charge
 _atom_site_hle17_ddec_spin_density
 _atom_site_hle17_ddec_sum_bond_order
 _atom_site_hle17_magmom
 _atom_site_hse06_10hf_bader_spin_density
 _atom_site_hse06_10hf_ddec_charge
 _atom_site_hse06_10hf_ddec_spin_density
 _atom_site_hse06_10hf_ddec_sum_bond_order
 _atom_site_hse06_10hf_magmom
 _atom_site_hse06_bader_spin_density
 _atom_site_hse06_ddec_charge
 _atom_site_hse06_ddec_spin_density
 _atom_site_hse06_ddec_sum_bond_order
 _atom_site_hse06_magmom
 _atom_site_pbe_bader_charge
 _atom_site_pbe_bader_spin_density
 _atom_site_pbe_cm5_charge
 _atom_site_pbe_ddec_charge
 _atom_site_pbe_ddec_spin_density
 _atom_site_pbe_ddec_sum_bond_order
 _atom_site_pbe_magmom
Zn  Zn0  1  0.75732362  0.80154846  0.99684000  1  0  0.934382  0  1.964098  0  0  0.734118  0  2.45355  0  0  0.776458  0  2.40474  0  1.233774  0  0.731779  0.704519  0  2.487064  0
Zn  Zn1  1  0.25732383  0.19845130  0.99683919  1  0  0.934376  0  1.964116  0  0  0.73414  0  2.453514  0  0  0.776478  0  2.404703  0  1.233779  0  0.7318  0.704548  0  2.487028  0
Zn  Zn2  1  0.80397376  0.79545809  0.50302605  1  0  0.950491  0  1.904878  0  0  0.746943  0  2.389109  0  0  0.791149  0  2.339296  0  1.234518  0  0.731507  0.71659  0  2.422567  0
Zn  Zn3  1  0.30397169  0.20454070  0.50302577  1  0  0.950477  0  1.904925  0  0  0.746951  0  2.389155  0  0  0.79114  0  2.339327  0  1.234505  0  0.731521  0.716589  0  2.4226  0
H  H4  1  0.00319773  0.44156531  0.22299488  1  0  0.109492  0  0.938172  0  0  0.118137  0  1.000346  0  0  0.121251  0  0.998171  0  0.144151  0  0.113388  0.115711  0  1.002304  0
H  H5  1  0.50319526  0.55843446  0.22299624  1  0  0.109492  0  0.938134  0  0  0.118124  0  1.000327  0  0  0.121236  0  0.998149  0  0.144187  0  0.113386  0.115697  0  1.002284  0
H  H6  1  0.03906814  0.38794401  0.39632139  1  0  0.106824  0  0.963333  0  0  0.112701  0  1.029893  0  0  0.115903  0  1.029243  0  0.10739  0  0.107396  0.110457  0  1.030453  0
H  H7  1  0.53906794  0.61205284  0.39632221  1  0  0.106862  0  0.963336  0  0  0.112744  0  1.029887  0  0  0.115944  0  1.029248  0  0.107293  0  0.107424  0.1105  0  1.030449  0
H  H8  1  0.93004652  0.53593101  0.50590410  1  0  0.095058  0  0.945054  0  0  0.103877  0  1.006915  0  0  0.107177  0  1.003109  0  0.175544  0  0.121208  0.101361  0  1.009779  0
H  H9  1  0.43004559  0.46406486  0.50590390  1  0  0.09505  0  0.945075  0  0  0.103856  0  1.006946  0  0  0.107159  0  1.003131  0  0.175543  0  0.12119  0.101339  0  1.00981  0
H  H10  1  0.75074440  0.77908877  0.29043342  1  0  0.099592  0  0.920279  0  0  0.107472  0  0.983303  0  0  0.110615  0  0.980474  0  0.125439  0  0.125952  0.105142  0  0.985367  0
H  H11  1  0.25074346  0.22090905  0.29043253  1  0  0.099557  0  0.920316  0  0  0.107492  0  0.983283  0  0  0.110636  0  0.980453  0  0.125424  0  0.125974  0.105163  0  0.985345  0
H  H12  1  0.54632891  0.43230628  0.70027916  1  0  0.10933  0  0.933977  0  0  0.119255  0  0.994653  0  0  0.122484  0  0.991745  0  0.123491  0  0.115151  0.116959  0  0.996593  0
H  H13  1  0.04632684  0.56769349  0.70027889  1  0  0.109287  0  0.934019  0  0  0.119224  0  0.994679  0  0  0.122453  0  0.991772  0  0.123481  0  0.115148  0.116932  0  0.996615  0
H  H14  1  0.50611961  0.38560859  0.86772323  1  0  0.109624  0  0.975304  0  0  0.110899  0  1.049313  0  0  0.114343  0  1.048218  0  0.131135  0  0.107889  0.108135  0  1.050683  0
H  H15  1  0.00611982  0.61439312  0.86772310  1  0  0.109615  0  0.975344  0  0  0.110933  0  1.049302  0  0  0.114378  0  1.048208  0  0.131118  0  0.107901  0.10817  0  1.050672  0
H  H16  1  0.59796791  0.54714725  0.98984075  1  0  0.100934  0  0.925928  0  0  0.109658  0  0.986385  0  0  0.112738  0  0.983168  0  0.13535  0  0.125995  0.107358  0  0.988672  0
H  H17  1  0.09796925  0.45285446  0.98984070  1  0  0.10095  0  0.92589  0  0  0.109673  0  0.986343  0  0  0.112753  0  0.983128  0  0.135362  0  0.126006  0.107374  0  0.98863  0
H  H18  1  0.77920977  0.78257537  0.79484484  1  0  0.096426  0  0.931947  0  0  0.102137  0  0.999962  0  0  0.105498  0  0.996299  0  0.150602  0  0.124729  0.099534  0  1.002938  0
H  H19  1  0.27920997  0.21742731  0.79484471  1  0  0.096399  0  0.932019  0  0  0.10216  0  0.999981  0  0  0.105521  0  0.99632  0  0.150607  0  0.124739  0.099557  0  1.002957  0
H  H20  1  0.98853359  0.93439413  0.19314657  1  0  0.096444  0  0.952804  0  0  0.105721  0  1.015953  0  0  0.107913  0  1.016161  0  0.093697  0  0.100823  0.104165  0  1.016002  0
H  H21  1  0.48853379  0.06560466  0.19314575  1  0  0.096414  0  0.95282  0  0  0.105662  0  1.016005  0  0  0.107853  0  1.016216  0  0.093722  0  0.100799  0.104105  0  1.016053  0
H  H22  1  0.85616405  0.05134130  0.31210760  1  0  0.084309  0  1.003527  0  0  0.082853  0  1.083226  0  0  0.08623  0  1.081621  0  0.11197  0  0.092557  0.080556  0  1.08424  0
H  H23  1  0.35616425  0.94865847  0.31210817  1  0  0.084326  0  1.003525  0  0  0.082875  0  1.083221  0  0  0.086252  0  1.081616  0  0.111958  0  0.092564  0.080578  0  1.084235  0
H  H24  1  0.72266357  0.25798212  0.27233494  1  0  0.085339  0  0.954904  0  0  0.092933  0  1.020561  0  0  0.095796  0  1.019647  0  0.070669  0  0.096436  0.09081  0  1.021463  0
H  H25  1  0.22266150  0.74201861  0.27233605  1  0  0.085313  0  0.954916  0  0  0.092914  0  1.020568  0  0  0.095776  0  1.019654  0  0.070634  0  0.096419  0.090791  0  1.02147  0
H  H26  1  0.72404294  0.35350679  0.11328886  1  0  0.096231  0  0.951512  0  0  0.107081  0  1.010198  0  0  0.109703  0  1.009557  0  0.08664  0  0.09979  0.105439  0  1.010233  0
H  H27  1  0.22403860  0.64649200  0.11329050  1  0  0.096225  0  0.951528  0  0  0.107072  0  1.010223  0  0  0.109695  0  1.009582  0  0.086683  0  0.099807  0.105431  0  1.010259  0
H  H28  1  0.85757291  0.23844219  0.99475452  1  0  0.091509  0  0.945526  0  0  0.103382  0  1.004837  0  0  0.106097  0  1.003948  0  0.052882  0  0.101493  0.101396  0  1.00558  0
H  H29  1  0.35756971  0.76155563  0.99475486  1  0  0.091543  0  0.945486  0  0  0.10342  0  1.004786  0  0  0.106135  0  1.003898  0  0.052888  0  0.101511  0.101434  0  1.005531  0
H  H30  1  0.00350968  0.93949861  0.69650255  1  0  0.101867  0  0.949681  0  0  0.110986  0  1.012806  0  0  0.113765  0  1.011792  0  0.095731  0  0.102114  0.108939  0  1.01379  0
H  H31  1  0.50351174  0.06050602  0.69650214  1  0  0.10179  0  0.949677  0  0  0.11091  0  1.012818  0  0  0.113688  0  1.011805  0  0.095638  0  0.102079  0.108864  0  1.013801  0
H  H32  1  0.85854051  0.04761163  0.81385319  1  0  0.082695  0  0.999417  0  0  0.082479  0  1.079139  0  0  0.08546  0  1.078087  0  0.080535  0  0.09313  0.080346  0  1.07999  0
H  H33  1  0.35854072  0.95239494  0.81385375  1  0  0.082614  0  0.999453  0  0  0.082408  0  1.079172  0  0  0.085389  0  1.078121  0  0.08048  0  0.093092  0.080276  0  1.080022  0
H  H34  1  0.73080480  0.25651009  0.77817810  1  0  0.082323  0  0.971525  0  0  0.091922  0  1.036714  0  0  0.09448  0  1.035609  0  0.065841  0  0.095752  0.090066  0  1.037637  0
H  H35  1  0.23080840  0.74349356  0.77818236  1  0  0.082349  0  0.971567  0  0  0.091917  0  1.036773  0  0  0.094471  0  1.035666  0  0.06582  0  0.095753  0.090063  0  1.037692  0
H  H36  1  0.74485032  0.36294764  0.62236202  1  0  0.091871  0  0.981689  0  0  0.10207  0  1.044312  0  0  0.104747  0  1.04349  0  0.118395  0  0.095998  0.100162  0  1.044922  0
H  H37  1  0.24485392  0.63705213  0.62236628  1  0  0.091792  0  0.981668  0  0  0.102005  0  1.044284  0  0  0.104683  0  1.043463  0  0.11843  0  0.095939  0.100099  0  1.044885  0
H  H38  1  0.88606664  0.25533266  0.50552406  1  0  0.093533  0  0.947353  0  0  0.105877  0  1.007375  0  0  0.108471  0  1.006515  0  0.079009  0  0.102619  0.104083  0  1.007866  0
H  H39  1  0.38606912  0.74466613  0.50552686  1  0  0.09347  0  0.947365  0  0  0.105837  0  1.007379  0  0  0.108432  0  1.006518  0  0.079012  0  0.102597  0.104042  0  1.007872  0
C  C40  1  0.84837447  0.64752456  0.14326694  1  0  0.630501  0  3.950782  0  0  0.583333  0  4.240608  0  0  0.617225  0  4.234325  0  1.562906  0  0.200169  0.560522  0  4.243688  0
C  C41  1  0.34837241  0.35247520  0.14326528  1  0  0.630416  0  3.95081  0  0  0.583265  0  4.24063  0  0  0.617159  0  4.234349  0  1.563287  0  0.200127  0.560453  0  4.24371  0
C  C42  1  0.87146189  0.61216076  0.24473080  1  0  -0.106264  0  3.734862  0  0  -0.077692  0  3.964666  0  0  -0.091179  0  3.989017  0  0.071552  0  -0.007998  -0.069079  0  3.948457  0
C  C43  1  0.37146436  0.38783803  0.24473013  1  0  -0.106239  0  3.734837  0  0  -0.077697  0  3.964657  0  0  -0.091189  0  3.989017  0  0.071521  0  -0.008075  -0.069081  0  3.948445  0
C  C44  1  0.95546276  0.50191284  0.27456632  1  0  0.00134  0  3.678454  0  0  -0.027691  0  3.919987  0  0  -0.021803  0  3.938489  0  -0.069825  0  -0.050415  -0.031528  0  3.908215  0
C  C45  1  0.45546409  0.49808400  0.27456765  1  0  0.001351  0  3.678376  0  0  -0.02764  0  3.919886  0  0  -0.021746  0  3.938385  0  -0.069818  0  -0.050394  -0.031477  0  3.908114  0
C  C46  1  0.97486127  0.47223299  0.36911596  1  0  -0.107437  0  3.711462  0  0  -0.116459  0  3.959475  0  0  -0.125429  0  3.981818  0  -0.051913  0  -0.077828  -0.110895  0  3.945004  0
C  C47  1  0.47486261  0.52776580  0.36911660  1  0  -0.107487  0  3.711503  0  0  -0.11653  0  3.959512  0  0  -0.125504  0  3.981854  0  -0.051814  0  -0.077848  -0.110967  0  3.945044  0
C  C48  1  0.91392060  0.55499161  0.43135252  1  0  0.151971  0  3.646521  0  0  0.116685  0  3.891809  0  0  0.126311  0  3.906834  0  0.470205  0  0.05739  0.110449  0  3.881905  0
C  C49  1  0.41391967  0.44500718  0.43135232  1  0  0.15202  0  3.646595  0  0  0.116754  0  3.891862  0  0  0.12638  0  3.906884  0  0.470211  0  0.057422  0.110518  0  3.881958  0
C  C50  1  0.81412392  0.69101761  0.31133507  1  0  0.13138  0  3.647559  0  0  0.086308  0  3.90013  0  0  0.09599  0  3.915923  0  0.44332  0  0.060685  0.080233  0  3.889098  0
C  C51  1  0.31412639  0.30898215  0.31133440  1  0  0.131415  0  3.647567  0  0  0.086298  0  3.900145  0  0  0.09598  0  3.91594  0  0.443342  0  0.060708  0.080222  0  3.889111  0
C  C52  1  0.70387647  0.63788245  0.63821854  1  0  0.634723  0  3.951911  0  0  0.584077  0  4.245779  0  0  0.618103  0  4.239947  0  1.587271  0  0.20366  0.56122  0  4.24864  0
C  C53  1  0.20387554  0.36211828  0.63821695  1  0  0.634633  0  3.951964  0  0  0.583989  0  4.245826  0  0  0.618015  0  4.239996  0  1.587282  0  0.203629  0.561131  0  4.248686  0
C  C54  1  0.66948979  0.60933531  0.73579621  1  0  -0.105714  0  3.733938  0  0  -0.076743  0  3.963034  0  0  -0.090525  0  3.988875  0  -0.005752  0  -0.0066  -0.067962  0  3.945932  0
C  C55  1  0.16949000  0.39066640  0.73579539  1  0  -0.105786  0  3.734036  0  0  -0.076766  0  3.963065  0  0  -0.090549  0  3.98891  0  -0.005756  0  -0.006634  -0.067984  0  3.945965  0
C  C56  1  0.58821704  0.49837860  0.75635616  1  0  0.002418  0  3.665928  0  0  -0.027266  0  3.910225  0  0  -0.021382  0  3.928163  0  -0.024516  0  -0.049987  -0.030848  0  3.898183  0
C  C57  1  0.08821611  0.50162213  0.75635526  1  0  0.002503  0  3.665976  0  0  -0.027203  0  3.910276  0  0  -0.02132  0  3.928219  0  -0.024354  0  -0.049995  -0.030787  0  3.898234  0
C  C58  1  0.56321937  0.47355724  0.84833851  1  0  -0.114599  0  3.715833  0  0  -0.12325  0  3.965067  0  0  -0.132199  0  3.987322  0  -0.008556  0  -0.076665  -0.11756  0  3.950592  0
C  C59  1  0.06321958  0.52644447  0.84833769  1  0  -0.114675  0  3.715918  0  0  -0.123378  0  3.965178  0  0  -0.13233  0  3.987434  0  -0.008753  0  -0.076704  -0.117688  0  3.950701  0
C  C60  1  0.61589971  0.56221274  0.91707230  1  0  0.14695  0  3.649194  0  0  0.114632  0  3.89041  0  0  0.123582  0  3.906334  0  0.466363  0  0.06122  0.108824  0  3.879587  0
C  C61  1  0.11590105  0.43778897  0.91707156  1  0  0.147025  0  3.649114  0  0  0.114721  0  3.890329  0  0  0.123662  0  3.906248  0  0.466378  0  0.061266  0.10891  0  3.87951  0
C  C62  1  0.71729469  0.69425045  0.80833960  1  0  0.133195  0  3.650374  0  0  0.090075  0  3.8987  0  0  0.099162  0  3.915594  0  0.442639  0  0.060686  0.08396  0  3.887507  0
C  C63  1  0.21729376  0.30575126  0.80833870  1  0  0.133209  0  3.650457  0  0  0.090045  0  3.898754  0  0  0.099122  0  3.915644  0  0.442655  0  0.060671  0.083929  0  3.88756  0
C  C64  1  0.99807914  0.00656776  0.01409670  1  0  0.318848  0  3.7702  0  0  0.284636  0  4.032517  0  0  0.298791  0  4.047922  0  0.95855  0  0.23681  0.275263  0  4.022146  0
C  C65  1  0.49807707  0.99343006  0.01409573  1  0  0.318782  0  3.770309  0  0  0.284603  0  4.032575  0  0  0.29876  0  4.047978  0  0.958539  0  0.236773  0.275231  0  4.022202  0
C  C66  1  0.92917987  0.07848252  0.08639331  1  0  -0.017755  0  3.812961  0  0  0.004633  0  4.046985  0  0  0.001858  0  4.068815  0  0.10574  0  -0.013334  0.006382  0  4.032454  0
C  C67  1  0.42917894  0.92151432  0.08639172  1  0  -0.017764  0  3.812948  0  0  0.004629  0  4.046923  0  0  0.001853  0  4.06875  0  0.105719  0  -0.013399  0.006377  0  4.032393  0
C  C68  1  0.93021100  0.02596768  0.17599415  1  0  -0.083878  0  3.726426  0  0  -0.104149  0  3.966652  0  0  -0.105084  0  3.987179  0  -0.100175  0  -0.087038  -0.103856  0  3.953694  0
C  C69  1  0.43020893  0.97403111  0.17599180  1  0  -0.083827  0  3.726252  0  0  -0.104069  0  3.966473  0  0  -0.105004  0  3.987  0  -0.100131  0  -0.08698  -0.103775  0  3.953515  0
C  C70  1  0.85821609  0.09227627  0.24285419  1  0  -0.07064  0  3.774372  0  0  -0.080855  0  4.022366  0  0  -0.083924  0  4.044166  0  -0.012167  0  -0.096136  -0.078731  0  4.007883  0
C  C71  1  0.35821629  0.90772252  0.24285407  1  0  -0.070681  0  3.774377  0  0  -0.080913  0  4.022389  0  0  -0.083981  0  4.044188  0  -0.012103  0  -0.096151  -0.078786  0  4.0079  0
C  C72  1  0.78282834  0.20922223  0.22022602  1  0  -0.06901  0  3.759691  0  0  -0.080821  0  4.003372  0  0  -0.082472  0  4.025287  0  -0.07478  0  -0.091459  -0.07962  0  3.988407  0
C  C73  1  0.28282514  0.79077753  0.22022635  1  0  -0.068943  0  3.759652  0  0  -0.080759  0  4.003337  0  0  -0.082408  0  4.025251  0  -0.07481  0  -0.091413  -0.079557  0  3.988372  0
C  C74  1  0.78368818  0.26282700  0.13131726  1  0  -0.065358  0  3.762718  0  0  -0.076808  0  4.011504  0  0  -0.079438  0  4.033799  0  -0.050797  0  -0.091848  -0.074666  0  3.995464  0
C  C75  1  0.28368611  0.73717179  0.13131768  1  0  -0.065349  0  3.762564  0  0  -0.0768  0  4.011357  0  0  -0.07943  0  4.033651  0  -0.050898  0  -0.091844  -0.074659  0  3.99532  0
C  C76  1  0.85833179  0.19842700  0.06471160  1  0  -0.087451  0  3.734787  0  0  -0.112607  0  3.984807  0  0  -0.113641  0  4.004982  0  -0.089247  0  -0.089445  -0.111651  0  3.970572  0
C  C77  1  0.35832859  0.80157179  0.06471125  1  0  -0.087525  0  3.734702  0  0  -0.112684  0  3.98472  0  0  -0.113719  0  4.004897  0  -0.089257  0  -0.089498  -0.111727  0  3.970481  0
C  C78  1  0.02839958  0.02459676  0.52174303  1  0  0.328305  0  3.768785  0  0  0.29397  0  4.030176  0  0  0.308774  0  4.045692  0  0.980266  0  0.236172  0.284203  0  4.019906  0
C  C79  1  0.52839938  0.97540397  0.52174315  1  0  0.328295  0  3.768875  0  0  0.293941  0  4.030269  0  0  0.308745  0  4.045787  0  0.980268  0  0.236202  0.284173  0  4.02  0
C  C80  1  0.95397449  0.09125635  0.59387373  1  0  -0.023729  0  3.815874  0  0  -0.000903  0  4.048803  0  0  -0.004326  0  4.071628  0  -0.033082  0  -0.015164  0.001098  0  4.033667  0
C  C81  1  0.45397583  0.90874439  0.59387576  1  0  -0.02369  0  3.815786  0  0  -0.000848  0  4.048707  0  0  -0.00427  0  4.071533  0  -0.03306  0  -0.015184  0.001155  0  4.033572  0
C  C82  1  0.94680653  0.03217181  0.68087590  1  0  -0.085864  0  3.71836  0  0  -0.106384  0  3.960778  0  0  -0.107186  0  3.980957  0  -0.036154  0  -0.087604  -0.10602  0  3.94799  0
C  C83  1  0.44680447  0.96783282  0.68087562  1  0  -0.085775  0  3.718183  0  0  -0.106293  0  3.960598  0  0  -0.107094  0  3.980777  0  -0.036151  0  -0.087548  -0.10593  0  3.947813  0
C  C84  1  0.86757561  0.09307063  0.74674515  1  0  -0.069993  0  3.777607  0  0  -0.082893  0  4.030537  0  0  -0.086023  0  4.052593  0  -0.006876  0  -0.097013  -0.080787  0  4.016022  0
C  C85  1  0.36757695  0.90693303  0.74674649  1  0  -0.069893  0  3.777245  0  0  -0.082812  0  4.030192  0  0  -0.08594  0  4.052244  0  -0.006802  0  -0.096994  -0.080704  0  4.015672  0
C  C86  1  0.79464486  0.21166363  0.72628002  1  0  -0.068975  0  3.76554  0  0  -0.082738  0  4.010628  0  0  -0.08369  0  4.032276  0  -0.052468  0  -0.093806  -0.082174  0  3.995836  0
C  C87  1  0.29464847  0.78833905  0.72628290  1  0  -0.069013  0  3.765568  0  0  -0.082732  0  4.010665  0  0  -0.083678  0  4.032307  0  -0.052297  0  -0.093781  -0.082169  0  3.995875  0
C  C88  1  0.80218148  0.27095819  0.63985742  1  0  -0.077686  0  3.76551  0  0  -0.088867  0  4.013156  0  0  -0.092197  0  4.035934  0  -0.059923  0  -0.097738  -0.08618  0  3.996872  0
C  C89  1  0.30218622  0.72904255  0.63986037  1  0  -0.077677  0  3.765625  0  0  -0.088874  0  4.013285  0  0  -0.092206  0  4.036063  0  -0.060036  0  -0.097721  -0.086183  0  3.99699  0
C  C90  1  0.88220759  0.21109679  0.57375935  1  0  -0.080555  0  3.731835  0  0  -0.105395  0  3.980167  0  0  -0.106248  0  4.000947  0  -0.0669  0  -0.088773  -0.104358  0  3.965448  0
C  C91  1  0.38220779  0.78890297  0.57376131  1  0  -0.08046  0  3.731774  0  0  -0.105328  0  3.980103  0  0  -0.106181  0  4.000884  0  -0.066938  0  -0.088714  -0.104294  0  3.965388  0
N  N92  1  0.83627323  0.66325413  0.40299939  1  0  -0.34344  0  3.355305  0  0  -0.255765  0  3.643043  0  0  -0.275567  0  3.655293  0  -1.260461  0  -0.335413  -0.242639  0  3.634446  0
N  N93  1  0.33627343  0.33674466  0.40299996  1  0  -0.343504  0  3.355442  0  0  -0.255827  0  3.643193  0  0  -0.275625  0  3.655436  0  -1.26047  0  -0.335456  -0.242698  0  3.63459  0
N  N94  1  0.69035275  0.67125989  0.89674904  1  0  -0.332893  0  3.34457  0  0  -0.245109  0  3.630118  0  0  -0.264326  0  3.642568  0  -1.267124  0  -0.335877  -0.232045  0  3.621438  0
N  N95  1  0.19035409  0.32874182  0.89674760  1  0  -0.332906  0  3.344596  0  0  -0.245141  0  3.63016  0  0  -0.264334  0  3.642584  0  -1.267094  0  -0.33589  -0.232079  0  3.621481  0
N  N96  1  0.95181128  0.89062982  0.97841012  1  0  -0.343944  0  3.229625  0  0  -0.273757  0  3.542547  0  0  -0.291808  0  3.551447  0  -0.76618  0  -0.244551  -0.261191  0  3.536112  0
N  N97  1  0.45180922  0.10936897  0.97840915  1  0  -0.343905  0  3.229605  0  0  -0.273716  0  3.542504  0  0  -0.291769  0  3.551406  0  -0.766189  0  -0.244537  -0.261162  0  3.536094  0
N  N98  1  0.04188927  0.86072245  0.91140149  1  0  -0.079874  0  2.949717  0  0  -0.070219  0  3.242597  0  0  -0.069588  0  3.253992  0  -0.130195  0  -0.084852  -0.070333  0  3.234786  0
N  N99  1  0.54188906  0.13927536  0.91140162  1  0  -0.079856  0  2.94971  0  0  -0.070224  0  3.242625  0  0  -0.069594  0  3.25402  0  -0.130138  0  -0.084889  -0.070337  0  3.234814  0
N  N100  1  0.14003661  0.95400698  0.90672476  1  0  -0.062185  0  2.969383  0  0  -0.05523  0  3.267338  0  0  -0.054657  0  3.280436  0  -0.091699  0  -0.080299  -0.055453  0  3.258578  0
N  N101  1  0.64003640  0.04599084  0.90672627  1  0  -0.062152  0  2.96936  0  0  -0.055181  0  3.267306  0  0  -0.054608  0  3.280402  0  -0.091677  0  -0.080261  -0.055404  0  3.258546  0
N  N102  1  0.11507411  0.04653531  0.97015468  1  0  -0.351778  0  3.231014  0  0  -0.27993  0  3.536764  0  0  -0.298849  0  3.548494  0  -0.780816  0  -0.243263  -0.267045  0  3.528832  0
N  N103  1  0.61507277  0.95346251  0.97015542  1  0  -0.351808  0  3.231058  0  0  -0.279974  0  3.536816  0  0  -0.298893  0  3.548544  0  -0.780873  0  -0.243223  -0.267087  0  3.528883  0
N  N104  1  0.99037123  0.90553877  0.48857919  1  0  -0.358184  0  3.208085  0  0  -0.286124  0  3.513807  0  0  -0.305694  0  3.525036  0  -0.801382  0  -0.24165  -0.272543  0  3.505565  0
N  N105  1  0.49036917  0.09446099  0.48857891  1  0  -0.358182  0  3.208041  0  0  -0.286101  0  3.513748  0  0  -0.305666  0  3.524968  0  -0.801397  0  -0.241662  -0.27252  0  3.505504  0
N  N106  1  0.07866602  0.87998140  0.41966977  1  0  -0.064315  0  2.950673  0  0  -0.060512  0  3.242113  0  0  -0.059355  0  3.255233  0  -0.103721  0  -0.08649  -0.061168  0  3.23299  0
N  N107  1  0.57866581  0.12001837  0.41966920  1  0  -0.064387  0  2.950563  0  0  -0.060599  0  3.242011  0  0  -0.059443  0  3.25513  0  -0.103709  0  -0.086535  -0.061255  0  3.232888  0
N  N108  1  0.16759223  0.97855611  0.41150683  1  0  -0.067263  0  2.984084  0  0  -0.057244  0  3.278885  0  0  -0.057018  0  3.292017  0  -0.088873  0  -0.081529  -0.057448  0  3.270332  0
N  N109  1  0.66759203  0.02144269  0.41150765  1  0  -0.067213  0  2.984059  0  0  -0.057183  0  3.278843  0  0  -0.056957  0  3.291978  0  -0.088858  0  -0.081511  -0.057386  0  3.270292  0
N  N110  1  0.13906447  0.07141696  0.47439194  1  0  -0.364329  0  3.201559  0  0  -0.290817  0  3.50864  0  0  -0.310326  0  3.518789  0  -0.791524  0  -0.247317  -0.277961  0  3.501961  0
N  N111  1  0.63906313  0.92858281  0.47439199  1  0  -0.36435  0  3.20168  0  0  -0.290829  0  3.50875  0  0  -0.310346  0  3.518911  0  -0.791521  0  -0.247319  -0.277977  0  3.502077  0
O  O112  1  0.74675375  0.73744986  0.12278835  1  0  -0.639721  0  2.04536  0  0  -0.566675  0  2.318765  0  0  -0.595548  0  2.305946  0  -1.157677  0  -0.337929  -0.546218  0  2.326407  0
O  O113  1  0.24675282  0.26254893  0.12278746  1  0  -0.639703  0  2.045441  0  0  -0.566686  0  2.318839  0  0  -0.595559  0  2.306023  0  -1.157705  0  -0.337899  -0.54623  0  2.32648  0
O  O114  1  0.92447346  0.59329656  0.08665779  1  0  -0.60667  0  1.8878  0  0  -0.565868  0  2.106179  0  0  -0.588322  0  2.098161  0  -1.174676  0  -0.321787  -0.550406  0  2.110863  0
O  O115  1  0.42446912  0.40670709  0.08665666  1  0  -0.606626  0  1.887788  0  0  -0.56581  0  2.106138  0  0  -0.588265  0  2.09812  0  -1.175018  0  -0.321754  -0.550347  0  2.110822  0
O  O116  1  0.79755561  0.73385534  0.63083228  1  0  -0.641102  0  2.034286  0  0  -0.565668  0  2.310649  0  0  -0.594363  0  2.296067  0  -1.16291  0  -0.334445  -0.545348  0  2.319159  0
O  O117  1  0.29755354  0.26614637  0.63083131  1  0  -0.641007  0  2.034342  0  0  -0.565607  0  2.310728  0  0  -0.594298  0  2.29614  0  -1.162868  0  -0.334412  -0.545278  0  2.319218  0
O  O118  1  0.64415069  0.57101966  0.57215339  1  0  -0.607263  0  1.956741  0  0  -0.564412  0  2.191283  0  0  -0.587902  0  2.183714  0  -1.185205  0  -0.308237  -0.54817  0  2.195853  0
O  O119  1  0.14414862  0.42898107  0.57215242  1  0  -0.607205  0  1.956625  0  0  -0.564359  0  2.191158  0  0  -0.587846  0  2.183589  0  -1.185267  0  -0.308224  -0.548118  0  2.195727  0
