# generated using pymatgen
data_AlH5C10SNO5F
_symmetry_space_group_name_H-M   'P 1'
_cell_length_a   6.61481946
_cell_length_b   11.22405390
_cell_length_c   12.15557022
_cell_angle_alpha   73.69563821
_cell_angle_beta   81.14194998
_cell_angle_gamma   70.74648631
_symmetry_Int_Tables_number   1
_chemical_formula_structural   AlH5C10SNO5F
_chemical_formula_sum   'Al2 H10 C20 S2 N2 O10 F2'
_cell_volume   815.86886586
_cell_formula_units_Z   2
loop_
 _symmetry_equiv_pos_site_id
 _symmetry_equiv_pos_as_xyz
  1  'x, y, z'
loop_
 _atom_site_type_symbol
 _atom_site_label
 _atom_site_symmetry_multiplicity
 _atom_site_fract_x
 _atom_site_fract_y
 _atom_site_fract_z
 _atom_site_occupancy
 _atom_site_pbe_bader_charge
 _atom_site_pbe_bader_spin_density
 _atom_site_pbe_cm5_charge
 _atom_site_pbe_ddec_charge
 _atom_site_pbe_ddec_spin_density
 _atom_site_pbe_ddec_sum_bond_order
 _atom_site_pbe_magmom
Al  Al0  1  0.49963336  0.49522938  0.50516750  1  2.498641  0  0.381252  1.624535  0  2.611537  0
Al  Al1  1  0.00063118  0.49375118  0.50501879  1  2.497329  0  0.393486  1.620219  0  2.569248  0
H  H2  1  0.32445577  0.32595035  0.56824602  1  0.647049  0  0.34889  0.427885  0  0.86177  0
H  H3  1  0.68090570  0.66217586  0.44985830  1  0.640717  0  0.342021  0.412619  0  0.89024  0
H  H4  1  0.22059313  0.25501383  0.35501023  1  0.125879  0  0.102217  0.108933  0  1.047475  0
H  H5  1  0.54363692  0.15621909  0.24282445  1  0.066856  0  0.102215  0.101438  0  0.994324  0
H  H6  1  0.41368197  0.78794926  0.35262433  1  0.072116  0  0.107586  0.108126  0  1.042296  0
H  H7  1  0.63941667  0.92152193  0.24033512  1  0.084542  0  0.106185  0.106362  0  0.98163  0
H  H8  1  0.16304629  0.41521078  0.88094216  1  0.476789  0  0.28385  0.271176  0  1.030329  0
H  H9  1  0.32812924  0.41154713  0.75500342  1  0.509198  0  0.311299  0.325111  0  0.957624  0
H  H10  1  0.83876112  0.57728207  0.12889751  1  0.464398  0  0.284016  0.271376  0  1.029227  0
H  H11  1  0.67430559  0.57942054  0.25498256  1  0.520248  0  0.310054  0.322971  0  0.959767  0
C  C12  1  0.86535874  0.27358758  0.48973270  1  1.600803  0  0.276579  0.677918  0  4.071074  0
C  C13  1  0.71103439  0.46796853  0.70701166  1  1.525969  0  0.242563  0.645494  0  4.158717  0
C  C14  1  0.13393101  0.71905950  0.50914839  1  1.604175  0  0.277093  0.67901  0  4.070796  0
C  C15  1  0.29032065  0.52309329  0.30180544  1  1.500489  0  0.240625  0.641424  0  4.169131  0
C  C16  1  0.44597359  0.45292812  0.88047708  1  0.525868  0  0.114957  0.293379  0  4.094739  0
C  C17  1  0.55574024  0.54038373  0.12823120  1  0.528129  0  0.115703  0.295879  0  4.091397  0
C  C18  1  0.63435754  0.47909165  0.82196703  1  -0.09326  0  -0.045603  -0.266567  0  3.936149  0
C  C19  1  0.36755347  0.51363734  0.18665363  1  -0.098202  0  -0.049679  -0.276276  0  3.949733  0
C  C20  1  0.58148479  0.51816208  0.01588706  1  -0.123106  0  -0.02656  -0.104741  0  4.066194  0
C  C21  1  0.42067820  0.47566387  0.99250506  1  -0.158417  0  -0.025999  -0.102107  0  4.064378  0
C  C22  1  0.93935737  0.13321354  0.48732719  1  0.063192  0  -0.013623  -0.178424  0  3.949677  0
C  C23  1  0.13374795  0.07669075  0.42536292  1  0.027088  0  0.001543  0.074926  0  3.955885  0
C  C24  1  0.81300931  0.05614965  0.54633607  1  0.456418  0  0.101959  0.165814  0  4.0742  0
C  C25  1  0.26495202  0.15194780  0.35762501  1  -0.038088  0  -0.092844  -0.135577  0  3.970782  0
C  C26  1  0.44577203  0.09635674  0.29441053  1  -0.096846  0  -0.091479  -0.081299  0  4.037479  0
C  C27  1  0.06389304  0.86308228  0.49563381  1  0.093377  0  -0.013323  -0.177816  0  3.957628  0
C  C28  1  0.87549662  0.92190564  0.55156423  1  0.561874  0  0.101544  0.1665  0  4.090283  0
C  C29  1  0.19356235  0.94079001  0.42754432  1  0.015392  0  0.000922  0.072773  0  3.961503  0
C  C30  1  0.37617916  0.88826110  0.35794790  1  -0.039202  0  -0.09231  -0.136525  0  3.967499  0
C  C31  1  0.50052622  0.96398755  0.29348407  1  -0.032446  0  -0.089738  -0.074588  0  4.025894  0
S  S32  1  0.76891739  0.53394356  0.90166065  1  0.212345  0  0.064665  0.099548  0  2.867416  0
S  S33  1  0.23277094  0.45970471  0.10629399  1  0.177273  0  0.068506  0.099343  0  2.901097  0
N  N34  1  0.31036560  0.41030434  0.84001271  1  -1.293101  0  -0.572354  -0.561192  0  3.350698  0
N  N35  1  0.69104576  0.58268523  0.16953083  1  -1.285045  0  -0.573491  -0.562991  0  3.349643  0
O  O36  1  0.67244634  0.33646855  0.46596399  1  -1.257156  0  -0.232354  -0.58681  0  2.332433  0
O  O37  1  0.88717275  0.49104244  0.66216769  1  -1.262653  0  -0.251041  -0.593323  0  2.294903  0
O  O38  1  0.00144158  0.66951943  0.48818365  1  -1.256573  0  -0.226414  -0.585774  0  2.35075  0
O  O39  1  0.40499586  0.56038604  0.35459407  1  -1.277067  0  -0.255233  -0.63155  0  2.40364  0
O  O40  1  0.32384163  0.65699019  0.53911889  1  -1.256766  0  -0.231366  -0.581924  0  2.317759  0
O  O41  1  0.11654459  0.49639705  0.34669117  1  -1.263761  0  -0.252957  -0.596982  0  2.304286  0
O  O42  1  0.99755462  0.31941097  0.51673736  1  -1.257147  0  -0.22504  -0.581252  0  2.337691  0
O  O43  1  0.59298445  0.43237628  0.65478718  1  -1.269957  0  -0.252822  -0.62912  0  2.38106  0
O  O44  1  0.27655049  0.41995831  0.55730578  1  -1.446551  0  -0.445529  -0.975469  0  2.171741  0
O  O45  1  0.72420130  0.56984877  0.45207755  1  -1.446138  0  -0.448838  -0.975438  0  2.183783  0
F  F46  1  0.74861177  0.85263351  0.61761394  1  -0.620855  0  -0.086628  -0.108115  0  1.370635  0
F  F47  1  0.62844903  0.10425720  0.60700635  1  -0.623819  0  -0.084501  -0.108901  0  1.36609  0
