# generated using pymatgen
data_Zr6H69C70ClO32
_symmetry_space_group_name_H-M   'P 1'
_cell_length_a   14.73035991
_cell_length_b   14.82438323
_cell_length_c   14.71107013
_cell_angle_alpha   60.27997985
_cell_angle_beta   60.55110720
_cell_angle_gamma   60.05669629
_symmetry_Int_Tables_number   1
_chemical_formula_structural   Zr6H69C70ClO32
_chemical_formula_sum   'Zr6 H69 C70 Cl1 O32'
_cell_volume   2286.66139751
_cell_formula_units_Z   1
loop_
 _symmetry_equiv_pos_site_id
 _symmetry_equiv_pos_as_xyz
  1  'x, y, z'
loop_
 _atom_site_type_symbol
 _atom_site_label
 _atom_site_symmetry_multiplicity
 _atom_site_fract_x
 _atom_site_fract_y
 _atom_site_fract_z
 _atom_site_occupancy
 _atom_site_pbe_bader_charge
 _atom_site_pbe_bader_spin_density
 _atom_site_pbe_cm5_charge
 _atom_site_pbe_ddec_charge
 _atom_site_pbe_ddec_spin_density
 _atom_site_pbe_ddec_sum_bond_order
 _atom_site_pbe_magmom
Zr  Zr0  1  0.88091130  0.88487731  0.62022318  1  2.631897  0  1.624172  2.365991  0  2.738242  0
Zr  Zr1  1  0.11820844  0.12353418  0.38301454  1  2.631462  0  1.630537  2.373355  0  2.752577  0
Zr  Zr2  1  0.12118412  0.88788288  0.61972673  1  2.630849  0  1.629412  2.365002  0  2.756868  0
Zr  Zr3  1  0.87832280  0.12372416  0.38226793  1  2.628425  0  1.630822  2.364679  0  2.764964  0
Zr  Zr4  1  0.11826918  0.88506498  0.38239275  1  2.626615  0  1.629394  2.365654  0  2.762757  0
Zr  Zr5  1  0.87794148  0.12392342  0.62122935  1  2.631647  0  1.626817  2.367918  0  2.745522  0
H  H6  1  0.09506154  0.72425911  0.59493794  1  0.612466  0  0.330021  0.417793  0  0.865752  0
H  H7  1  0.09323604  0.10063948  0.21915433  1  0.591867  0  0.322218  0.407777  0  0.889734  0
H  H8  1  0.09674624  0.09834871  0.59381520  1  0.616305  0  0.326696  0.415972  0  0.875225  0
H  H9  1  0.71673459  0.09278481  0.59379267  1  0.599048  0  0.32973  0.41845  0  0.869606  0
H  H10  1  0.16988628  0.55812612  0.88968047  1  0.107704  0  0.108524  0.126803  0  1.033341  0
H  H11  1  0.72895071  0.70490719  0.02185569  1  0.041865  0  0.100339  0.114446  0  0.977516  0
H  H12  1  0.75509202  0.62954226  0.94276361  1  0.069941  0  0.100363  0.113727  0  0.9806  0
H  H13  1  0.75410186  0.45942858  0.11197326  1  0.063099  0  0.10095  0.114301  0  0.986547  0
H  H14  1  0.72972507  0.53474789  0.19051025  1  0.044873  0  0.100539  0.115148  0  0.991645  0
H  H15  1  0.19604113  0.39820267  0.28180736  1  0.068497  0  0.09281  0.132277  0  1.006233  0
H  H16  1  0.06494644  0.42684230  0.28258760  1  0.061178  0  0.090581  0.137232  0  1.032983  0
H  H17  1  0.11583434  0.53627278  0.22534986  1  0.022134  0  0.086815  0.119605  0  1.016201  0
H  H18  1  0.87781821  0.47286580  0.77594249  1  0.019931  0  0.086909  0.117811  0  1.018433  0
H  H19  1  0.93355902  0.57817301  0.72085606  1  0.050403  0  0.090421  0.131944  0  1.023592  0
H  H20  1  0.80073472  0.61322530  0.72102178  1  0.035796  0  0.095011  0.131673  0  1.008983  0
H  H21  1  0.13633722  0.68477865  0.26124879  1  0.055222  0  0.096069  0.139819  0  1.007419  0
H  H22  1  0.21232089  0.60798100  0.35325140  1  0.066789  0  0.094624  0.138941  0  1.013038  0
H  H23  1  0.22265659  0.54575988  0.27056009  1  0.064797  0  0.088182  0.123711  0  1.02229  0
H  H24  1  0.76970362  0.46674690  0.73012261  1  -0.000131  0  0.08796  0.122252  0  1.023412  0
H  H25  1  0.78014832  0.40463166  0.64729895  1  0.067489  0  0.09746  0.145024  0  1.007261  0
H  H26  1  0.85545450  0.32772238  0.73990985  1  0.058395  0  0.094256  0.135483  0  1.011465  0
H  H27  1  0.51933522  0.06459264  0.19150194  1  0.033845  0  0.093526  0.130509  0  0.996962  0
H  H28  1  0.43108679  0.98529313  0.27446240  1  0.041533  0  0.092681  0.135665  0  1.037466  0
H  H29  1  0.57689387  0.91992399  0.22851566  1  0.052694  0  0.089809  0.121411  0  0.999421  0
H  H30  1  0.52472374  0.05954714  0.73523452  1  0.021138  0  0.088175  0.121825  0  0.993308  0
H  H31  1  0.57303749  0.91446919  0.78763917  1  0.085735  0  0.095931  0.142936  0  1.005935  0
H  H32  1  0.42899773  0.98804245  0.81716059  1  0.024193  0  0.090843  0.12625  0  1.024353  0
H  H33  1  0.76435941  0.00517199  0.93335105  1  0.07198  0  0.09193  0.13654  0  1.042345  0
H  H34  1  0.67051586  0.08396108  0.02193265  1  0.037236  0  0.096245  0.134503  0  0.977571  0
H  H35  1  0.72032746  0.93935087  0.07929103  1  0.010228  0  0.087816  0.117016  0  1.026486  0
H  H36  1  0.31633225  0.90942459  0.01372702  1  0.04513  0  0.09898  0.141109  0  0.970554  0
H  H37  1  0.23289393  0.01536542  0.07141669  1  0.019833  0  0.087699  0.121317  0  1.046054  0
H  H38  1  0.28938450  0.04875271  0.92610076  1  0.047906  0  0.088971  0.118904  0  1.021083  0
H  H39  1  0.02938679  0.17720147  0.72904015  1  0.035508  0  0.091266  0.125011  0  1.041877  0
H  H40  1  0.02032321  0.25407398  0.79568194  1  0.019706  0  0.0934  0.128289  0  1.01115  0
H  H41  1  0.14609339  0.14933060  0.75859846  1  0.039215  0  0.093919  0.129073  0  0.983178  0
H  H42  1  0.97205537  0.75246697  0.21458615  1  0.046318  0  0.093107  0.129388  0  1.009641  0
H  H43  1  0.95106329  0.83561986  0.28197026  1  0.050254  0  0.095995  0.140559  0  1.018348  0
H  H44  1  0.84228929  0.85555763  0.24602294  1  0.017547  0  0.093049  0.128373  0  0.988928  0
H  H45  1  0.97646548  0.26263408  0.96415013  1  0.049674  0  0.095508  0.132211  0  0.985133  0
H  H46  1  0.03986545  0.17402179  0.06700109  1  0.025369  0  0.088531  0.119785  0  1.042876  0
H  H47  1  0.12021727  0.18921395  0.92566809  1  0.049538  0  0.091465  0.123189  0  1.01083  0
H  H48  1  0.88206078  0.80387157  0.08942333  1  0.017753  0  0.090264  0.120164  0  1.018388  0
H  H49  1  0.93837726  0.83982000  0.94336945  1  0.038153  0  0.093952  0.133202  0  1.016235  0
H  H50  1  0.02564655  0.74713647  0.02514104  1  0.049703  0  0.094947  0.135097  0  0.983214  0
H  H51  1  0.39614518  0.64747583  0.27565228  1  0.041028  0  0.095534  0.135383  0  0.99308  0
H  H52  1  0.43094086  0.73465243  0.29160693  1  0.060718  0  0.094582  0.142604  0  1.011545  0
H  H53  1  0.53735388  0.63235349  0.23156994  1  0.015096  0  0.087314  0.118244  0  1.025535  0
H  H54  1  0.58827292  0.26410048  0.72063244  1  0.089453  0  0.089389  0.133337  0  1.055919  0
H  H55  1  0.56954571  0.38002211  0.74159705  1  0.031952  0  0.095403  0.134841  0  0.980459  0
H  H56  1  0.45441489  0.34223498  0.78695809  1  0.03131  0  0.087285  0.120433  0  1.028401  0
H  H57  1  0.67546860  0.39133484  0.28433189  1  0.08273  0  0.095808  0.135698  0  1.052408  0
H  H58  1  0.56154145  0.34635789  0.36129018  1  0.036453  0  0.093364  0.132227  0  1.023177  0
H  H59  1  0.54578103  0.47945710  0.26091852  1  0.013273  0  0.090442  0.126305  0  1.020146  0
H  H60  1  0.37981707  0.55273943  0.75481964  1  0.033561  0  0.095849  0.135772  0  0.979043  0
H  H61  1  0.26491621  0.60719212  0.71170902  1  0.082062  0  0.08942  0.12942  0  1.071762  0
H  H62  1  0.31946176  0.46308032  0.77830592  1  0.035236  0  0.085326  0.113956  0  1.037203  0
H  H63  1  0.46522278  0.73900498  0.65005254  1  0.04508  0  0.094048  0.131618  0  0.982405  0
H  H64  1  0.41902135  0.78483852  0.53972505  1  0.081292  0  0.091314  0.138773  0  1.058471  0
H  H65  1  0.56195242  0.71623461  0.52441519  1  0.031562  0  0.088141  0.118587  0  1.012987  0
H  H66  1  0.60469472  0.22385547  0.33245447  1  0.052714  0  0.091977  0.130086  0  1.04774  0
H  H67  1  0.69804349  0.12917632  0.26170115  1  0.081106  0  0.097111  0.145881  0  1.001419  0
H  H68  1  0.56531279  0.21007109  0.24494789  1  0.039317  0  0.08868  0.122171  0  1.014545  0
H  H69  1  0.75443122  0.77379172  0.55537294  1  0.074525  0  0.091939  0.137831  0  1.05575  0
H  H70  1  0.63658162  0.73800676  0.65866572  1  0.024965  0  0.091513  0.124729  0  0.991728  0
H  H71  1  0.69510864  0.70931180  0.53483477  1  0.031848  0  0.090171  0.123425  0  1.009026  0
H  H72  1  0.37941431  0.20985802  0.28912435  1  0.032003  0  0.094565  0.13034  0  1.001454  0
H  H73  1  0.29527562  0.20871743  0.42477676  1  0.051635  0  0.092931  0.135819  0  1.013845  0
H  H74  1  0.40568412  0.26087603  0.35749848  1  0.001622  0  0.088836  0.123535  0  1.010859  0
C  C75  1  0.00300712  0.69741916  0.50259243  1  1.544729  0  0.235303  0.635876  0  4.069659  0
C  C76  1  0.30634625  0.99880765  0.19966096  1  1.541406  0  0.23726  0.654919  0  4.084427  0
C  C77  1  0.99039107  0.31434100  0.49815588  1  1.531615  0  0.238418  0.644655  0  4.059572  0
C  C78  1  0.69703055  0.00011641  0.80931903  1  1.555925  0  0.239987  0.659305  0  4.067875  0
C  C79  1  0.00002687  0.70968002  0.80915021  1  1.55712  0  0.237652  0.640403  0  4.116785  0
C  C80  1  0.71259679  0.98739418  0.48366317  1  1.531382  0  0.237496  0.647795  0  4.067065  0
C  C81  1  0.99170715  0.31487504  0.20524708  1  1.565199  0  0.234373  0.651728  0  4.110927  0
C  C82  1  0.31475581  0.99593254  0.49176345  1  1.539158  0  0.238259  0.647204  0  4.07338  0
C  C83  1  0.30514758  0.70212363  0.50185195  1  1.527415  0  0.238317  0.646911  0  4.068707  0
C  C84  1  0.99741909  0.00105459  0.80868735  1  1.564282  0  0.239877  0.660982  0  4.098611  0
C  C85  1  0.68711121  0.30272601  0.50499146  1  1.517182  0  0.235789  0.645843  0  4.070622  0
C  C86  1  0.99363680  0.00548989  0.19891441  1  1.556586  0  0.239688  0.65968  0  4.098739  0
C  C87  1  0.98551004  0.41953189  0.49561773  1  -0.026752  0  -0.016181  -0.156761  0  3.878404  0
C  C88  1  0.00731363  0.59261526  0.50528813  1  -0.062047  0  -0.01791  -0.162651  0  3.884168  0
C  C89  1  0.05718078  0.47641750  0.40313076  1  0.015591  0  -0.003303  0.100104  0  3.89523  0
C  C90  1  0.93634707  0.53498548  0.59819514  1  -0.028381  0  -0.002578  0.099794  0  3.892399  0
C  C91  1  0.07304101  0.55887074  0.41017971  1  0.048506  0  -0.000888  0.102587  0  3.891522  0
C  C92  1  0.91972829  0.45323193  0.59075447  1  0.005428  0  -0.003023  0.09705  0  3.894202  0
C  C93  1  0.40886479  0.99554297  0.09931091  1  -0.066966  0  -0.019345  -0.152283  0  3.924617  0
C  C94  1  0.59645926  0.99777148  0.91148142  1  -0.066196  0  -0.019644  -0.158672  0  3.925109  0
C  C95  1  0.50244090  0.99718861  0.10144665  1  0.011744  0  -0.009688  0.088669  0  3.94066  0
C  C96  1  0.50401717  0.99181276  0.91048782  1  0.025283  0  -0.010094  0.086672  0  3.928565  0
C  C97  1  0.59644699  0.00119396  0.00547690  1  0.019223  0  -0.008798  0.090223  0  3.940748  0
C  C98  1  0.40840332  0.99267774  0.00485656  1  0.018136  0  -0.009778  0.085414  0  3.932946  0
C  C99  1  0.99671043  0.00135504  0.91059803  1  -0.015421  0  -0.017641  -0.148659  0  3.941447  0
C  C100  1  0.99237730  0.00540692  0.09792700  1  -0.028609  0  -0.018887  -0.152132  0  3.941788  0
C  C101  1  0.02020498  0.08710010  0.90149373  1  0.000567  0  -0.011376  0.084752  0  3.945448  0
C  C102  1  0.96844241  0.91990231  0.10707184  1  0.026765  0  -0.008901  0.089743  0  3.938758  0
C  C103  1  0.01705648  0.08992616  0.99716753  1  -0.005435  0  -0.010292  0.085661  0  3.942545  0
C  C104  1  0.97248368  0.91673162  0.01111434  1  0.003017  0  -0.007466  0.089694  0  3.939838  0
C  C105  1  0.40067717  0.59555751  0.50708353  1  -0.068117  0  -0.017242  -0.158122  0  3.903291  0
C  C106  1  0.57864770  0.39611964  0.51174645  1  -0.07127  0  -0.019248  -0.167091  0  3.901354  0
C  C107  1  0.46669710  0.56827667  0.40873314  1  0.033479  0  -0.005186  0.092987  0  3.914907  0
C  C108  1  0.51225978  0.42253788  0.61057383  1  -0.039429  0  -0.003097  0.102353  0  3.900568  0
C  C109  1  0.54670915  0.46235250  0.41506698  1  0.024374  0  -0.002767  0.10403  0  3.911338  0
C  C110  1  0.41866905  0.52005773  0.60926265  1  0.018672  0  -0.005393  0.098994  0  3.900383  0
C  C111  1  0.99676684  0.61363768  0.91289245  1  -0.017002  0  -0.009226  -0.057092  0  3.994103  0
C  C112  1  0.99633174  0.41581734  0.10533462  1  0.059097  0  -0.014611  -0.142606  0  3.928002  0
C  C113  1  0.90078147  0.58762263  0.98332984  1  0.036421  0  -0.005641  0.056641  0  3.899479  0
C  C114  1  0.09417557  0.44355955  0.03299699  1  -0.016719  0  0.022293  0.134107  0  4.003518  0
C  C115  1  0.90126611  0.49268766  0.07634648  1  -0.011491  0  -0.001937  0.072284  0  3.890731  0
C  C116  1  0.09315869  0.54040675  0.94162589  1  0.004895  0  -0.091663  -0.182741  0  3.975836  0
C  C117  1  0.77768015  0.62610799  0.00554730  1  -0.002461  0  -0.14863  -0.195125  0  3.86969  0
C  C118  1  0.77768694  0.51914552  0.11132758  1  -0.036686  0  -0.150299  -0.205727  0  3.87668  0
C  C119  1  0.42710043  0.98744377  0.47584072  1  -0.042647  0  -0.016384  -0.156058  0  3.898208  0
C  C120  1  0.62719693  0.97825873  0.46377161  1  -0.054952  0  -0.017264  -0.162342  0  3.897413  0
C  C121  1  0.50325842  0.88385202  0.51713714  1  -0.002477  0  -0.004877  0.096486  0  3.907176  0
C  C122  1  0.56485816  0.07436693  0.39737460  1  0.001747  0  -0.001079  0.103961  0  3.900069  0
C  C123  1  0.60066417  0.88054478  0.51722115  1  0.0227  0  -0.004174  0.099234  0  3.914431  0
C  C124  1  0.45825169  0.08313509  0.41451033  1  0.022633  0  -0.005799  0.088782  0  3.912377  0
C  C125  1  0.11131528  0.45808606  0.29288701  1  -0.060318  0  -0.248783  -0.417975  0  3.992711  0
C  C126  1  0.88425961  0.55109939  0.70946339  1  -0.038353  0  -0.245417  -0.410201  0  3.985666  0
C  C127  1  0.16553651  0.60185949  0.31857171  1  -0.117648  0  -0.246112  -0.415409  0  3.972865  0
C  C128  1  0.82685540  0.41057733  0.68217719  1  -0.053283  0  -0.246779  -0.416865  0  3.976565  0
C  C129  1  0.50666680  0.99139978  0.20440862  1  -0.058634  0  -0.242814  -0.402863  0  3.972697  0
C  C130  1  0.50723062  0.98802016  0.80809545  1  -0.075434  0  -0.243529  -0.404424  0  3.96948  0
C  C131  1  0.69357977  0.00712007  0.00908767  1  -0.047002  0  -0.242692  -0.402781  0  3.964393  0
C  C132  1  0.30677486  0.99197753  0.00393343  1  -0.043029  0  -0.241343  -0.400602  0  3.978783  0
C  C133  1  0.05526666  0.17106824  0.79067822  1  -0.048669  0  -0.238199  -0.399511  0  3.964826  0
C  C134  1  0.93242460  0.83657729  0.21803831  1  -0.050209  0  -0.238991  -0.404479  0  3.955416  0
C  C135  1  0.04018706  0.18271130  0.98856268  1  -0.070071  0  -0.238308  -0.397978  0  3.979706  0
C  C136  1  0.95299752  0.82289435  0.01728055  1  -0.042454  0  -0.238601  -0.405272  0  3.978032  0
C  C137  1  0.45713960  0.64964461  0.29637268  1  -0.041938  0  -0.244083  -0.407549  0  3.978984  0
C  C138  1  0.53263104  0.34758565  0.71982916  1  -0.043109  0  -0.24562  -0.406756  0  3.969273  0
C  C139  1  0.58595653  0.41924846  0.32384524  1  -0.040376  0  -0.24855  -0.424053  0  3.98837  0
C  C140  1  0.34098815  0.53758565  0.71838506  1  -0.065511  0  -0.249146  -0.416525  0  3.987247  0
C  C141  1  0.48565878  0.77631484  0.55950057  1  -0.07494  0  -0.247259  -0.409138  0  3.982736  0
C  C142  1  0.61008621  0.16446063  0.30478727  1  -0.086229  0  -0.2458  -0.411454  0  3.977151  0
C  C143  1  0.67644269  0.77043535  0.56873080  1  -0.040333  0  -0.245929  -0.41005  0  3.977544  0
C  C144  1  0.38090010  0.19641264  0.36904526  1  -0.01743  0  -0.244084  -0.410242  0  3.990161  0
Cl  Cl145  1  0.22368600  0.35682618  0.04711091  1  -0.188461  0  0.004443  -0.058575  0  1.5278  0
O  O146  1  0.92447772  0.74018396  0.57687056  1  -1.186668  0  -0.351317  -0.615329  0  2.339644  0
O  O147  1  0.26334962  0.08020600  0.23353150  1  -1.175001  0  -0.344851  -0.6146  0  2.276099  0
O  O148  1  0.07406094  0.26768873  0.42916925  1  -1.170392  0  -0.349956  -0.60884  0  2.31256  0
O  O149  1  0.73996110  0.92255231  0.76983615  1  -1.184832  0  -0.34997  -0.617661  0  2.282958  0
O  O150  1  0.08040223  0.74506663  0.76640677  1  -1.186517  0  -0.353182  -0.613416  0  2.296281  0
O  O151  1  0.74828888  0.06811094  0.41595183  1  -1.187457  0  -0.359054  -0.611404  0  2.374475  0
O  O152  1  0.91353782  0.27885273  0.24034925  1  -1.173005  0  -0.34014  -0.604509  0  2.215979  0
O  O153  1  0.26774674  0.93001376  0.57858193  1  -1.182957  0  -0.347597  -0.604409  0  2.269089  0
O  O154  1  0.25989926  0.73820030  0.42971844  1  -1.169101  0  -0.349584  -0.607205  0  2.335214  0
O  O155  1  0.91893545  0.07651677  0.76988885  1  -1.195887  0  -0.353165  -0.625105  0  2.275955  0
O  O156  1  0.73549501  0.27125805  0.57303867  1  -1.173478  0  -0.348442  -0.605207  0  2.309128  0
O  O157  1  0.07052720  0.92800063  0.23894108  1  -1.187375  0  -0.351277  -0.622379  0  2.270734  0
O  O158  1  0.07645417  0.92658848  0.76786105  1  -1.176135  0  -0.350531  -0.604561  0  2.264569  0
O  O159  1  0.72905444  0.26089484  0.42883098  1  -1.179047  0  -0.359041  -0.616138  0  2.335614  0
O  O160  1  0.91904812  0.08400438  0.23621437  1  -1.178263  0  -0.351862  -0.611899  0  2.288605  0
O  O161  1  0.27191989  0.75068545  0.56983458  1  -1.185152  0  -0.350308  -0.610047  0  2.333207  0
O  O162  1  0.92281153  0.74681552  0.77024353  1  -1.175223  0  -0.344925  -0.603767  0  2.2833  0
O  O163  1  0.27067559  0.07070007  0.41665905  1  -1.187882  0  -0.35682  -0.619456  0  2.351284  0
O  O164  1  0.06678912  0.27220284  0.24860926  1  -1.176324  0  -0.359438  -0.623613  0  2.383862  0
O  O165  1  0.73973444  0.92039928  0.57126539  1  -1.189107  0  -0.350764  -0.617672  0  2.275166  0
O  O166  1  0.73291236  0.07985434  0.76756610  1  -1.183268  0  -0.34673  -0.614817  0  2.271994  0
O  O167  1  0.07376359  0.74339582  0.42358088  1  -1.187682  0  -0.352151  -0.608735  0  2.35855  0
O  O168  1  0.26814206  0.92013723  0.24384926  1  -1.184321  0  -0.355034  -0.621523  0  2.275391  0
O  O169  1  0.91561597  0.27188177  0.57331878  1  -1.188479  0  -0.353389  -0.610929  0  2.348714  0
O  O170  1  0.79688399  0.06866531  0.56934239  1  -1.224536  0  -0.698465  -1.074421  0  2.393287  0
O  O171  1  0.06701088  0.07200347  0.56929128  1  -1.241475  0  -0.697403  -1.073601  0  2.385839  0
O  O172  1  0.06488819  0.07353520  0.29929625  1  -1.229805  0  -0.694834  -1.067616  0  2.374251  0
O  O173  1  0.06723657  0.80420401  0.56998481  1  -1.240444  0  -0.696123  -1.068592  0  2.387221  0
O  O174  1  0.14878903  0.95531870  0.45124625  1  -1.198986  0  -0.796632  -1.151386  0  2.157342  0
O  O175  1  0.95008138  0.95473676  0.45129133  1  -1.197856  0  -0.792907  -1.148155  0  2.148901  0
O  O176  1  0.94836482  0.15205603  0.45311699  1  -1.197515  0  -0.793758  -1.148928  0  2.14798  0
O  O177  1  0.95066122  0.95555560  0.65031754  1  -1.198918  0  -0.787738  -1.144968  0  2.119316  0
