# generated using pymatgen
data_CuH4C6(N2O)2
_symmetry_space_group_name_H-M   'P 1'
_cell_length_a   4.89103290
_cell_length_b   10.53788198
_cell_length_c   14.38732361
_cell_angle_alpha   90.00069731
_cell_angle_beta   89.99853398
_cell_angle_gamma   90.36418174
_symmetry_Int_Tables_number   1
_chemical_formula_structural   CuH4C6(N2O)2
_chemical_formula_sum   'Cu4 H16 C24 N16 O8'
_cell_volume   741.52390117
_cell_formula_units_Z   4
loop_
 _symmetry_equiv_pos_site_id
 _symmetry_equiv_pos_as_xyz
  1  'x, y, z'
loop_
 _atom_site_type_symbol
 _atom_site_label
 _atom_site_symmetry_multiplicity
 _atom_site_fract_x
 _atom_site_fract_y
 _atom_site_fract_z
 _atom_site_occupancy
 _atom_site_hle17_ddec_charge
 _atom_site_hle17_ddec_spin_density
 _atom_site_hle17_ddec_sum_bond_order
 _atom_site_hle17_magmom
 _atom_site_hse06_10hf_ddec_charge
 _atom_site_hse06_10hf_ddec_spin_density
 _atom_site_hse06_10hf_ddec_sum_bond_order
 _atom_site_hse06_10hf_magmom
 _atom_site_hse06_ddec_charge
 _atom_site_hse06_ddec_spin_density
 _atom_site_hse06_ddec_sum_bond_order
 _atom_site_hse06_magmom
 _atom_site_pbe_cm5_charge
 _atom_site_pbe_ddec_charge
 _atom_site_pbe_ddec_spin_density
 _atom_site_pbe_ddec_sum_bond_order
 _atom_site_pbe_magmom
Cu  Cu0  1  0.36578791  0.05669521  0.09143193  1  0.853712  0.569075  1.854915  0.413  0.858412  0.738555  2.259286  0.585  0.95513  0.837502  2.183776  0.686  0.754949  0.798849  0.648002  2.312365  0.506
Cu  Cu1  1  0.13422299  0.44330176  0.59142550  1  0.853693  -0.569077  1.85487  -0.413  0.858413  -0.738563  2.259299  -0.585  0.95512  -0.837495  2.183734  -0.686  0.754892  0.798809  -0.648006  2.312353  -0.506
Cu  Cu2  1  0.63421292  0.94330232  0.90856863  1  0.853684  -0.569075  1.854915  -0.413  0.858295  -0.738559  2.259417  -0.585  0.95502  -0.837497  2.18387  -0.686  0.754929  0.798747  -0.647994  2.31244  -0.506
Cu  Cu3  1  0.86577172  0.55669767  0.40857645  1  0.853721  0.569071  1.854835  0.413  0.858511  0.738555  2.25912  0.585  0.955126  0.837481  2.183694  0.686  0.75496  0.798928  0.647995  2.312228  0.506
H  H4  1  0.04292441  0.75565482  0.27434052  1  0.103625  0.001192  0.943541  0.002  0.109572  0.001143  1.010459  0.002  0.112414  0.000847  1.007114  0.001  0.121922  0.10729  0.001296  1.012982  0.002
H  H5  1  0.45706176  0.74434240  0.77432951  1  0.10355  -0.001192  0.943593  -0.002  0.109522  -0.001143  1.010492  -0.002  0.112354  -0.000847  1.007149  -0.001  0.121943  0.10723  -0.001297  1.013034  -0.002
H  H6  1  0.95706827  0.24434745  0.72566004  1  0.103559  -0.001192  0.943616  -0.002  0.109538  -0.001143  1.010498  -0.002  0.112377  -0.000847  1.007149  -0.001  0.121907  0.107237  -0.001297  1.013059  -0.002
H  H7  1  0.54293907  0.25565514  0.22566966  1  0.103576  0.001192  0.943479  0.002  0.109499  0.001143  1.01044  0.002  0.112332  0.000847  1.007097  0.001  0.121894  0.10721  0.001297  1.012974  0.002
H  H8  1  0.49144426  0.06739793  0.32073120  1  0.101395  0.000265  0.947799  0.001  0.106356  -1.2e-05  1.019027  0.0  0.109133  -5.9e-05  1.015447  0.0  0.110227  0.104309  6.4e-05  1.021408  0.0
H  H9  1  0.00854943  0.43260470  0.82072577  1  0.101469  -0.000264  0.947772  -0.001  0.106435  1.2e-05  1.019033  0.0  0.109216  5.9e-05  1.015448  0.0  0.110249  0.104385  -6.4e-05  1.021414  0.0
H  H10  1  0.50855663  0.93260720  0.67926866  1  0.101441  -0.000265  0.947818  -0.001  0.106377  1.2e-05  1.019086  0.0  0.109157  5.9e-05  1.015503  0.0  0.110224  0.104329  -6.3e-05  1.021469  0.0
H  H11  1  0.99147189  0.56739856  0.17927271  1  0.101482  0.000264  0.947739  0.001  0.106459  -1.2e-05  1.018977  0.0  0.109241  -5.8e-05  1.015391  0.0  0.110271  0.104409  6.3e-05  1.021363  0.0
H  H12  1  0.28370509  0.94178696  0.45164013  1  0.105498  0.00044  0.951027  0.001  0.114047  0.000544  1.012389  0.001  0.116385  0.000375  1.013484  0.0  0.106949  0.112272  0.000631  1.011826  0.001
H  H13  1  0.21625760  0.55822170  0.95163303  1  0.105562  -0.000441  0.950856  -0.001  0.114091  -0.000543  1.012243  -0.001  0.116432  -0.000375  1.013335  0.0  0.106927  0.112309  -0.000631  1.011681  -0.001
H  H14  1  0.71628354  0.05822005  0.54835835  1  0.105532  -0.00044  0.951014  -0.001  0.114079  -0.000543  1.012356  -0.001  0.116417  -0.000375  1.01345  0.0  0.106946  0.112301  -0.000631  1.011796  -0.001
H  H15  1  0.78374530  0.44177964  0.04836823  1  0.105592  0.00044  0.950872  0.001  0.114114  0.000543  1.012262  0.001  0.116455  0.000375  1.013354  0.0  0.106934  0.112333  0.000631  1.0117  0.001
H  H16  1  0.46060224  0.72292334  0.48235848  1  0.079383  0.000924  0.95388  0.002  0.08515  0.00086  1.024753  0.001  0.086896  0.000609  1.022074  0.001  0.117944  0.08328  0.000973  1.027408  0.002
H  H17  1  0.03934587  0.77708485  0.98235209  1  0.079496  -0.000926  0.953804  -0.002  0.085189  -0.00086  1.024697  -0.001  0.086923  -0.000609  1.022035  -0.001  0.117934  0.083318  -0.000974  1.027356  -0.002
H  H18  1  0.53937819  0.27708081  0.51763930  1  0.079411  -0.000926  0.953759  -0.002  0.085135  -0.00086  1.024659  -0.001  0.086885  -0.000609  1.021982  -0.001  0.117934  0.083265  -0.000973  1.027316  -0.002
H  H19  1  0.96064065  0.22291267  0.01765125  1  0.07954  0.000925  0.953843  0.002  0.085256  0.00086  1.024711  0.001  0.086994  0.00061  1.022046  0.001  0.11794  0.083385  0.000974  1.027366  0.002
C  C20  1  0.87329803  0.80017652  0.31067118  1  0.128313  -0.00803  3.63613  -0.009  0.090148  -0.001099  3.885144  -0.002  0.102761  -0.002418  3.902271  -0.004  0.055519  0.082184  -0.000168  3.874151  -0.001
C  C21  1  0.62668986  0.69981996  0.81065986  1  0.128574  0.008032  3.635832  0.009  0.0904  0.001099  3.884928  0.002  0.10303  0.002414  3.902048  0.004  0.055623  0.082432  0.000168  3.873925  0.001
C  C22  1  0.12669259  0.19982385  0.68933077  1  0.128493  0.008043  3.636061  0.009  0.090316  0.001099  3.885154  0.002  0.102938  0.002416  3.90228  0.004  0.05556  0.08235  0.000168  3.874144  0.001
C  C23  1  0.37331302  0.30017853  0.18933931  1  0.128558  -0.008025  3.635836  -0.009  0.090438  -0.001099  3.884899  -0.002  0.103064  -0.002419  3.902022  -0.004  0.05566  0.08247  -0.000168  3.873897  -0.001
C  C24  1  0.78243026  0.92144015  0.28741761  1  -0.105174  0.018436  3.716745  0.02  -0.078013  0.010208  3.943626  0.012  -0.092967  0.008187  3.965566  0.01  -0.009146  -0.068627  0.011256  3.929434  0.013
C  C25  1  0.71755941  0.57855975  0.78740929  1  -0.105355  -0.018437  3.716746  -0.02  -0.078279  -0.010208  3.943819  -0.012  -0.093236  -0.008187  3.96576  -0.01  -0.009179  -0.068879  -0.011257  3.929601  -0.013
C  C26  1  0.21756447  0.07856212  0.71258295  1  -0.105294  -0.018448  3.716863  -0.02  -0.078196  -0.010209  3.943833  -0.012  -0.093151  -0.008187  3.965773  -0.01  -0.009246  -0.068804  -0.011255  3.929629  -0.013
C  C27  1  0.28244962  0.42144065  0.21258849  1  -0.105289  0.018432  3.71667  0.02  -0.078191  0.010207  3.943706  0.012  -0.093145  0.008189  3.965642  0.01  -0.00919  -0.068801  0.011256  3.9295  0.013
C  C28  1  0.56627015  0.97335540  0.33794243  1  0.020438  -0.009111  3.680104  -0.009  -0.011209  -0.003  3.93012  -0.003  -0.001277  -0.003512  3.942802  -0.003  -0.052628  -0.017628  -0.002326  3.921542  -0.002
C  C29  1  0.93372187  0.52664818  0.83793593  1  0.02029  0.009113  3.680031  0.009  -0.011422  0.003001  3.930162  0.003  -0.001497  0.003508  3.942852  0.003  -0.052702  -0.017843  0.002326  3.921575  0.002
C  C30  1  0.43372868  0.02664973  0.66205605  1  0.020492  0.009123  3.68019  0.009  -0.011134  0.003002  3.930177  0.003  -0.001206  0.00351  3.942862  0.003  -0.052549  -0.017553  0.002327  3.921597  0.002
C  C31  1  0.06628921  0.47335411  0.16206254  1  0.020301  -0.009105  3.679998  -0.009  -0.011416  -0.003  3.930124  -0.003  -0.001487  -0.003514  3.942803  -0.003  -0.052719  -0.017834  -0.002327  3.921543  -0.002
C  C32  1  0.45052222  0.90375158  0.41030007  1  -0.121793  0.0098  3.733674  0.01  -0.130478  0.004264  3.983442  0.005  -0.139843  0.004004  4.00442  0.005  -0.082141  -0.124689  0.004351  3.969573  0.005
C  C33  1  0.04944559  0.59625260  0.91029267  1  -0.121812  -0.009803  3.733513  -0.01  -0.130395  -0.004266  3.983083  -0.005  -0.139763  -0.004003  4.004063  -0.005  -0.082134  -0.124604  -0.004351  3.969208  -0.005
C  C34  1  0.54946843  0.09625258  0.58969702  1  -0.121981  -0.009812  3.733822  -0.01  -0.130616  -0.004265  3.983504  -0.005  -0.139981  -0.004004  4.00448  -0.005  -0.082225  -0.124826  -0.00435  3.969636  -0.005
C  C35  1  0.95055730  0.40374779  0.08970789  1  -0.121857  0.009794  3.733662  0.01  -0.130439  0.004265  3.983238  0.005  -0.139806  0.004006  4.004215  0.005  -0.082137  -0.124651  0.004351  3.969365  0.005
C  C36  1  0.54895505  0.78308079  0.42855267  1  0.141249  -0.007482  3.688728  -0.008  0.108356  -0.001383  3.946234  -0.002  0.120026  -0.002622  3.963544  -0.004  0.046893  0.100973  -0.000358  3.935105  -0.001
C  C37  1  0.95100564  0.71692614  0.92854425  1  0.141074  0.007486  3.689319  0.008  0.108302  0.001386  3.94673  0.002  0.119984  0.00262  3.964047  0.004  0.046941  0.100914  0.000359  3.935608  0.001
C  C38  1  0.45103150  0.21692147  0.57144442  1  0.14139  0.007493  3.68863  0.008  0.108549  0.001384  3.946141  0.002  0.120215  0.002623  3.963452  0.004  0.046977  0.101159  0.000358  3.935015  0.001
C  C39  1  0.04898906  0.28307233  0.07145840  1  0.140977  -0.007479  3.689497  -0.008  0.108192  -0.001385  3.9469  -0.002  0.119865  -0.002624  3.964231  -0.004  0.046896  0.100807  -0.000359  3.935765  -0.001
C  C40  1  0.90887798  0.99497322  0.20875717  1  0.654075  -0.003003  3.902396  -0.007  0.612465  0.000438  4.197927  -0.002  0.652342  -0.00015  4.190933  -0.002  0.20838  0.585316  0.000957  4.202495  -0.002
C  C41  1  0.59113187  0.50501877  0.70874929  1  0.654334  0.003002  3.90229  0.007  0.612779  -0.000439  4.197732  0.002  0.652652  0.000153  4.190742  0.002  0.208544  0.585623  -0.000958  4.2023  0.002
C  C42  1  0.09112901  0.00502717  0.79124199  1  0.654043  0.003002  3.902603  0.007  0.612469  -0.000439  4.198071  0.002  0.652341  0.000151  4.191083  0.002  0.208382  0.585317  -0.000957  4.202645  0.002
C  C43  1  0.40888939  0.49497596  0.29124848  1  0.654289  -0.003002  3.901881  -0.007  0.612704  0.000437  4.197405  -0.002  0.652579  -0.000149  4.190405  -0.002  0.208581  0.585561  0.000956  4.201971  -0.002
N  N44  1  0.75552267  0.73245717  0.37911358  1  -0.303807  0.0693  3.367732  0.088  -0.251199  0.056625  3.661507  0.076  -0.285495  0.048214  3.683678  0.068  -0.353776  -0.230967  0.057809  3.648702  0.075
N  N45  1  0.74445395  0.76754043  0.87910601  1  -0.303827  -0.069296  3.368048  -0.088  -0.25123  -0.056621  3.661818  -0.076  -0.285547  -0.048205  3.68398  -0.068  -0.353885  -0.231006  -0.057807  3.64901  -0.075
N  N46  1  0.24446591  0.26754225  0.62088489  1  -0.303932  -0.069311  3.367748  -0.088  -0.251347  -0.056628  3.661575  -0.076  -0.285668  -0.048215  3.683745  -0.068  -0.353789  -0.231102  -0.057812  3.648744  -0.075
N  N47  1  0.25554688  0.23245616  0.12089524  1  -0.303831  0.069289  3.368189  0.088  -0.251265  0.056623  3.661949  0.076  -0.285584  0.048212  3.684128  0.068  -0.353819  -0.231033  0.057807  3.649132  0.075
N  N48  1  0.47646329  0.88998220  0.03495767  1  -0.550536  0.001069  2.905338  0.001  -0.601634  -0.00162  3.304817  -0.003  -0.658341  -0.001589  3.317597  -0.003  -0.354452  -0.566831  -0.001578  3.298352  -0.002
N  N49  1  0.02350208  0.61001863  0.53496243  1  -0.550541  -0.001066  2.905219  -0.001  -0.601757  0.00162  3.30478  0.003  -0.658429  0.001587  3.317513  0.003  -0.35439  -0.566928  0.001578  3.298301  0.002
N  N50  1  0.52352730  0.11001247  0.96504289  1  -0.550545  -0.001072  2.905073  -0.001  -0.601661  0.00162  3.304625  0.003  -0.658361  0.001587  3.317386  0.003  -0.354409  -0.566853  0.001576  3.298156  0.002
N  N51  1  0.97647832  0.38998078  0.46503882  1  -0.550337  0.001062  2.90516  0.001  -0.601542  -0.001621  3.304663  -0.003  -0.658222  -0.00159  3.317422  -0.003  -0.354341  -0.566715  -0.001578  3.298183  -0.002
N  N52  1  0.50128995  0.78888732  0.07454196  1  0.402078  -0.002044  4.119966  -0.003  0.453487  -0.000703  4.422492  -0.001  0.475346  -0.000703  4.458545  -0.001  0.101519  0.439825  -0.000681  4.396069  -0.001
N  N53  1  0.99870762  0.71112237  0.57454558  1  0.40203  0.002038  4.119707  0.003  0.453487  0.000703  4.422172  0.001  0.475342  0.000699  4.458233  0.001  0.10146  0.439821  0.000681  4.395751  0.001
N  N54  1  0.49871294  0.21111212  0.92545999  1  0.402088  0.002041  4.119771  0.003  0.453464  0.000703  4.422321  0.001  0.47532  0.0007  4.458384  0.001  0.101383  0.439801  0.000683  4.395899  0.001
N  N55  1  0.00128710  0.28887896  0.42545567  1  0.401815  -0.002039  4.119713  -0.003  0.453298  -0.000703  4.4222  -0.001  0.475151  -0.000703  4.458265  -0.001  0.101378  0.439632  -0.000683  4.395779  -0.001
N  N56  1  0.52492187  0.69095353  0.11060650  1  -0.278805  0.007667  2.32168  0.009  -0.296732  0.001906  2.539177  0.002  -0.306492  0.001817  2.552353  0.002  -0.1323  -0.288279  0.001949  2.528373  0.002
N  N57  1  0.97510367  0.80905774  0.61060147  1  -0.278744  -0.007644  2.321526  -0.009  -0.296642  -0.001898  2.538918  -0.002  -0.30637  -0.001805  2.552055  -0.002  -0.132267  -0.288199  -0.001941  2.528126  -0.002
N  N58  1  0.47509124  0.30904592  0.88940101  1  -0.278799  -0.007657  2.3218  -0.009  -0.296683  -0.001902  2.539286  -0.002  -0.306411  -0.001812  2.552422  -0.002  -0.132199  -0.288232  -0.001949  2.528484  -0.002
N  N59  1  0.02489721  0.19094644  0.38939214  1  -0.278677  0.007651  2.321473  0.009  -0.29662  0.001902  2.538896  0.002  -0.30635  0.001819  2.552041  0.002  -0.132248  -0.288175  0.001952  2.528109  0.002
O  O60  1  0.76996087  0.07901955  0.16934817  1  -0.631826  0.002875  2.074781  0.005  -0.603359  0.001215  2.349156  0.003  -0.636074  -0.000268  2.339315  0.001  -0.318208  -0.580705  0.002868  2.356037  0.005
O  O61  1  0.73004645  0.42095839  0.66935253  1  -0.631865  -0.002876  2.07498  -0.005  -0.603404  -0.001213  2.349318  -0.003  -0.636119  0.000273  2.339475  -0.001  -0.318202  -0.580741  -0.002869  2.356188  -0.005
O  O62  1  0.23003994  0.92097420  0.83064474  1  -0.6318  -0.002877  2.074808  -0.005  -0.603326  -0.001214  2.349148  -0.003  -0.636039  0.000274  2.339303  -0.001  -0.318192  -0.580668  -0.002867  2.356022  -0.005
O  O63  1  0.26997064  0.57902494  0.33065707  1  -0.631936  0.002875  2.074607  0.005  -0.603479  0.001214  2.348965  0.003  -0.636178  -0.000269  2.339119  0.001  -0.318325  -0.580824  0.002866  2.355851  0.005
O  O64  1  0.15657130  0.96475475  0.18809003  1  -0.597793  0.077381  2.078101  0.103  -0.565345  0.056157  2.357547  0.082  -0.609922  0.04368  2.350557  0.068  -0.321627  -0.536536  0.06066  2.363033  0.086
O  O65  1  0.34345000  0.53524489  0.68807467  1  -0.597961  -0.077382  2.078013  -0.103  -0.565498  -0.056154  2.357452  -0.082  -0.610074  -0.043685  2.350448  -0.068  -0.32177  -0.536679  -0.060661  2.36293  -0.086
O  O66  1  0.84343771  0.03524375  0.81191401  1  -0.597789  -0.077387  2.078243  -0.103  -0.565323  -0.056156  2.357686  -0.082  -0.609902  -0.043687  2.350692  -0.068  -0.321636  -0.53651  -0.060662  2.363167  -0.086
O  O67  1  0.65657742  0.46475458  0.31191825  1  -0.597921  0.077389  2.077913  0.103  -0.565469  0.05616  2.357342  0.082  -0.610023  0.043684  2.35035  0.068  -0.321734  -0.536658  0.060663  2.362836  0.086
