# generated using pymatgen
data_NaH6C3(N3O)3
_symmetry_space_group_name_H-M   'P 1'
_cell_length_a   3.58295083
_cell_length_b   10.56908115
_cell_length_c   13.26095830
_cell_angle_alpha   103.60351511
_cell_angle_beta   89.99927208
_cell_angle_gamma   89.99896463
_symmetry_Int_Tables_number   1
_chemical_formula_structural   NaH6C3(N3O)3
_chemical_formula_sum   'Na2 H12 C6 N18 O6'
_cell_volume   488.08491195
_cell_formula_units_Z   2
loop_
 _symmetry_equiv_pos_site_id
 _symmetry_equiv_pos_as_xyz
  1  'x, y, z'
loop_
 _atom_site_type_symbol
 _atom_site_label
 _atom_site_symmetry_multiplicity
 _atom_site_fract_x
 _atom_site_fract_y
 _atom_site_fract_z
 _atom_site_occupancy
 _atom_site_hle17_bader_spin_density
 _atom_site_hle17_ddec_charge
 _atom_site_hle17_ddec_spin_density
 _atom_site_hle17_ddec_sum_bond_order
 _atom_site_hle17_magmom
 _atom_site_pbe_bader_spin_density
 _atom_site_pbe_cm5_charge
 _atom_site_pbe_ddec_charge
 _atom_site_pbe_ddec_spin_density
 _atom_site_pbe_ddec_sum_bond_order
 _atom_site_pbe_magmom
Na  Na0  1  0.64251303  0.42147956  0.42418044  1  0  0.880264  0  0.40242  0  0  0.670764  0.809661  0  0.596466  0
Na  Na1  1  0.35748216  0.92150439  0.92420149  1  0  0.880253  0  0.402481  0  0  0.670798  0.809655  0  0.596524  0
H  H2  1  0.15026816  0.21909503  0.29648062  1  0  0.424546  0  0.840145  0  0  0.310771  0.390918  0  0.919389  0
H  H3  1  0.84975541  0.71914206  0.79649426  1  0  0.424902  0  0.839934  0  0  0.310994  0.391285  0  0.918938  0
H  H4  1  0.02168175  0.21293805  0.40960838  1  0  0.376305  0  0.954451  0  0  0.276735  0.322199  0  1.056179  0
H  H5  1  0.97833692  0.71295584  0.90961758  1  0  0.376167  0  0.954673  0  0  0.276643  0.322036  0  1.056411  0
H  H6  1  0.21450675  0.61454014  0.37722992  1  0  0.41687  0  0.878996  0  0  0.297286  0.369252  0  0.969814  0
H  H7  1  0.78546868  0.11456699  0.87725307  1  0  0.416912  0  0.878931  0  0  0.297258  0.369295  0  0.969752  0
H  H8  1  0.17576078  0.66171428  0.49986673  1  0  0.422128  0  0.849577  0  0  0.310645  0.387335  0  0.923282  0
H  H9  1  0.82419796  0.16172893  0.99989241  1  0  0.422261  0  0.849701  0  0  0.310637  0.387415  0  0.923299  0
H  H10  1  0.14578849  0.48273844  0.82700929  1  0  0.279494  0  0.982278  0  0  0.31542  0.238568  0  1.066941  0
H  H11  1  0.85423011  0.98271480  0.32702624  1  0  0.279387  0  0.982268  0  0  0.315457  0.238626  0  1.066755  0
H  H12  1  0.55441339  0.41171735  0.99752011  1  0  0.318242  0  0.895202  0  0  0.334947  0.289015  0  0.961827  0
H  H13  1  0.44559289  0.91172291  0.49754541  1  0  0.31865  0  0.894596  0  0  0.335062  0.2894  0  0.961243  0
C  C14  1  0.19174708  0.77899825  0.14030482  1  0  0.247495  0  3.815941  0  0  0.217039  0.223298  0  4.088273  0
C  C15  1  0.80823852  0.27900327  0.64030736  1  0  0.24723  0  3.816369  0  0  0.216952  0.223466  0  4.088082  0
C  C16  1  0.43056797  0.55053599  0.13271346  1  0  0.292936  0  3.744342  0  0  0.232852  0.245892  0  4.017314  0
C  C17  1  0.56943354  0.05054603  0.63273144  1  0  0.29301  0  3.744789  0  0  0.232845  0.245997  0  4.017579  0
C  C18  1  0.29276099  0.64875196  0.08217509  1  0  -0.01874  0  3.773859  0  0  0.103351  -0.030716  0  4.035579  0
C  C19  1  0.70723738  0.14875821  0.58218879  1  0  -0.018666  0  3.774027  0  0  0.10332  -0.030736  0  4.03557  0
N  N20  1  0.21034974  0.88744500  0.10115338  1  0  -0.338242  0  2.972925  0  0  -0.25503  -0.306326  0  3.259877  0
N  N21  1  0.78965395  0.38744191  0.60114292  1  0  -0.338199  0  2.973298  0  0  -0.254997  -0.306408  0  3.260175  0
N  N22  1  0.08298379  0.98487728  0.17553243  1  0  -0.059408  0  2.906685  0  0  -0.081489  -0.069703  0  3.187681  0
N  N23  1  0.91703055  0.48488653  0.67551062  1  0  -0.059474  0  2.906937  0  0  -0.081487  -0.069917  0  3.18796  0
N  N24  1  0.99822340  0.93397573  0.25468260  1  0  -0.028823  0  3.469394  0  0  -0.125624  0.033668  0  3.720053  0
N  N25  1  0.00177895  0.43399638  0.75466851  1  0  -0.028707  0  3.469824  0  0  -0.125487  0.034089  0  3.720316  0
N  N26  1  0.05998114  0.80692100  0.23760807  1  0  -0.241797  0  2.852095  0  0  -0.210866  -0.2455  0  3.122654  0
N  N27  1  0.94000397  0.30694674  0.73760858  1  0  -0.241786  0  2.852344  0  0  -0.210886  -0.245725  0  3.122747  0
N  N28  1  0.45000218  0.54858970  0.23347032  1  0  -0.290357  0  2.930908  0  0  -0.198733  -0.25526  0  3.206366  0
N  N29  1  0.55000593  0.04861933  0.73349257  1  0  -0.290149  0  2.930402  0  0  -0.198579  -0.255051  0  3.205804  0
N  N30  1  0.59133307  0.43055823  0.23596859  1  0  -0.097679  0  2.998111  0  0  -0.121529  -0.078481  0  3.293904  0
N  N31  1  0.40866196  0.93059497  0.73600032  1  0  -0.097854  0  2.997509  0  0  -0.121612  -0.078657  0  3.293353  0
N  N32  1  0.65929516  0.35983915  0.14254938  1  0  -0.064829  0  2.888988  0  0  -0.079685  -0.068582  0  3.169692  0
N  N33  1  0.34069420  0.85986431  0.64258790  1  0  -0.064791  0  2.888941  0  0  -0.07984  -0.068623  0  3.169667  0
N  N34  1  0.56004399  0.43412660  0.07783558  1  0  -0.240035  0  3.454915  0  0  -0.257826  -0.179958  0  3.704572  0
N  N35  1  0.43995259  0.93413814  0.57787615  1  0  -0.240467  0  3.455154  0  0  -0.25779  -0.180304  0  3.7047  0
N  N36  1  0.24000496  0.62479947  0.98090431  1  0  -0.059121  0  3.15209  0  0  -0.185311  -0.028421  0  3.420562  0
N  N37  1  0.75999859  0.12479000  0.48091485  1  0  -0.05925  0  3.151903  0  0  -0.185314  -0.028598  0  3.420488  0
O  O38  1  0.14563763  0.26940648  0.36817521  1  0  -0.909834  0  1.854579  0  0  -0.689303  -0.854917  0  2.084806  0
O  O39  1  0.85437702  0.76943848  0.86819465  1  0  -0.910098  0  1.854516  0  0  -0.689446  -0.85516  0  2.08467  0
O  O40  1  0.14642528  0.58714633  0.44110176  1  0  -0.87839  0  1.793325  0  0  -0.648807  -0.814481  0  1.980807  0
O  O41  1  0.85356547  0.08716792  0.94112129  1  0  -0.878595  0  1.793352  0  0  -0.648794  -0.814675  0  1.980686  0
O  O42  1  0.34843407  0.51092680  0.92352237  1  0  -0.430871  0  1.990052  0  0  -0.215623  -0.377401  0  2.232238  0
O  O43  1  0.65158687  0.01091146  0.42355011  1  0  -0.430888  0  1.990023  0  0  -0.215718  -0.377474  0  2.232217  0
