# generated using pymatgen
data_Ag2H7C7SBrO8
_symmetry_space_group_name_H-M   'P 1'
_cell_length_a   6.61537385
_cell_length_b   9.31866868
_cell_length_c   10.13645809
_cell_angle_alpha   83.58699415
_cell_angle_beta   75.92893196
_cell_angle_gamma   86.40595850
_symmetry_Int_Tables_number   1
_chemical_formula_structural   Ag2H7C7SBrO8
_chemical_formula_sum   'Ag4 H14 C14 S2 Br2 O16'
_cell_volume   601.92531461
_cell_formula_units_Z   2
loop_
 _symmetry_equiv_pos_site_id
 _symmetry_equiv_pos_as_xyz
  1  'x, y, z'
loop_
 _atom_site_type_symbol
 _atom_site_label
 _atom_site_symmetry_multiplicity
 _atom_site_fract_x
 _atom_site_fract_y
 _atom_site_fract_z
 _atom_site_occupancy
 _atom_site_hle17_bader_spin_density
 _atom_site_hle17_ddec_charge
 _atom_site_hle17_ddec_spin_density
 _atom_site_hle17_ddec_sum_bond_order
 _atom_site_hle17_magmom
 _atom_site_hse06_10hf_bader_spin_density
 _atom_site_hse06_10hf_ddec_charge
 _atom_site_hse06_10hf_ddec_spin_density
 _atom_site_hse06_10hf_ddec_sum_bond_order
 _atom_site_hse06_10hf_magmom
 _atom_site_hse06_bader_spin_density
 _atom_site_hse06_ddec_charge
 _atom_site_hse06_ddec_spin_density
 _atom_site_hse06_ddec_sum_bond_order
 _atom_site_hse06_magmom
 _atom_site_pbe_bader_spin_density
 _atom_site_pbe_cm5_charge
 _atom_site_pbe_ddec_charge
 _atom_site_pbe_ddec_spin_density
 _atom_site_pbe_ddec_sum_bond_order
 _atom_site_pbe_magmom
Ag  Ag0  1  0.65800627  0.02469044  0.63969646  1  0  0.728379  0  1.116979  0  0  0.613039  0  1.517478  0  0  0.645363  0  1.465246  0  0  0.435555  0.589044  0  1.552744  0
Ag  Ag1  1  0.34199154  0.97531742  0.36030444  1  0  0.728372  0  1.116986  0  0  0.613041  0  1.517486  0  0  0.64537  0  1.465257  0  0  0.435556  0.589048  0  1.552742  0
Ag  Ag2  1  0.96815490  0.65144703  0.02543361  1  0  0.632165  0  1.268648  0  0  0.502679  0  1.700455  0  0  0.537504  0  1.646774  0  0  0.42267  0.477688  0  1.738796  0
Ag  Ag3  1  0.03184652  0.34855111  0.97456571  1  0  0.632194  0  1.268635  0  0  0.502715  0  1.700421  0  0  0.53754  0  1.646737  0  0  0.422684  0.477728  0  1.738768  0
H  H4  1  0.50270177  0.10587342  0.88805645  1  0  0.416957  0  0.892889  0  0  0.386785  0  0.955177  0  0  0.397667  0  0.939766  0  0  0.2832  0.379099  0  0.966033  0
H  H5  1  0.49729182  0.89412580  0.11194599  1  0  0.416932  0  0.892927  0  0  0.386784  0  0.955182  0  0  0.397665  0  0.939772  0  0  0.283205  0.379097  0  0.96604  0
H  H6  1  0.71134582  0.19440247  0.84690509  1  0  0.421615  0  0.874378  0  0  0.394274  0  0.933962  0  0  0.404028  0  0.919693  0  0  0.29273  0.387096  0  0.944442  0
H  H7  1  0.28864927  0.80559782  0.15309700  1  0  0.421625  0  0.87438  0  0  0.394298  0  0.933925  0  0  0.404047  0  0.919668  0  0  0.292748  0.387119  0  0.944405  0
H  H8  1  0.77184150  0.94568811  0.96850310  1  0  0.43845  0  0.83123  0  0  0.410978  0  0.898055  0  0  0.420819  0  0.887264  0  0  0.301088  0.403664  0  0.906213  0
H  H9  1  0.22815525  0.05431003  0.03149894  1  0  0.438447  0  0.83127  0  0  0.410974  0  0.898094  0  0  0.420816  0  0.8873  0  0  0.301091  0.403663  0  0.906252  0
H  H10  1  0.80537916  0.95393340  0.11433657  1  0  0.432251  0  0.865159  0  0  0.401126  0  0.928946  0  0  0.411292  0  0.914179  0  0  0.294654  0.393847  0  0.939476  0
H  H11  1  0.19461916  0.04606473  0.88566620  1  0  0.432217  0  0.865207  0  0  0.401102  0  0.92897  0  0  0.411266  0  0.914208  0  0  0.294654  0.393825  0  0.939499  0
H  H12  1  0.38420097  0.25871279  0.14165808  1  0  0.393871  0  0.889758  0  0  0.368114  0  0.955576  0  0  0.380105  0  0.943833  0  0  0.307396  0.35946  0  0.964158  0
H  H13  1  0.61580356  0.74128536  0.85833974  1  0  0.393807  0  0.889804  0  0  0.368047  0  0.955631  0  0  0.380039  0  0.94389  0  0  0.307359  0.359395  0  0.96421  0
H  H14  1  0.46892150  0.68695042  0.27090329  1  0  0.095512  0  0.993994  0  0  0.100094  0  1.070968  0  0  0.104923  0  1.064833  0  0  0.100987  0.096327  0  1.075819  0
H  H15  1  0.53107667  0.31304989  0.72909337  1  0  0.095494  0  0.994006  0  0  0.100057  0  1.071006  0  0  0.104881  0  1.064877  0  0  0.101005  0.096287  0  1.075869  0
H  H16  1  0.92623638  0.39652220  0.40803706  1  0  0.113787  0  0.969403  0  0  0.117871  0  1.041326  0  0  0.121629  0  1.038266  0  0  0.099578  0.115036  0  1.044113  0
H  H17  1  0.07376015  0.60348026  0.59196459  1  0  0.113792  0  0.969342  0  0  0.117879  0  1.041256  0  0  0.121641  0  1.038196  0  0  0.099589  0.11504  0  1.044042  0
C  C18  1  0.73375274  0.30566612  0.29856480  1  0  -0.246831  0  3.744752  0  0  -0.217529  0  3.991892  0  0  -0.229757  0  4.011233  0  0  -0.038167  -0.20946  0  3.978282  0
C  C19  1  0.26624857  0.69433418  0.70143531  1  0  -0.246892  0  3.744802  0  0  -0.217653  0  3.992095  0  0  -0.229885  0  4.011443  0  0  -0.038219  -0.209581  0  3.978474  0
C  C20  1  0.56780018  0.32703930  0.23238749  1  0  0.333871  0  3.793885  0  0  0.305018  0  4.064356  0  0  0.322651  0  4.076725  0  0  0.094754  0.292975  0  4.056034  0
C  C21  1  0.43220267  0.67296101  0.76761039  1  0  0.333929  0  3.7939  0  0  0.305106  0  4.064293  0  0  0.322736  0  4.076667  0  0  0.094856  0.293057  0  4.055973  0
C  C22  1  0.47341717  0.46788400  0.22057940  1  0  -0.196935  0  3.744608  0  0  -0.180306  0  3.994106  0  0  -0.194725  0  4.015864  0  0  -0.036528  -0.17123  0  3.980421  0
C  C23  1  0.52658412  0.53211631  0.77941775  1  0  -0.196911  0  3.74468  0  0  -0.180274  0  3.994178  0  0  -0.194695  0  4.015939  0  0  -0.036533  -0.171194  0  3.980484  0
C  C24  1  0.54308379  0.57985006  0.27803765  1  0  -0.084549  0  3.762772  0  0  -0.11879  0  4.017002  0  0  -0.113494  0  4.033783  0  0  -0.092332  -0.122938  0  4.007462  0
C  C25  1  0.45691750  0.42015026  0.72195949  1  0  -0.084507  0  3.762866  0  0  -0.118705  0  4.017057  0  0  -0.113409  0  4.033837  0  0  -0.09232  -0.122861  0  4.007523  0
C  C26  1  0.70380691  0.55453355  0.34495658  1  0  0.038675  0  3.773782  0  0  0.058183  0  4.044407  0  0  0.054709  0  4.068801  0  0  -0.036934  0.060346  0  4.027988  0
C  C27  1  0.29619439  0.44546676  0.65504155  1  0  0.038628  0  3.773726  0  0  0.058136  0  4.044367  0  0  0.054664  0  4.068757  0  0  -0.036966  0.060294  0  4.027952  0
C  C28  1  0.80012319  0.41756846  0.35563941  1  0  -0.070955  0  3.76098  0  0  -0.105901  0  4.012212  0  0  -0.10144  0  4.030714  0  0  -0.088379  -0.108418  0  3.998923  0
C  C29  1  0.19987646  0.58243400  0.64436074  1  0  -0.070921  0  3.760897  0  0  -0.105859  0  4.012098  0  0  -0.101403  0  4.030606  0  0  -0.088364  -0.108367  0  3.998795  0
C  C30  1  0.30407219  0.49542709  0.14703568  1  0  0.672187  0  3.847899  0  0  0.616603  0  4.129412  0  0  0.65257  0  4.125375  0  0  0.213031  0.591721  0  4.131747  0
C  C31  1  0.69593073  0.50457213  0.85296230  1  0  0.672234  0  3.847929  0  0  0.616606  0  4.129528  0  0  0.652572  0  4.125495  0  0  0.213058  0.591739  0  4.131841  0
S  S32  1  0.85371026  0.13099487  0.31674904  1  0  1.330499  0  5.623252  0  0  1.22986  0  6.126982  0  0  1.27843  0  6.106834  0  0  0.509543  1.196817  0  6.138727  0
S  S33  1  0.14629101  0.86900650  0.68325293  1  0  1.330388  0  5.623294  0  0  1.229743  0  6.127002  0  0  1.278313  0  6.106863  0  0  0.509484  1.196696  0  6.138759  0
Br  Br34  1  0.79477076  0.70661739  0.42341225  1  0  0.005872  0  1.393821  0  0  0.008354  0  1.685371  0  0  0.005352  0  1.676425  0  0  0.072133  0.012321  0  1.689306  0
Br  Br35  1  0.20522426  0.29338400  0.57658777  1  0  0.005869  0  1.393856  0  0  0.00835  0  1.685404  0  0  0.005347  0  1.676457  0  0  0.072145  0.012321  0  1.689347  0
O  O36  1  0.68799820  0.04146692  0.40869186  1  0  -0.715816  0  2.205205  0  0  -0.638954  0  2.515271  0  0  -0.667231  0  2.497406  0  0  -0.350464  -0.619016  0  2.523167  0
O  O37  1  0.31200463  0.95853444  0.59130986  1  0  -0.715807  0  2.205249  0  0  -0.63894  0  2.515315  0  0  -0.667219  0  2.497454  0  0  -0.350463  -0.618995  0  2.523199  0
O  O38  1  0.65786649  0.09772910  0.84654082  1  0  -0.837307  0  1.952857  0  0  -0.761257  0  2.154979  0  0  -0.786909  0  2.120744  0  0  -0.578091  -0.741696  0  2.178736  0
O  O39  1  0.34212860  0.90227119  0.15346128  1  0  -0.837291  0  1.952895  0  0  -0.761281  0  2.154992  0  0  -0.786934  0  2.120755  0  0  -0.578105  -0.741721  0  2.178748  0
O  O40  1  0.91614457  0.08111337  0.17967159  1  0  -0.673669  0  2.031591  0  0  -0.613469  0  2.284839  0  0  -0.635458  0  2.269048  0  0  -0.330173  -0.597931  0  2.294751  0
O  O41  1  0.08385681  0.91888584  0.82032959  1  0  -0.673615  0  2.031688  0  0  -0.613414  0  2.284931  0  0  -0.635406  0  2.269143  0  0  -0.330148  -0.597879  0  2.294849  0
O  O42  1  0.75097810  0.88978663  0.05929137  1  0  -0.816377  0  1.883015  0  0  -0.744803  0  2.075294  0  0  -0.768817  0  2.04644  0  0  -0.570713  -0.727758  0  2.096485  0
O  O43  1  0.24901871  0.11021043  0.94071076  1  0  -0.816375  0  1.883085  0  0  -0.744799  0  2.075381  0  0  -0.768812  0  2.046529  0  0  -0.570724  -0.727752  0  2.096573  0
O  O44  1  0.02850148  0.14875445  0.37753356  1  0  -0.670526  0  2.06101  0  0  -0.613658  0  2.350546  0  0  -0.636807  0  2.333273  0  0  -0.339842  -0.597646  0  2.361619  0
O  O45  1  0.97149978  0.85124693  0.62246644  1  0  -0.670504  0  2.06096  0  0  -0.613616  0  2.350477  0  0  -0.636768  0  2.333211  0  0  -0.339824  -0.597602  0  2.361543  0
O  O46  1  0.50284621  0.21459536  0.18383327  1  0  -0.501311  0  2.156335  0  0  -0.449368  0  2.391152  0  0  -0.469583  0  2.379289  0  0  -0.339581  -0.435329  0  2.399674  0
O  O47  1  0.49715822  0.78540494  0.81616534  1  0  -0.501314  0  2.156273  0  0  -0.449399  0  2.391136  0  0  -0.469574  0  2.379197  0  0  -0.339629  -0.435357  0  2.399655  0
O  O48  1  0.22284927  0.62204957  0.13273252  1  0  -0.615342  0  2.125779  0  0  -0.530191  0  2.383697  0  0  -0.561786  0  2.372741  0  0  -0.309503  -0.507987  0  2.390995  0
O  O49  1  0.77715214  0.37794857  0.86726581  1  0  -0.615411  0  2.125808  0  0  -0.53025  0  2.383764  0  0  -0.561842  0  2.372801  0  0  -0.309553  -0.508054  0  2.391061  0
O  O50  1  0.24951773  0.38461400  0.09996839  1  0  -0.624443  0  2.178857  0  0  -0.538723  0  2.441604  0  0  -0.571014  0  2.430815  0  0  -0.316612  -0.516009  0  2.448967  0
O  O51  1  0.75048362  0.61538523  0.90002983  1  0  -0.624412  0  2.17889  0  0  -0.538676  0  2.441655  0  0  -0.570972  0  2.43087  0  0  -0.316583  -0.515968  0  2.449012  0
