# generated using pymatgen
data_InH7(C5O4)2
_symmetry_space_group_name_H-M   'P 1'
_cell_length_a   7.44632136
_cell_length_b   8.52598463
_cell_length_c   9.85800733
_cell_angle_alpha   113.85856814
_cell_angle_beta   92.25782338
_cell_angle_gamma   109.72597520
_symmetry_Int_Tables_number   1
_chemical_formula_structural   InH7(C5O4)2
_chemical_formula_sum   'In2 H14 C20 O16'
_cell_volume   527.41839782
_cell_formula_units_Z   2
loop_
 _symmetry_equiv_pos_site_id
 _symmetry_equiv_pos_as_xyz
  1  'x, y, z'
loop_
 _atom_site_type_symbol
 _atom_site_label
 _atom_site_symmetry_multiplicity
 _atom_site_fract_x
 _atom_site_fract_y
 _atom_site_fract_z
 _atom_site_occupancy
 _atom_site_hle17_bader_spin_density
 _atom_site_hle17_ddec_charge
 _atom_site_hle17_ddec_spin_density
 _atom_site_hle17_ddec_sum_bond_order
 _atom_site_hle17_magmom
 _atom_site_hse06_10hf_bader_spin_density
 _atom_site_hse06_10hf_ddec_charge
 _atom_site_hse06_10hf_ddec_spin_density
 _atom_site_hse06_10hf_ddec_sum_bond_order
 _atom_site_hse06_10hf_magmom
 _atom_site_hse06_bader_spin_density
 _atom_site_hse06_ddec_charge
 _atom_site_hse06_ddec_spin_density
 _atom_site_hse06_ddec_sum_bond_order
 _atom_site_hse06_magmom
 _atom_site_pbe_bader_spin_density
 _atom_site_pbe_cm5_charge
 _atom_site_pbe_ddec_charge
 _atom_site_pbe_ddec_spin_density
 _atom_site_pbe_ddec_sum_bond_order
 _atom_site_pbe_magmom
In  In0  1  0.45898157  0.71580005  0.38572131  1  0  1.715344  0  2.10737  0  0  1.529815  0  2.581057  0  0  1.600421  0  2.520284  0  0  0.785812  1.480487  0  2.622355  0
In  In1  1  0.54101154  0.28415301  0.61424956  1  0  1.715287  0  2.107421  0  0  1.529828  0  2.581139  0  0  1.600412  0  2.520355  0  0  0.785788  1.480475  0  2.622428  0
H  H2  1  0.53613853  0.74886069  0.07718861  1  0  0.122733  0  0.952324  0  0  0.126785  0  1.023953  0  0  0.131215  0  1.019927  0  0  0.113917  0.123645  0  1.026682  0
H  H3  1  0.46385469  0.25115621  0.92282495  1  0  0.122723  0  0.952281  0  0  0.126789  0  1.023894  0  0  0.131221  0  1.019862  0  0  0.113909  0.123646  0  1.026625  0
H  H4  1  0.84474419  0.94855267  0.78261107  1  0  0.118311  0  0.965367  0  0  0.126685  0  1.031412  0  0  0.130246  0  1.028838  0  0  0.110627  0.124224  0  1.033078  0
H  H5  1  0.15527875  0.05144776  0.21739850  1  0  0.118299  0  0.965354  0  0  0.12663  0  1.031435  0  0  0.130193  0  1.028854  0  0  0.11059  0.124172  0  1.033112  0
H  H6  1  0.86145182  0.33852215  0.23510271  1  0  0.136065  0  0.935605  0  0  0.142235  0  1.000316  0  0  0.146622  0  0.997032  0  0  0.115722  0.139093  0  1.003005  0
H  H7  1  0.13855194  0.66150451  0.76490339  1  0  0.136138  0  0.935701  0  0  0.142339  0  1.000346  0  0  0.146727  0  0.997063  0  0  0.115769  0.139198  0  1.003033  0
H  H8  1  0.09640064  0.17428692  0.80938688  1  0  0.090429  0  0.94706  0  0  0.101936  0  1.010608  0  0  0.102869  0  1.010437  0  0  0.112218  0.101174  0  1.010893  0
H  H9  1  0.90361010  0.82571343  0.19061322  1  0  0.090358  0  0.947141  0  0  0.101915  0  1.010644  0  0  0.102849  0  1.010475  0  0  0.11223  0.101154  0  1.01093  0
H  H10  1  0.19496210  0.42041248  0.89512230  1  0  0.126801  0  0.915195  0  0  0.135049  0  0.978129  0  0  0.137627  0  0.975953  0  0  0.124508  0.133096  0  0.979972  0
H  H11  1  0.80504908  0.57958232  0.10487079  1  0  0.126799  0  0.915134  0  0  0.135015  0  0.978134  0  0  0.137594  0  0.975963  0  0  0.1245  0.133064  0  0.979976  0
H  H12  1  0.83841022  0.71972914  0.43590669  1  0  0.447516  0  0.847809  0  0  0.41454  0  0.912377  0  0  0.427207  0  0.894338  0  0  0.299792  0.405455  0  0.925356  0
H  H13  1  0.16158843  0.28027114  0.56409814  1  0  0.447475  0  0.847881  0  0  0.414486  0  0.912471  0  0  0.427156  0  0.89443  0  0  0.299739  0.405401  0  0.925451  0
H  H14  1  0.72636805  0.69246795  0.56844010  1  0  0.440573  0  0.85957  0  0  0.408332  0  0.923873  0  0  0.420196  0  0.906758  0  0  0.303782  0.399799  0  0.936216  0
H  H15  1  0.27362928  0.30753925  0.43155900  1  0  0.440575  0  0.859572  0  0  0.408295  0  0.923937  0  0  0.420159  0  0.906822  0  0  0.30374  0.399766  0  0.936272  0
C  C16  1  0.69302184  0.04798279  0.17213558  1  0  -0.056727  0  3.777514  0  0  -0.029666  0  4.01409  0  0  -0.038627  0  4.036477  0  0  -0.013039  -0.023882  0  3.999278  0
C  C17  1  0.30699079  0.95203561  0.82787901  1  0  -0.056726  0  3.777696  0  0  -0.029564  0  4.014183  0  0  -0.038493  0  4.036588  0  0  -0.013117  -0.023783  0  3.999359  0
C  C18  1  0.62795314  0.86499739  0.05852879  1  0  -0.089519  0  3.692855  0  0  -0.132451  0  3.950735  0  0  -0.129974  0  3.969418  0  0  -0.080235  -0.132779  0  3.936959  0
C  C19  1  0.37205065  0.13500569  0.94147411  1  0  -0.089364  0  3.692778  0  0  -0.132326  0  3.950613  0  0  -0.129844  0  3.969286  0  0  -0.080154  -0.132653  0  3.936836  0
C  C20  1  0.68237679  0.83170172  0.91870812  1  0  -0.045646  0  3.786154  0  0  -0.019914  0  4.025395  0  0  -0.028702  0  4.04835  0  0  -0.015479  -0.014281  0  4.009316  0
C  C21  1  0.31761537  0.16829575  0.08129657  1  0  -0.045755  0  3.786164  0  0  -0.020022  0  4.025445  0  0  -0.028819  0  4.048401  0  0  -0.015588  -0.014385  0  4.009367  0
C  C22  1  0.80221101  0.97869960  0.89167343  1  0  -0.172089  0  3.679124  0  0  -0.211817  0  3.937416  0  0  -0.213342  0  3.95713  0  0  -0.090893  -0.209996  0  3.923612  0
C  C23  1  0.19777185  0.02129502  0.10831683  1  0  -0.172017  0  3.67923  0  0  -0.21172  0  3.937515  0  0  -0.213239  0  3.957223  0  0  -0.090797  -0.20991  0  3.92372  0
C  C24  1  0.86664588  0.16060797  0.00647703  1  0  0.272695  0  3.793682  0  0  0.265559  0  4.0603  0  0  0.274222  0  4.076702  0  0  0.089752  0.259163  0  4.049456  0
C  C25  1  0.13335684  0.83939927  0.99352223  1  0  0.272732  0  3.793853  0  0  0.265631  0  4.060373  0  0  0.274297  0  4.076774  0  0  0.089773  0.259239  0  4.049523  0
C  C26  1  0.80906424  0.19598182  0.14612561  1  0  -0.133738  0  3.625738  0  0  -0.17353  0  3.883117  0  0  -0.17321  0  3.898595  0  0  -0.077559  -0.174538  0  3.873751  0
C  C27  1  0.19094837  0.80401992  0.85387096  1  0  -0.133839  0  3.625824  0  0  -0.173719  0  3.883169  0  0  -0.173405  0  3.898643  0  0  -0.077577  -0.17473  0  3.873814  0
C  C28  1  0.64434503  0.08418280  0.32409992  1  0  0.710491  0  3.826539  0  0  0.654586  0  4.12141  0  0  0.69328  0  4.108681  0  0  0.250117  0.627969  0  4.130082  0
C  C29  1  0.35565718  0.91582305  0.67590391  1  0  0.710234  0  3.826669  0  0  0.654239  0  4.121624  0  0  0.692843  0  4.109032  0  0  0.24998  0.627629  0  4.130274  0
C  C30  1  0.62278906  0.63631123  0.80409868  1  0  0.656462  0  3.843746  0  0  0.598779  0  4.141468  0  0  0.635381  0  4.13273  0  0  0.229952  0.573878  0  4.146763  0
C  C31  1  0.37720018  0.36366542  0.19590268  1  0  0.656509  0  3.843796  0  0  0.598738  0  4.141573  0  0  0.635348  0  4.132835  0  0  0.229921  0.573835  0  4.146876  0
C  C32  1  0.05954809  0.29768121  0.86153707  1  0  -0.081394  0  3.618516  0  0  -0.138287  0  3.879221  0  0  -0.135568  0  3.880103  0  0  -0.063113  -0.140342  0  3.878946  0
C  C33  1  0.94046238  0.70232191  0.13845891  1  0  -0.081176  0  3.618326  0  0  -0.138145  0  3.879108  0  0  -0.135439  0  3.880012  0  0  -0.063067  -0.140196  0  3.87883  0
C  C34  1  0.92092642  0.29595929  0.74288441  1  0  0.689057  0  3.854486  0  0  0.630334  0  4.174108  0  0  0.665705  0  4.163909  0  0  0.225624  0.606239  0  4.18042  0
C  C35  1  0.07908139  0.70404382  0.25711658  1  0  0.689036  0  3.854594  0  0  0.630375  0  4.174158  0  0  0.66575  0  4.163956  0  0  0.22568  0.606277  0  4.180474  0
O  O36  1  0.64152223  0.97265239  0.37980238  1  0  -0.690224  0  2.096583  0  0  -0.627189  0  2.362851  0  0  -0.656066  0  2.347291  0  0  -0.291795  -0.606957  0  2.372996  0
O  O37  1  0.35844576  0.02735187  0.62020407  1  0  -0.690059  0  2.096595  0  0  -0.627041  0  2.362926  0  0  -0.655906  0  2.347453  0  0  -0.291744  -0.606797  0  2.373045  0
O  O38  1  0.73864857  0.75163717  0.49781219  1  0  -0.855568  0  1.862696  0  0  -0.789559  0  2.061677  0  0  -0.814581  0  2.025989  0  0  -0.548439  -0.772128  0  2.086701  0
O  O39  1  0.26134542  0.24836169  0.50218289  1  0  -0.85553  0  1.862633  0  0  -0.789505  0  2.061641  0  0  -0.814524  0  2.025949  0  0  -0.548373  -0.772072  0  2.086655  0
O  O40  1  0.61392821  0.23311993  0.39542033  1  0  -0.622352  0  2.008673  0  0  -0.554104  0  2.255723  0  0  -0.584052  0  2.24319  0  0  -0.26945  -0.533405  0  2.263685  0
O  O41  1  0.38607442  0.76690395  0.60458071  1  0  -0.622283  0  2.008824  0  0  -0.553937  0  2.255787  0  0  -0.583857  0  2.243304  0  0  -0.269367  -0.533276  0  2.263812  0
O  O42  1  0.50622804  0.50397807  0.82660932  1  0  -0.614685  0  1.961847  0  0  -0.552649  0  2.202586  0  0  -0.581012  0  2.193142  0  0  -0.277123  -0.53324  0  2.208885  0
O  O43  1  0.49376014  0.49600272  0.17338840  1  0  -0.614642  0  1.962006  0  0  -0.552574  0  2.202764  0  0  -0.580946  0  2.193322  0  0  -0.27709  -0.533167  0  2.209069  0
O  O44  1  0.69419619  0.59513563  0.68267682  1  0  -0.6568  0  2.015742  0  0  -0.586815  0  2.251433  0  0  -0.615511  0  2.238884  0  0  -0.284541  -0.566846  0  2.25972  0
O  O45  1  0.30578895  0.40483405  0.31732403  1  0  -0.656898  0  2.015832  0  0  -0.586725  0  2.251389  0  0  -0.615427  0  2.238845  0  0  -0.28442  -0.56675  0  2.259654  0
O  O46  1  0.99233342  0.31390474  0.99792211  1  0  -0.248319  0  2.376895  0  0  -0.178421  0  2.60952  0  0  -0.196858  0  2.615338  0  0  -0.168163  -0.16515  0  2.605165  0
O  O47  1  0.00767601  0.68610253  0.00207328  1  0  -0.248428  0  2.376999  0  0  -0.178468  0  2.609564  0  0  -0.196902  0  2.615384  0  0  -0.168211  -0.165198  0  2.605207  0
O  O48  1  0.74630397  0.27242355  0.76472874  1  0  -0.65353  0  2.053501  0  0  -0.58795  0  2.317194  0  0  -0.619693  0  2.307426  0  0  -0.287774  -0.56603  0  2.323178  0
O  O49  1  0.25369752  0.72757396  0.23526200  1  0  -0.653548  0  2.053561  0  0  -0.588014  0  2.317267  0  0  -0.619765  0  2.307501  0  0  -0.28783  -0.566099  0  2.323257  0
O  O50  1  0.98298694  0.31835424  0.63298728  1  0  -0.605898  0  1.963613  0  0  -0.552392  0  2.182259  0  0  -0.577885  0  2.171316  0  0  -0.294259  -0.534735  0  2.189919  0
O  O51  1  0.01701602  0.68165022  0.36701203  1  0  -0.605886  0  1.963735  0  0  -0.552407  0  2.182371  0  0  -0.577896  0  2.171425  0  0  -0.294245  -0.53475  0  2.190036  0
