# generated using pymatgen
data_CoH18C18(NO)4
_symmetry_space_group_name_H-M   'P 1'
_cell_length_a   7.63490887
_cell_length_b   8.08139638
_cell_length_c   14.65165306
_cell_angle_alpha   101.42793461
_cell_angle_beta   90.00066611
_cell_angle_gamma   90.00112131
_symmetry_Int_Tables_number   1
_chemical_formula_structural   CoH18C18(NO)4
_chemical_formula_sum   'Co2 H36 C36 N8 O8'
_cell_volume   886.09518577
_cell_formula_units_Z   2
loop_
 _symmetry_equiv_pos_site_id
 _symmetry_equiv_pos_as_xyz
  1  'x, y, z'
loop_
 _atom_site_type_symbol
 _atom_site_label
 _atom_site_symmetry_multiplicity
 _atom_site_fract_x
 _atom_site_fract_y
 _atom_site_fract_z
 _atom_site_occupancy
 _atom_site_hle17_ddec_charge
 _atom_site_hle17_ddec_spin_density
 _atom_site_hle17_ddec_sum_bond_order
 _atom_site_hle17_magmom
 _atom_site_hse06_10hf_ddec_charge
 _atom_site_hse06_10hf_ddec_spin_density
 _atom_site_hse06_10hf_ddec_sum_bond_order
 _atom_site_hse06_10hf_magmom
 _atom_site_hse06_ddec_charge
 _atom_site_hse06_ddec_spin_density
 _atom_site_hse06_ddec_sum_bond_order
 _atom_site_hse06_magmom
 _atom_site_pbe_cm5_charge
 _atom_site_pbe_ddec_charge
 _atom_site_pbe_ddec_spin_density
 _atom_site_pbe_ddec_sum_bond_order
 _atom_site_pbe_magmom
Co  Co0  1  0.59025143  0.75000888  0.75000102  1  0.953223  2.808929  1.960753  2.534  0.884555  2.82538  2.421801  2.594  0.980782  2.871675  2.33315  2.683  0.666628  0.807217  2.779564  2.489397  2.508
Co  Co1  1  0.40974450  0.24999376  0.24999971  1  0.953262  2.808934  1.960706  2.534  0.884595  2.825385  2.421711  2.594  0.980823  2.871678  2.33306  2.683  0.666627  0.807273  2.779576  2.489275  2.508
H  H2  1  0.96165290  0.02647688  0.59846249  1  0.107506  -0.000211  0.920692  0.0  0.124942  5.1e-05  0.976346  0.0  0.127969  2e-05  0.973795  0.0  0.100982  0.12283  9e-05  0.978192  0.0
H  H3  1  0.96162579  0.47357472  0.90155264  1  0.107638  -0.000212  0.920995  0.0  0.125072  5.1e-05  0.976563  0.0  0.128105  2e-05  0.974046  0.0  0.101026  0.12294  9e-05  0.978388  0.0
H  H4  1  0.03833386  0.97353469  0.40153312  1  0.107541  -0.000212  0.920725  0.0  0.124953  5.1e-05  0.976361  0.0  0.127963  2e-05  0.973832  0.0  0.100991  0.122845  9e-05  0.978208  0.0
H  H5  1  0.03837145  0.52642674  0.09844250  1  0.107611  -0.000214  0.920953  0.0  0.125048  5.1e-05  0.976558  0.0  0.128088  2e-05  0.974035  0.0  0.10101  0.122922  8.9e-05  0.978383  0.0
H  H6  1  0.84089437  0.19928147  0.65843374  1  0.108664  -0.000264  0.957667  0.0  0.123705  6e-06  1.021702  0.0  0.125851  -1.4e-05  1.020653  0.0  0.102607  0.122183  3.7e-05  1.02257  0.0
H  H7  1  0.84088963  0.30075498  0.84158370  1  0.108819  -0.000265  0.957743  0.0  0.123754  6e-06  1.021821  0.0  0.125916  -1.4e-05  1.020789  0.0  0.102609  0.122211  3.7e-05  1.022672  0.0
H  H8  1  0.15909371  0.80072626  0.34156484  1  0.108783  -0.000264  0.957572  0.0  0.123664  6e-06  1.021779  0.0  0.125808  -1.4e-05  1.020733  0.0  0.102557  0.122146  3.7e-05  1.022646  0.0
H  H9  1  0.15911023  0.69924772  0.15841362  1  0.108752  -0.000266  0.957675  0.0  0.123725  6e-06  1.021743  0.0  0.125887  -1.4e-05  1.020716  0.0  0.102598  0.122182  3.7e-05  1.022597  0.0
H  H10  1  0.04541609  0.36806452  0.55864197  1  0.089911  -4.2e-05  0.944938  0.0  0.102864  -1.8e-05  1.010358  0.0  0.103851  -2e-05  1.010143  0.0  0.114531  0.101905  -1.4e-05  1.010808  0.0
H  H11  1  0.04540720  0.13193190  0.94135859  1  0.089928  -3.9e-05  0.944922  0.0  0.10293  -1.8e-05  1.010302  0.0  0.103915  -2e-05  1.010091  0.0  0.114574  0.101972  -1.4e-05  1.010739  0.0
H  H12  1  0.95460211  0.63190904  0.44135887  1  0.090055  -4.1e-05  0.944827  0.0  0.103034  -1.8e-05  1.010214  0.0  0.104019  -2e-05  1.009999  0.0  0.114582  0.102081  -1.4e-05  1.010649  0.0
H  H13  1  0.95460052  0.86808842  0.05864347  1  0.090028  -4.1e-05  0.944984  0.0  0.103043  -1.8e-05  1.010365  0.0  0.104031  -2e-05  1.010145  0.0  0.114615  0.102076  -1.4e-05  1.010819  0.0
H  H14  1  0.11639923  0.36420787  0.44087610  1  0.098499  -4e-05  0.9331  0.0  0.108601  -6.6e-05  1.00033  0.0  0.11036  -0.000105  0.99895  0.0  0.113882  0.107168  -8e-06  1.001418  0.0
H  H15  1  0.11640825  0.13578633  0.05912231  1  0.098363  -3.8e-05  0.9332  0.0  0.108536  -6.6e-05  1.000394  0.0  0.110294  -0.000105  0.999011  0.0  0.113844  0.107076  -8e-06  1.001511  0.0
H  H16  1  0.88361373  0.63576440  0.55912664  1  0.098464  -3.9e-05  0.932914  0.0  0.108579  -6.6e-05  1.000191  0.0  0.110333  -0.000105  0.998815  0.0  0.113859  0.107148  -8e-06  1.00127  0.0
H  H17  1  0.88359554  0.86423279  0.94087620  1  0.098447  -3.9e-05  0.932929  0.0  0.108629  -6.6e-05  1.00016  0.0  0.110382  -0.000105  0.998788  0.0  0.113831  0.107182  -9e-06  1.001255  0.0
H  H18  1  0.23493673  0.51323306  0.68509030  1  0.095938  -6.6e-05  0.983127  0.0  0.100984  0.000103  1.053331  0.0  0.102393  5.5e-05  1.052597  0.0  0.130883  0.099797  0.000158  1.05409  0.0
H  H19  1  0.23492110  0.98676360  0.81490649  1  0.096052  -6.7e-05  0.98295  0.0  0.100963  0.000103  1.053277  0.0  0.102369  5.4e-05  1.052552  0.0  0.130882  0.099772  0.000157  1.054039  0.0
H  H20  1  0.76505528  0.48677206  0.31491412  1  0.095896  -6.6e-05  0.98315  0.0  0.100953  0.000104  1.053346  0.0  0.102369  5.5e-05  1.052592  0.0  0.130883  0.099765  0.000158  1.054103  0.0
H  H21  1  0.76506959  0.01321886  0.18509058  1  0.095984  -6.6e-05  0.98299  0.0  0.100931  0.000103  1.053285  0.0  0.102329  5.4e-05  1.052582  0.0  0.130843  0.099742  0.000157  1.054046  0.0
H  H22  1  0.56522387  0.79868590  0.54382988  1  0.112615  -8.8e-05  0.953754  0.0  0.12387  -2e-06  1.008746  0.001  0.126959  -6.5e-05  1.006982  0.0  0.119591  0.121502  7.7e-05  1.01021  0.001
H  H23  1  0.56520636  0.70131370  0.95616789  1  0.112514  -8.8e-05  0.9539  0.0  0.123805  -2e-06  1.008845  0.0  0.126895  -6.5e-05  1.007078  0.0  0.119499  0.121434  7.7e-05  1.010311  0.001
H  H24  1  0.43480088  0.20127136  0.45616160  1  0.112565  -8.7e-05  0.954032  0.0  0.123887  -2e-06  1.008926  0.001  0.126979  -6.5e-05  1.007159  0.0  0.119537  0.121519  7.7e-05  1.010394  0.001
H  H25  1  0.43480661  0.29872156  0.04385020  1  0.112528  -8.8e-05  0.9539  0.0  0.123895  -2e-06  1.008756  0.001  0.126983  -6.5e-05  1.00699  0.0  0.119573  0.121524  7.7e-05  1.010221  0.001
H  H26  1  0.26391970  0.02283291  0.60903443  1  0.087714  -6.4e-05  0.962378  0.0  0.097828  -4.2e-05  1.024337  0.0  0.100654  -4.2e-05  1.023843  0.0  0.094339  0.095838  -4.1e-05  1.024741  0.0
H  H27  1  0.26392780  0.47721673  0.89100421  1  0.087656  -6.4e-05  0.962455  0.0  0.097741  -4.2e-05  1.024457  0.0  0.100569  -4.2e-05  1.023962  0.0  0.094269  0.095747  -4.1e-05  1.024859  0.0
H  H28  1  0.73606837  0.97716474  0.39096232  1  0.087765  -6.3e-05  0.962448  0.0  0.097855  -4.2e-05  1.02442  0.0  0.10068  -4.2e-05  1.023926  0.0  0.094358  0.095864  -4.1e-05  1.024829  0.0
H  H29  1  0.73607075  0.52278470  0.10899297  1  0.087664  -6.4e-05  0.962417  0.0  0.097745  -4.2e-05  1.024422  0.0  0.100573  -4.2e-05  1.023928  0.0  0.094274  0.095748  -4.1e-05  1.024821  0.0
H  H30  1  0.54502263  0.13566762  0.67775193  1  0.089472  -0.000147  0.978424  0.0  0.102019  -9.9e-05  1.037054  0.0  0.104927  -0.000124  1.03629  0.0  0.09717  0.09988  -6.6e-05  1.037608  0.0
H  H31  1  0.54502674  0.36437626  0.82229459  1  0.089456  -0.000147  0.978481  0.0  0.102051  -9.9e-05  1.037048  0.0  0.104954  -0.000124  1.036292  0.0  0.097193  0.09991  -6.6e-05  1.037594  0.0
H  H32  1  0.45496413  0.86431605  0.32224937  1  0.089543  -0.000148  0.978431  0.0  0.102154  -9.9e-05  1.036961  0.0  0.105062  -0.000124  1.036197  0.0  0.097183  0.100012  -6.6e-05  1.037525  0.0
H  H33  1  0.45496920  0.63561504  0.17770349  1  0.089421  -0.000147  0.978532  0.0  0.102055  -9.9e-05  1.037039  0.0  0.104953  -0.000124  1.036287  0.0  0.0972  0.099914  -6.6e-05  1.037595  0.0
H  H34  1  0.30738793  0.63691282  0.42087539  1  0.122829  0.000172  0.981403  0.0  0.129366  0.000184  1.04756  0.0  0.132232  0.000116  1.046075  0.0  0.12164  0.127152  0.000258  1.048909  0.0
H  H35  1  0.30737489  0.86307534  0.07911855  1  0.122845  0.000173  0.981487  0.0  0.129372  0.000184  1.047661  0.0  0.132226  0.000116  1.046208  0.0  0.121662  0.127159  0.000258  1.049014  0.0
H  H36  1  0.69263420  0.36303808  0.57911810  1  0.122779  0.000173  0.981559  0.0  0.12933  0.000184  1.047664  0.0  0.132181  0.000116  1.046232  0.0  0.121635  0.127123  0.000258  1.049002  0.0
H  H37  1  0.69263676  0.13696892  0.92089032  1  0.122863  0.000173  0.981638  0.0  0.129393  0.000184  1.047746  0.0  0.132261  0.000116  1.046266  0.0  0.121655  0.127174  0.000257  1.049107  0.0
C  C38  1  0.84543302  0.98991798  0.72640435  1  0.681631  -0.004822  3.863177  -0.005  0.644418  0.001959  4.162797  0.001  0.679102  0.001091  4.158869  0.001  0.206021  0.619824  0.002967  4.164125  0.002
C  C39  1  0.84544135  0.51011390  0.77359402  1  0.681837  -0.004822  3.863349  -0.005  0.644518  0.00196  4.163042  0.001  0.679221  0.001092  4.159124  0.001  0.20613  0.619905  0.002969  4.164361  0.002
C  C40  1  0.15455767  0.01009107  0.27359097  1  0.681561  -0.004823  3.8632  -0.005  0.64436  0.001958  4.162757  0.001  0.679045  0.001091  4.158829  0.001  0.206007  0.619762  0.002967  4.164094  0.001
C  C41  1  0.15455720  0.48989276  0.22639147  1  0.681793  -0.004828  3.862837  -0.005  0.644458  0.001958  4.162592  0.001  0.679169  0.001091  4.158669  0.001  0.206076  0.61982  0.002967  4.163932  0.002
C  C42  1  0.10296323  0.18414249  0.71018313  1  0.068305  0.000946  3.722348  0.001  0.083934  0.00077  3.957152  0.001  0.084577  0.000477  3.979522  0.001  -0.011097  0.083421  0.001141  3.942051  0.002
C  C43  1  0.10296425  0.31590904  0.78984656  1  0.068206  0.000942  3.722674  0.001  0.083964  0.00077  3.957261  0.001  0.084628  0.000478  3.979654  0.001  -0.011215  0.083416  0.001141  3.942135  0.002
C  C44  1  0.89702746  0.81586531  0.28981068  1  0.06834  0.000957  3.722451  0.001  0.084073  0.000771  3.957148  0.001  0.084719  0.000478  3.979512  0.001  -0.01113  0.083562  0.001141  3.942044  0.002
C  C45  1  0.89702906  0.68409751  0.21014643  1  0.068491  0.000931  3.722457  0.001  0.084058  0.00077  3.957274  0.001  0.084725  0.000478  3.979672  0.001  -0.011152  0.083509  0.00114  3.942143  0.002
C  C46  1  0.93688145  0.10254622  0.66815935  1  -0.302355  0.003169  3.709362  0.004  -0.348094  0.001702  3.951  0.002  -0.353166  0.000976  3.957037  0.001  -0.163868  -0.344468  0.002517  3.946963  0.003
C  C47  1  0.93687733  0.39749840  0.83186575  1  -0.302648  0.003175  3.709756  0.004  -0.348234  0.001702  3.951141  0.002  -0.353377  0.000977  3.957288  0.001  -0.163952  -0.344497  0.002518  3.946952  0.003
C  C48  1  0.06310662  0.89746282  0.33183665  1  -0.302436  0.003171  3.709553  0.004  -0.348039  0.001701  3.951115  0.002  -0.353092  0.000976  3.957157  0.001  -0.163777  -0.344418  0.002517  3.947083  0.003
C  C49  1  0.06311729  0.60250808  0.16813201  1  -0.302531  0.003178  3.709647  0.005  -0.348121  0.001702  3.951195  0.002  -0.353273  0.000976  3.957341  0.001  -0.163865  -0.344384  0.002518  3.947023  0.003
C  C50  1  0.07847112  0.44476952  0.50730698  1  -0.020376  0.000622  3.589996  0.001  -0.083736  0.000576  3.843812  0.001  -0.079732  0.000408  3.852729  0.0  -0.050839  -0.086227  0.000757  3.837961  0.001
C  C51  1  0.07846953  0.05522507  0.99269221  1  -0.020134  0.000613  3.589792  0.001  -0.083614  0.000576  3.843768  0.001  -0.079606  0.000408  3.852678  0.0  -0.050773  -0.086084  0.000757  3.837907  0.001
C  C52  1  0.92154577  0.55519902  0.49269124  1  -0.020527  0.000616  3.589619  0.001  -0.084006  0.000576  3.843591  0.001  -0.079987  0.000408  3.852485  0.0  -0.050953  -0.086498  0.000757  3.837735  0.001
C  C53  1  0.92154212  0.94479900  0.00731301  1  -0.020509  0.000618  3.589621  0.001  -0.084124  0.000576  3.843756  0.001  -0.080108  0.000408  3.852653  0.0  -0.050967  -0.086595  0.000757  3.837899  0.001
C  C54  1  0.29280518  0.57091201  0.63147161  1  0.169008  -0.004935  3.639648  -0.003  0.112244  0.002508  3.90421  0.003  0.12809  0.001924  3.919239  0.003  0.145258  0.101247  0.00307  3.893979  0.004
C  C55  1  0.29279077  0.92908834  0.86852664  1  0.169033  -0.004922  3.639411  -0.003  0.112401  0.002507  3.903998  0.003  0.128244  0.001924  3.919026  0.003  0.145428  0.101408  0.003069  3.893767  0.004
C  C56  1  0.70719992  0.42907798  0.36852905  1  0.169231  -0.00494  3.639902  -0.003  0.112461  0.002506  3.904452  0.003  0.128305  0.001923  3.919486  0.003  0.145377  0.101459  0.003068  3.894221  0.004
C  C57  1  0.70720778  0.07091552  0.13147696  1  0.169247  -0.004955  3.639302  -0.003  0.112581  0.002507  3.90385  0.003  0.128428  0.001924  3.918864  0.003  0.145475  0.101577  0.003069  3.89363  0.004
C  C58  1  0.45782168  0.71723124  0.55469427  1  -0.001686  -0.001216  3.754917  0.0  -0.032509  0.001816  4.024751  0.003  -0.029741  0.00132  4.045932  0.002  -0.007192  -0.034873  0.002326  4.01071  0.003
C  C59  1  0.45781096  0.78276619  0.94530260  1  -0.0015  -0.001203  3.754927  0.0  -0.032325  0.001815  4.024728  0.003  -0.029552  0.001319  4.045901  0.002  -0.007066  -0.034687  0.002325  4.01068  0.003
C  C60  1  0.54219390  0.28273734  0.44530123  1  -0.001631  -0.001221  3.755018  0.0  -0.032499  0.001815  4.024833  0.003  -0.029729  0.00132  4.04601  0.002  -0.007106  -0.034861  0.002325  4.010796  0.003
C  C61  1  0.54219938  0.21725400  0.05470899  1  -0.001442  -0.001214  3.755053  0.0  -0.03233  0.001816  4.024853  0.003  -0.029559  0.00132  4.046031  0.002  -0.007032  -0.034695  0.002325  4.010803  0.003
C  C62  1  0.26360715  0.12398731  0.67077630  1  -0.134223  0.000433  3.760981  0.0  -0.150297  0.000411  4.007305  0.0  -0.153574  0.000239  4.028831  0.0  -0.098055  -0.14782  0.000633  3.99236  0.001
C  C63  1  0.26360511  0.37606742  0.82925951  1  -0.134089  0.000436  3.760916  0.0  -0.15018  0.000411  4.007306  0.0  -0.153457  0.000239  4.028823  0.0  -0.097947  -0.147702  0.000633  3.992371  0.001
C  C64  1  0.73638093  0.87601286  0.32922074  1  -0.134418  0.000421  3.760878  0.0  -0.150465  0.000411  4.007195  0.0  -0.153743  0.000238  4.028722  0.0  -0.098089  -0.147984  0.000632  3.992251  0.001
C  C65  1  0.73638689  0.62393657  0.17073591  1  -0.134288  0.000445  3.760921  0.001  -0.150299  0.000411  4.007345  0.0  -0.15358  0.000239  4.028864  0.0  -0.097993  -0.147817  0.000633  3.992398  0.001
C  C66  1  0.42290946  0.18762217  0.70966360  1  -0.077503  0.0003  3.794313  0.0  -0.095275  0.000394  4.051638  0.0  -0.097795  0.000198  4.074255  0.0  -0.10066  -0.093269  0.000662  4.035921  0.001
C  C67  1  0.42290648  0.31243068  0.79037706  1  -0.077773  0.000298  3.794466  0.0  -0.095613  0.000394  4.051845  0.0  -0.098136  0.000198  4.074472  0.0  -0.100711  -0.093598  0.000662  4.036113  0.001
C  C68  1  0.57707862  0.81236789  0.29033297  1  -0.07759  0.000312  3.794134  0.0  -0.095425  0.000394  4.051487  0.0  -0.097946  0.000198  4.074103  0.0  -0.100672  -0.093416  0.000662  4.035775  0.001
C  C69  1  0.57708160  0.68756318  0.20961926  1  -0.077684  0.000286  3.79444  0.0  -0.095537  0.000394  4.051824  0.0  -0.098055  0.000198  4.074452  0.0  -0.10071  -0.093519  0.000661  4.036088  0.001
C  C70  1  0.33118737  0.64168283  0.49420012  1  -0.068353  0.002169  3.671189  0.003  -0.108301  0.000811  3.928563  0.001  -0.107361  0.000203  3.947688  0.001  -0.001325  -0.108957  0.001375  3.916285  0.002
C  C71  1  0.33117392  0.85831333  0.00579828  1  -0.068408  0.002157  3.67121  0.003  -0.108355  0.000811  3.928595  0.001  -0.107418  0.000203  3.947709  0.001  -0.00133  -0.109011  0.001375  3.916314  0.002
C  C72  1  0.66883083  0.35827943  0.50579534  1  -0.068367  0.00217  3.671299  0.003  -0.108339  0.000811  3.9287  0.001  -0.107412  0.000203  3.947823  0.001  -0.001357  -0.108994  0.001375  3.916416  0.002
C  C73  1  0.66883249  0.14171949  0.99421339  1  -0.068418  0.002166  3.671497  0.003  -0.108368  0.00081  3.928908  0.001  -0.107433  0.000202  3.948039  0.001  -0.001377  -0.109018  0.001375  3.9166  0.002
N  N74  1  0.43327565  0.67156973  0.64035282  1  -0.398166  0.039219  3.350744  0.061  -0.350844  0.029319  3.676049  0.036  -0.383163  0.023149  3.690773  0.028  -0.368282  -0.326741  0.034771  3.665973  0.043
N  N75  1  0.43326275  0.82843478  0.85964403  1  -0.398406  0.039216  3.350632  0.061  -0.351124  0.02932  3.675974  0.036  -0.383445  0.023149  3.690694  0.028  -0.368483  -0.327029  0.034773  3.665906  0.043
N  N76  1  0.56673600  0.32841903  0.35964633  1  -0.398281  0.039229  3.350991  0.061  -0.350971  0.029324  3.67633  0.036  -0.383294  0.023153  3.69106  0.028  -0.368323  -0.32687  0.034778  3.666262  0.043
N  N77  1  0.56674104  0.17157283  0.14036273  1  -0.398516  0.03923  3.350856  0.061  -0.351222  0.029324  3.676228  0.036  -0.383544  0.023153  3.690945  0.028  -0.368551  -0.327125  0.034779  3.666167  0.043
N  N78  1  0.22824002  0.54940053  0.54375637  1  -0.047053  0.002172  3.552442  0.004  0.050689  0.002599  3.762157  0.004  0.035955  0.002018  3.788023  0.004  -0.237269  0.060203  0.003166  3.744979  0.005
N  N79  1  0.22822931  0.95059475  0.95623955  1  -0.047069  0.002174  3.552555  0.004  0.050688  0.002598  3.762285  0.004  0.035956  0.002018  3.788147  0.004  -0.237358  0.0602  0.003165  3.7451  0.005
N  N80  1  0.77176901  0.45057563  0.45623999  1  -0.047108  0.002175  3.552376  0.004  0.05066  0.002599  3.762109  0.004  0.035927  0.002018  3.787968  0.004  -0.237347  0.060173  0.003166  3.744932  0.005
N  N81  1  0.77177317  0.04942048  0.04376535  1  -0.047248  0.002179  3.552341  0.004  0.050553  0.0026  3.762074  0.004  0.035818  0.002019  3.787928  0.004  -0.237357  0.06007  0.003167  3.744881  0.005
O  O82  1  0.72619493  0.89158933  0.68178055  1  -0.640949  0.054525  2.094637  0.091  -0.602496  0.03934  2.387632  0.059  -0.646812  0.02893  2.375451  0.043  -0.331869  -0.566996  0.049464  2.39348  0.074
O  O83  1  0.72618544  0.60842742  0.81822083  1  -0.641072  0.054547  2.094246  0.091  -0.60269  0.039352  2.387389  0.059  -0.647011  0.028937  2.3752  0.043  -0.332051  -0.567186  0.049478  2.393251  0.074
O  O84  1  0.27380756  0.10840698  0.31822083  1  -0.640882  0.054537  2.094319  0.091  -0.602478  0.039345  2.387327  0.059  -0.6468  0.028932  2.375157  0.043  -0.331869  -0.566974  0.049469  2.393176  0.074
O  O85  1  0.27380394  0.39158145  0.18178607  1  -0.640881  0.054509  2.094643  0.091  -0.602442  0.039329  2.387792  0.059  -0.64675  0.028921  2.375594  0.043  -0.331827  -0.566945  0.049449  2.39366  0.074
O  O86  1  0.88079793  0.99958795  0.81031658  1  -0.617905  0.003699  1.969976  0.007  -0.576032  0.004987  2.205747  0.008  -0.601792  0.003407  2.199488  0.006  -0.309643  -0.557055  0.006874  2.209394  0.011
O  O87  1  0.88082385  0.50045319  0.68970216  1  -0.617876  0.003692  1.970764  0.007  -0.575913  0.004982  2.206539  0.008  -0.601664  0.003404  2.200277  0.006  -0.309555  -0.55695  0.006866  2.210206  0.011
O  O88  1  0.11918884  0.00043240  0.18968343  1  -0.617876  0.003698  1.970175  0.007  -0.575981  0.004987  2.205926  0.008  -0.601757  0.003407  2.199707  0.006  -0.309627  -0.556996  0.006873  2.209566  0.011
O  O89  1  0.11914982  0.49956699  0.31030944  1  -0.618103  0.003701  1.969562  0.007  -0.57621  0.004987  2.205426  0.008  -0.601973  0.003408  2.199161  0.006  -0.309771  -0.557231  0.006875  2.20909  0.011
