# generated using pymatgen
data_CdH16C23N2O5
_symmetry_space_group_name_H-M   'P 1'
_cell_length_a   15.87368848
_cell_length_b   16.75593856
_cell_length_c   17.07706976
_cell_angle_alpha   119.36646531
_cell_angle_beta   109.93433691
_cell_angle_gamma   89.99939492
_symmetry_Int_Tables_number   1
_chemical_formula_structural   CdH16C23N2O5
_chemical_formula_sum   'Cd4 H64 C92 N8 O20'
_cell_volume   3642.99374632
_cell_formula_units_Z   4
loop_
 _symmetry_equiv_pos_site_id
 _symmetry_equiv_pos_as_xyz
  1  'x, y, z'
loop_
 _atom_site_type_symbol
 _atom_site_label
 _atom_site_symmetry_multiplicity
 _atom_site_fract_x
 _atom_site_fract_y
 _atom_site_fract_z
 _atom_site_occupancy
 _atom_site_pbe_bader_charge
 _atom_site_pbe_bader_spin_density
 _atom_site_pbe_cm5_charge
 _atom_site_pbe_ddec_charge
 _atom_site_pbe_ddec_spin_density
 _atom_site_pbe_ddec_sum_bond_order
 _atom_site_pbe_magmom
Cd  Cd0  1  0.87378525  0.96507357  0.49391843  1  1.283674  0  0.77344  0.883834  0  2.266245  0
Cd  Cd1  1  0.62624731  0.47119958  0.50616926  1  1.284573  0  0.773516  0.884032  0  2.26537  0
Cd  Cd2  1  0.12621444  0.03492594  0.50608072  1  1.283677  0  0.773449  0.883862  0  2.26622  0
Cd  Cd3  1  0.37375119  0.52879743  0.49382809  1  1.284584  0  0.773544  0.884038  0  2.265269  0
H  H4  1  0.90412129  0.17193033  0.68165041  1  0.14376  0  0.118039  0.095012  0  1.018022  0
H  H5  1  0.59584987  0.49027351  0.31833304  1  0.169827  0  0.118527  0.095922  0  1.017055  0
H  H6  1  0.09587921  0.82806967  0.31834991  1  0.143772  0  0.118055  0.095047  0  1.01799  0
H  H7  1  0.40415172  0.50972635  0.68166923  1  0.169841  0  0.118515  0.095888  0  1.017093  0
H  H8  1  0.33625679  0.31893054  0.31829604  1  0.105935  0  0.120375  0.093869  0  0.995304  0
H  H9  1  0.16367135  0.00060457  0.68158634  1  0.114897  0  0.120422  0.093662  0  0.995246  0
H  H10  1  0.66374099  0.68106922  0.68170056  1  0.105856  0  0.120347  0.093844  0  0.995329  0
H  H11  1  0.83633371  0.99939492  0.31841276  1  0.114927  0  0.1204  0.093679  0  0.995238  0
H  H12  1  0.22983985  0.22015627  0.14487632  1  0.036953  0  0.108113  0.111929  0  0.99829  0
H  H13  1  0.27000829  0.07514334  0.85502263  1  0.079534  0  0.107977  0.111505  0  0.997963  0
H  H14  1  0.77015861  0.77984371  0.85512049  1  0.036955  0  0.108141  0.11199  0  0.998223  0
H  H15  1  0.72999811  0.92485482  0.14497515  1  0.079534  0  0.107921  0.111371  0  0.998065  0
H  H16  1  0.31454555  0.56251665  0.31242493  1  0.130318  0  0.119402  0.092548  0  1.00541  0
H  H17  1  0.18553102  0.25005280  0.68747468  1  0.120703  0  0.119282  0.092206  0  1.005429  0
H  H18  1  0.68544902  0.43748290  0.68757215  1  0.130293  0  0.119379  0.092529  0  1.005412  0
H  H19  1  0.81447135  0.74994758  0.31252532  1  0.120909  0  0.119273  0.092189  0  1.005467  0
H  H20  1  0.95788341  0.92459008  0.66689664  1  0.146434  0  0.123471  0.100736  0  0.97616  0
H  H21  1  0.54211305  0.25778946  0.33326516  1  0.102983  0  0.123379  0.100897  0  0.9754  0
H  H22  1  0.04211562  0.07540864  0.33310170  1  0.146386  0  0.123477  0.100765  0  0.976175  0
H  H23  1  0.45788490  0.74221112  0.66673645  1  0.102989  0  0.123376  0.100861  0  0.975448  0
H  H24  1  0.20916713  0.47387779  0.13677471  1  0.062242  0  0.104508  0.106187  0  1.00783  0
H  H25  1  0.29087452  0.33695306  0.86312527  1  0.05409  0  0.104145  0.105579  0  1.00759  0
H  H26  1  0.79082998  0.52612235  0.86322226  1  0.062323  0  0.104471  0.106111  0  1.007839  0
H  H27  1  0.70912852  0.66304753  0.13687494  1  0.054081  0  0.104151  0.105574  0  1.007642  0
H  H28  1  0.99863929  0.26665979  0.85965386  1  0.061654  0  0.10673  0.110499  0  1.002545  0
H  H29  1  0.50128423  0.40700299  0.14032415  1  0.047212  0  0.106693  0.110471  0  1.00206  0
H  H30  1  0.00136241  0.73333979  0.14034534  1  0.061522  0  0.106733  0.110498  0  1.002556  0
H  H31  1  0.49871813  0.59299915  0.85967760  1  0.04725  0  0.106684  0.110437  0  1.002087  0
H  H32  1  0.05635811  0.00848449  0.84583552  1  0.048863  0  0.107468  0.11205  0  0.991954  0
H  H33  1  0.44356197  0.16276334  0.15432997  1  0.076149  0  0.107504  0.112478  0  0.991426  0
H  H34  1  0.94364226  0.99151349  0.15416209  1  0.04887  0  0.107478  0.112022  0  0.992028  0
H  H35  1  0.55643691  0.83723628  0.84566857  1  0.075864  0  0.107507  0.112474  0  0.991477  0
H  H36  1  0.12469700  0.15205573  0.00142435  1  0.06274  0  0.104492  0.099964  0  0.99993  0
H  H37  1  0.37533305  0.15063446  0.99873144  1  0.062949  0  0.104334  0.099696  0  0.999693  0
H  H38  1  0.87530672  0.84794450  0.99857549  1  0.06268  0  0.104474  0.099942  0  0.999974  0
H  H39  1  0.62467161  0.84936652  0.00127055  1  0.062922  0  0.104354  0.099751  0  0.999692  0
H  H40  1  0.69278832  0.72611401  0.48611672  1  0.100586  0  0.099009  0.106558  0  1.053262  0
H  H41  1  0.80722591  0.24002557  0.51397841  1  0.105619  0  0.09906  0.106902  0  1.053133  0
H  H42  1  0.30721057  0.27388268  0.51387891  1  0.100531  0  0.098999  0.106528  0  1.053261  0
H  H43  1  0.19277625  0.75997302  0.48602540  1  0.105316  0  0.099088  0.106924  0  1.0531  0
H  H44  1  0.55317758  0.93548150  0.45541326  1  0.140004  0  0.111139  0.133759  0  1.009156  0
H  H45  1  0.94678242  0.47998894  0.54448122  1  0.14118  0  0.111  0.134181  0  1.009092  0
H  H46  1  0.44682239  0.06451798  0.54458723  1  0.139985  0  0.111157  0.133779  0  1.00915  0
H  H47  1  0.05321392  0.52000950  0.45551686  1  0.140891  0  0.110974  0.134144  0  1.009162  0
H  H48  1  0.27955105  0.89299699  0.45999410  1  0.178818  0  0.12399  0.129146  0  0.982475  0
H  H49  1  0.22061174  0.43295201  0.54034038  1  0.140772  0  0.124134  0.129338  0  0.982644  0
H  H50  1  0.72045045  0.10700021  0.54000833  1  0.178735  0  0.124014  0.129135  0  0.982452  0
H  H51  1  0.77938239  0.56704618  0.45964976  1  0.140618  0  0.124154  0.129266  0  0.982783  0
H  H52  1  0.32599184  0.81105833  0.49131074  1  0.081724  0  0.115629  0.097261  0  0.976164  0
H  H53  1  0.17404665  0.31969242  0.50886055  1  0.110617  0  0.115306  0.097506  0  0.976646  0
H  H54  1  0.67401620  0.18894834  0.50870390  1  0.08156  0  0.11564  0.097271  0  0.976221  0
H  H55  1  0.82594748  0.68030518  0.49112901  1  0.11115  0  0.11532  0.097478  0  0.97653  0
H  H56  1  0.41798159  0.72454192  0.47470892  1  0.09357  0  0.103341  0.124562  0  1.048521  0
H  H57  1  0.08195759  0.24976276  0.52519831  1  0.087475  0  0.103358  0.124411  0  1.04829  0
H  H58  1  0.58202053  0.27545906  0.52529376  1  0.093606  0  0.10331  0.124458  0  1.048505  0
H  H59  1  0.91804221  0.75023765  0.47479893  1  0.087464  0  0.103362  0.124418  0  1.048334  0
H  H60  1  0.19179095  0.64633907  0.18010708  1  0.169204  0  0.131217  0.218714  0  1.007302  0
H  H61  1  0.30809691  0.46575643  0.82002662  1  0.167898  0  0.131094  0.218242  0  1.007328  0
H  H62  1  0.80820179  0.35365554  0.81990256  1  0.16899  0  0.131214  0.218727  0  1.007276  0
H  H63  1  0.69189591  0.53424929  0.17996474  1  0.167628  0  0.130992  0.218178  0  1.007478  0
H  H64  1  0.12205766  0.33059012  0.99118583  1  0.045866  0  0.10342  0.099067  0  1.002818  0
H  H65  1  0.37781470  0.33927332  0.00870646  1  0.087762  0  0.103387  0.099023  0  1.003077  0
H  H66  1  0.87794200  0.66940943  0.00880986  1  0.045551  0  0.103407  0.099092  0  1.002697  0
H  H67  1  0.62218940  0.66072775  0.99129282  1  0.087795  0  0.103398  0.099056  0  1.003068  0
C  C68  1  0.93956218  0.13884506  0.72124367  1  0.486952  0  0.050984  0.100698  0  3.949647  0
C  C69  1  0.56040631  0.41760691  0.27877218  1  0.535229  0  0.050829  0.099759  0  3.947927  0
C  C70  1  0.06043857  0.86115435  0.27875396  1  0.486947  0  0.050987  0.100667  0  3.949553  0
C  C71  1  0.43959433  0.58239394  0.72122970  1  0.535253  0  0.050767  0.099712  0  3.948044  0
C  C72  1  0.30615143  0.35025989  0.27505246  1  0.557065  0  0.051124  0.103565  0  3.960208  0
C  C73  1  0.19380068  0.07515103  0.72483640  1  0.483424  0  0.051076  0.103145  0  3.959277  0
C  C74  1  0.69384636  0.64973929  0.72494356  1  0.557137  0  0.051175  0.103634  0  3.960292  0
C  C75  1  0.80620370  0.92484823  0.27516248  1  0.483288  0  0.051083  0.103092  0  3.959337  0
C  C76  1  0.20811823  0.33870313  0.12486824  1  -0.00429  0  0.005242  0.14445  0  4.038659  0
C  C77  1  0.29184124  0.21369732  0.87504746  1  0.037044  0  0.005055  0.143493  0  4.039799  0
C  C78  1  0.79188196  0.66129696  0.87512727  1  -0.004109  0  0.005332  0.144518  0  4.038806  0
C  C79  1  0.70816367  0.78630248  0.12495126  1  0.036985  0  0.005045  0.143504  0  4.039839  0
C  C80  1  0.24656926  0.29566492  0.17803143  1  -0.036961  0  -0.082198  -0.174108  0  3.93597  0
C  C81  1  0.25336200  0.11751546  0.82186582  1  -0.050222  0  -0.082066  -0.172209  0  3.934189  0
C  C82  1  0.75342933  0.70433474  0.82196577  1  -0.036905  0  -0.082271  -0.174208  0  3.936105  0
C  C83  1  0.74664105  0.88248338  0.17813264  1  -0.050294  0  -0.082011  -0.172062  0  3.934247  0
C  C84  1  0.29531582  0.48631875  0.27197612  1  0.51913  0  0.054156  0.10831  0  3.94447  0
C  C85  1  0.20472423  0.21427636  0.72791272  1  0.625921  0  0.053931  0.108754  0  3.94268  0
C  C86  1  0.70468076  0.51368085  0.72802102  1  0.519099  0  0.054178  0.108307  0  3.944512  0
C  C87  1  0.79527829  0.78572195  0.27208591  1  0.625506  0  0.053884  0.108729  0  3.942688  0
C  C88  1  0.96909410  0.00044151  0.71314044  1  0.410212  0  0.053011  0.106902  0  3.954109  0
C  C89  1  0.53085612  0.28737360  0.28697798  1  0.528525  0  0.053245  0.106885  0  3.951361  0
C  C90  1  0.03090492  0.99955780  0.28685849  1  0.410398  0  0.05302  0.106881  0  3.954089  0
C  C91  1  0.46914303  0.71262831  0.71302426  1  0.528516  0  0.053234  0.106924  0  3.951291  0
C  C92  1  0.23587857  0.43643664  0.17418243  1  -0.045705  0  -0.083575  -0.178699  0  3.932791  0
C  C93  1  0.26413341  0.26212751  0.82571600  1  -0.12885  0  -0.08303  -0.177744  0  3.932216  0
C  C94  1  0.76411907  0.56356462  0.82581495  1  -0.045602  0  -0.083604  -0.178652  0  3.932809  0
C  C95  1  0.73586843  0.73787234  0.17428417  1  -0.128565  0  -0.083016  -0.177727  0  3.93234  0
C  C96  1  0.99327976  0.19114715  0.82049903  1  -0.041785  0  -0.083335  -0.174354  0  3.935572  0
C  C97  1  0.50664067  0.37066959  0.17952189  1  -0.141075  0  -0.083713  -0.175428  0  3.935077  0
C  C98  1  0.00672046  0.80885231  0.17949936  1  -0.041658  0  -0.083351  -0.174352  0  3.935489  0
C  C99  1  0.49336064  0.62933031  0.82047903  1  -0.141119  0  -0.083713  -0.175368  0  3.935178  0
C  C100  1  0.02380107  0.04765712  0.81238330  1  0.029735  0  -0.085409  -0.188602  0  3.952777  0
C  C101  1  0.47613301  0.23535887  0.18774413  1  -0.054244  0  -0.085737  -0.189692  0  3.952479  0
C  C102  1  0.97620049  0.95234219  0.18761493  1  0.029698  0  -0.085394  -0.188566  0  3.952785  0
C  C103  1  0.52386614  0.76464246  0.81225751  1  -0.054003  0  -0.085763  -0.189706  0  3.952528  0
C  C104  1  0.10421825  0.19566780  0.96987940  1  -0.076494  0  -0.079759  -0.116675  0  3.968672  0
C  C105  1  0.39573319  0.22576582  0.03017081  1  -0.043311  0  -0.079495  -0.116341  0  3.967178  0
C  C106  1  0.89578250  0.80433102  0.03011766  1  -0.076494  0  -0.079751  -0.116674  0  3.968771  0
C  C107  1  0.60426851  0.77423493  0.96982956  1  -0.043336  0  -0.079504  -0.116449  0  3.967333  0
C  C108  1  0.03975900  0.14595304  0.86828591  1  -0.001806  0  0.003553  0.140388  0  4.048629  0
C  C109  1  0.46016703  0.27771313  0.13178795  1  0.037632  0  0.003341  0.140902  0  4.049205  0
C  C110  1  0.96024161  0.85404610  0.13171076  1  -0.001798  0  0.003547  0.140426  0  4.048537  0
C  C111  1  0.53983280  0.72228783  0.86821333  1  0.037606  0  0.003391  0.140961  0  4.049229  0
C  C112  1  0.26836852  0.75994043  0.34014143  1  -0.16444  0  -0.035212  0.060125  0  4.095999  0
C  C113  1  0.23152137  0.41956914  0.66005071  1  -0.224952  0  -0.036206  0.05842  0  4.097688  0
C  C114  1  0.73163428  0.24005448  0.65986849  1  -0.164135  0  -0.035276  0.059981  0  4.096218  0
C  C115  1  0.76847546  0.58043105  0.33994490  1  -0.224341  0  -0.036048  0.058552  0  4.097179  0
C  C116  1  0.71567423  0.87751845  0.47232047  1  1.535368  0  0.18447  0.55634  0  4.222752  0
C  C117  1  0.78430880  0.40516377  0.52768219  1  1.540855  0  0.184546  0.556591  0  4.222747  0
C  C118  1  0.28432480  0.12247910  0.52767671  1  1.535368  0  0.18444  0.556254  0  4.222982  0
C  C119  1  0.21568906  0.59483357  0.47231899  1  1.540178  0  0.184491  0.55645  0  4.222675  0
C  C120  1  0.63133313  0.83455679  0.46994217  1  -0.03621  0  -0.022665  -0.007749  0  4.004119  0
C  C121  1  0.86865603  0.36458237  0.53004272  1  -0.013179  0  -0.021673  -0.005399  0  4.003458  0
C  C122  1  0.36866576  0.16544107  0.53005463  1  -0.036193  0  -0.02266  -0.007768  0  4.004159  0
C  C123  1  0.13134169  0.63541470  0.46995748  1  -0.013186  0  -0.021703  -0.005471  0  4.003348  0
C  C124  1  0.63199689  0.75607492  0.47905620  1  -0.030848  0  -0.096917  -0.142783  0  3.977143  0
C  C125  1  0.86798949  0.27700673  0.52096405  1  -0.026115  0  -0.097836  -0.145322  0  3.978367  0
C  C126  1  0.36800162  0.24392151  0.52094057  1  -0.030473  0  -0.096893  -0.142671  0  3.977122  0
C  C127  1  0.13201105  0.72299089  0.47903739  1  -0.025697  0  -0.097859  -0.145374  0  3.978307  0
C  C128  1  0.55335941  0.87351175  0.46120425  1  0.008114  0  -0.087772  -0.191088  0  3.901969  0
C  C129  1  0.94661414  0.41225023  0.53872825  1  -0.02213  0  -0.087986  -0.192527  0  3.901496  0
C  C130  1  0.44663975  0.12648841  0.53879624  1  0.008065  0  -0.087784  -0.191093  0  3.902031  0
C  C131  1  0.05338087  0.58774778  0.46126940  1  -0.021853  0  -0.088008  -0.192541  0  3.901498  0
C  C132  1  0.47585973  0.83386166  0.46182282  1  0.413522  0  0.078462  0.249515  0  4.079206  0
C  C133  1  0.02412326  0.37198351  0.53813886  1  0.404318  0  0.078404  0.249869  0  4.076483  0
C  C134  1  0.52414039  0.16613749  0.53817805  1  0.413577  0  0.078476  0.249472  0  4.079308  0
C  C135  1  0.97587290  0.62801587  0.46185596  1  0.403408  0  0.078446  0.249939  0  4.076452  0
C  C136  1  0.56059797  0.63740653  0.49719603  1  1.565388  0  0.202337  0.578696  0  4.217007  0
C  C137  1  0.93936838  0.14018701  0.50279548  1  1.560749  0  0.202173  0.578964  0  4.216662  0
C  C138  1  0.43940119  0.36259187  0.50280270  1  1.565396  0  0.202313  0.578607  0  4.217131  0
C  C139  1  0.06063226  0.85981209  0.49720464  1  1.560781  0  0.202155  0.578924  0  4.216664  0
C  C140  1  0.31758964  0.83621251  0.44085234  1  0.493916  0  -0.045185  0.019716  0  3.949691  0
C  C141  1  0.18244693  0.39527221  0.55935042  1  0.466929  0  -0.044416  0.019683  0  3.951062  0
C  C142  1  0.68241508  0.16378781  0.55915597  1  0.494275  0  -0.045149  0.019823  0  3.949676  0
C  C143  1  0.81754936  0.60472455  0.44063899  1  0.466601  0  -0.044397  0.01992  0  3.951053  0
C  C144  1  0.47646716  0.75607976  0.47240363  1  -0.044345  0  -0.107609  -0.243457  0  3.962569  0
C  C145  1  0.02347649  0.28360243  0.52751079  1  0.003583  0  -0.107538  -0.243309  0  3.961109  0
C  C146  1  0.52353444  0.24392010  0.52759864  1  -0.044389  0  -0.107608  -0.243318  0  3.962513  0
C  C147  1  0.97652373  0.71639762  0.47248818  1  0.003808  0  -0.107558  -0.243391  0  3.961291  0
C  C148  1  0.22781862  0.69904278  0.25527532  1  -0.22549  0  -0.161445  -0.372685  0  3.763615  0
C  C149  1  0.27204901  0.44338330  0.74487575  1  -0.130579  0  -0.160592  -0.370805  0  3.764185  0
C  C150  1  0.77217709  0.30095088  0.74473477  1  -0.225729  0  -0.161416  -0.372622  0  3.763616  0
C  C151  1  0.72794035  0.55661755  0.25511007  1  -0.131024  0  -0.160651  -0.370924  0  3.763711  0
C  C152  1  0.14182167  0.28802004  0.02411555  1  -0.005943  0  -0.081156  -0.120859  0  3.974426  0
C  C153  1  0.35809358  0.26378786  0.97582627  1  -0.087784  0  -0.080503  -0.119892  0  3.973029  0
C  C154  1  0.85817747  0.71197899  0.97588031  1  -0.005755  0  -0.081173  -0.120933  0  3.974438  0
C  C155  1  0.64190797  0.73621321  0.02417371  1  -0.087798  0  -0.080514  -0.119904  0  3.97318  0
C  C156  1  0.55551642  0.71776844  0.48129755  1  -0.000739  0  -0.031049  -0.024342  0  4.034972  0
C  C157  1  0.94443920  0.23642207  0.51865181  1  -0.036117  0  -0.030862  -0.023267  0  4.033865  0
C  C158  1  0.44448260  0.28222969  0.51870021  1  -0.001028  0  -0.03108  -0.024434  0  4.035044  0
C  C159  1  0.05556292  0.76357773  0.48134971  1  -0.03617  0  -0.030816  -0.023127  0  4.033821  0
N  N160  1  0.92917055  0.04530570  0.66774956  1  -1.210776  0  -0.319602  -0.224334  0  3.453681  0
N  N161  1  0.57080115  0.37759562  0.33231514  1  -1.221868  0  -0.319476  -0.223548  0  3.451938  0
N  N162  1  0.07083048  0.95469425  0.33225001  1  -1.210841  0  -0.319646  -0.224378  0  3.453616  0
N  N163  1  0.42920069  0.62240599  0.66768678  1  -1.2218  0  -0.319411  -0.223515  0  3.451806  0
N  N164  1  0.32953844  0.44413694  0.32223592  1  -1.229749  0  -0.322303  -0.238042  0  3.473957  0
N  N165  1  0.17046240  0.12186679  0.67764969  1  -1.241651  0  -0.322637  -0.239234  0  3.47349  0
N  N166  1  0.67045881  0.55586288  0.67776143  1  -1.229966  0  -0.322258  -0.238008  0  3.473965  0
N  N167  1  0.82953917  0.87813252  0.32234855  1  -1.241527  0  -0.322599  -0.239192  0  3.473413  0
O  O168  1  0.71443118  0.94905532  0.46385831  1  -1.158622  0  -0.338861  -0.557916  0  2.171946  0
O  O169  1  0.78552566  0.48513797  0.53609880  1  -1.161051  0  -0.339133  -0.558202  0  2.171586  0
O  O170  1  0.28556838  0.05094217  0.53613811  1  -1.158684  0  -0.338833  -0.55788  0  2.171989  0
O  O171  1  0.21447140  0.51485772  0.46390002  1  -1.160515  0  -0.339137  -0.558158  0  2.171504  0
O  O172  1  0.62595552  0.59445398  0.48529784  1  -1.162349  0  -0.325232  -0.549304  0  2.291202  0
O  O173  1  0.87404743  0.10917406  0.51477362  1  -1.159949  0  -0.324926  -0.54905  0  2.292225  0
O  O174  1  0.37404459  0.40554459  0.51470246  1  -1.162334  0  -0.325216  -0.549223  0  2.291208  0
O  O175  1  0.12595335  0.89082473  0.48522688  1  -1.159985  0  -0.324934  -0.549078  0  2.292227  0
O  O176  1  0.78682404  0.84143185  0.48420527  1  -1.17388  0  -0.34711  -0.582133  0  2.174792  0
O  O177  1  0.71319140  0.35724601  0.51590001  1  -1.173529  0  -0.347204  -0.582525  0  2.175164  0
O  O178  1  0.21317594  0.15856527  0.51579289  1  -1.173834  0  -0.347156  -0.582134  0  2.17495  0
O  O179  1  0.28680851  0.64275136  0.48410468  1  -1.173355  0  -0.347132  -0.582378  0  2.175162  0
O  O180  1  0.50343944  0.61799278  0.52545610  1  -1.212258  0  -0.345198  -0.603384  0  2.377881  0
O  O181  1  0.99650031  0.09250032  0.47449806  1  -1.214623  0  -0.344913  -0.603292  0  2.377582  0
O  O182  1  0.49655825  0.38200434  0.47454065  1  -1.212275  0  -0.345171  -0.603345  0  2.377953  0
O  O183  1  0.00350006  0.90749825  0.52550013  1  -1.214579  0  -0.3449  -0.603262  0  2.37758  0
O  O184  1  0.40409655  0.87914148  0.45480145  1  -1.049344  0  -0.175496  -0.194102  0  2.50724  0
O  O185  1  0.09595213  0.42428380  0.54525503  1  -1.046916  0  -0.175811  -0.194539  0  2.506751  0
O  O186  1  0.59590466  0.12085753  0.54520138  1  -1.04938  0  -0.1755  -0.194089  0  2.507145  0
O  O187  1  0.90404243  0.57571286  0.45473568  1  -1.046235  0  -0.175853  -0.1946  0  2.506619  0
