# generated using pymatgen
data_Zn4H15C15N3O13
_symmetry_space_group_name_H-M   'P 1'
_cell_length_a   15.92183635
_cell_length_b   17.06366601
_cell_length_c   16.40428520
_cell_angle_alpha   58.73288787
_cell_angle_beta   62.05668875
_cell_angle_gamma   90.14184587
_symmetry_Int_Tables_number   1
_chemical_formula_structural   Zn4H15C15N3O13
_chemical_formula_sum   'Zn8 H30 C30 N6 O26'
_cell_volume   3182.21244448
_cell_formula_units_Z   2
loop_
 _symmetry_equiv_pos_site_id
 _symmetry_equiv_pos_as_xyz
  1  'x, y, z'
loop_
 _atom_site_type_symbol
 _atom_site_label
 _atom_site_symmetry_multiplicity
 _atom_site_fract_x
 _atom_site_fract_y
 _atom_site_fract_z
 _atom_site_occupancy
 _atom_site_pbe_bader_charge
 _atom_site_pbe_bader_spin_density
 _atom_site_pbe_cm5_charge
 _atom_site_pbe_ddec_charge
 _atom_site_pbe_ddec_spin_density
 _atom_site_pbe_ddec_sum_bond_order
 _atom_site_pbe_magmom
Zn  Zn0  1  0.03641834  0.95265562  0.06725895  1  1.304237  0  0.664679  0.946191  0  2.425111  0
Zn  Zn1  1  0.83655220  0.94778704  0.07735294  1  1.312049  0  0.670737  0.959629  0  2.39025  0
Zn  Zn2  1  0.03036574  0.95765605  0.87238121  1  1.306968  0  0.671163  0.97367  0  2.309335  0
Zn  Zn3  1  0.02488350  0.14366574  0.88558707  1  1.312775  0  0.670206  0.964741  0  2.358455  0
Zn  Zn4  1  0.42647840  0.55308361  0.86948650  1  1.318313  0  0.671085  0.967492  0  2.336592  0
Zn  Zn5  1  0.62851733  0.54961318  0.87162858  1  1.30584  0  0.671583  0.962846  0  2.362111  0
Zn  Zn6  1  0.43251837  0.36142292  0.06444231  1  1.289249  0  0.668178  0.953576  0  2.387908  0
Zn  Zn7  1  0.43519781  0.54770616  0.06428431  1  1.306719  0  0.666603  0.954398  0  2.384636  0
H  H8  1  0.80842902  0.88938333  0.40707073  1  0.074486  0  0.114146  0.084375  0  0.938487  0
H  H9  1  0.82581295  0.73318235  0.52675788  1  0.085399  0  0.104052  0.121462  0  0.990966  0
H  H10  1  0.85361942  0.71170098  0.42235541  1  0.050666  0  0.099181  0.106096  0  0.985307  0
H  H11  1  0.67128060  0.63563677  0.51882140  1  0.059428  0  0.11146  0.074593  0  0.946232  0
H  H12  1  0.64807521  0.78800710  0.42746418  1  0.426536  0  0.291558  0.249316  0  0.968746  0
H  H13  1  0.08837065  0.67552290  0.11619781  1  0.05409  0  0.113083  0.081435  0  0.936563  0
H  H14  1  0.24816945  0.71239253  0.09947401  1  0.076324  0  0.102649  0.118114  0  0.989649  0
H  H15  1  0.27099709  0.83834551  0.00196670  1  0.060485  0  0.099589  0.107533  0  0.986372  0
H  H16  1  0.35275593  0.82481215  0.84108039  1  0.098484  0  0.113188  0.076091  0  0.94202  0
H  H17  1  0.19617404  0.76113271  0.87700482  1  0.411602  0  0.292009  0.249666  0  0.969128  0
H  H18  1  0.31248098  0.17473871  0.91986318  1  0.054818  0  0.111923  0.082099  0  0.941898  0
H  H19  1  0.25419300  0.16417559  0.09506634  1  0.062136  0  0.102863  0.120379  0  0.99211  0
H  H20  1  0.12815776  0.13941919  0.12959689  1  0.049959  0  0.099499  0.107108  0  0.984946  0
H  H21  1  0.15486798  0.31618874  0.01574146  1  0.073419  0  0.112239  0.076523  0  0.946314  0
H  H22  1  0.23512686  0.33132290  0.84273055  1  0.415105  0  0.291482  0.250148  0  0.96673  0
H  H23  1  0.71881665  0.88851731  0.90716024  1  0.074704  0  0.113637  0.08147  0  0.93547  0
H  H24  1  0.58774937  0.73042622  0.07733144  1  0.074654  0  0.102754  0.118328  0  0.986471  0
H  H25  1  0.66650095  0.70705005  0.13124543  1  0.032099  0  0.098809  0.107583  0  0.987068  0
H  H26  1  0.75112280  0.63709146  0.02687494  1  0.054101  0  0.112499  0.074638  0  0.942311  0
H  H27  1  0.85535290  0.79185130  0.84617072  1  0.440477  0  0.291564  0.249024  0  0.96879  0
H  H28  1  0.73351145  0.17516096  0.12719278  1  0.067231  0  0.115231  0.084619  0  0.932823  0
H  H29  1  0.58627072  0.16077272  0.11422157  1  0.095424  0  0.104483  0.121132  0  0.984373  0
H  H30  1  0.65229896  0.12923017  0.01848953  1  0.043936  0  0.098562  0.106942  0  0.987847  0
H  H31  1  0.73149623  0.30344423  0.85488567  1  0.067521  0  0.110064  0.070755  0  0.945288  0
H  H32  1  0.85307018  0.33321010  0.89094312  1  0.417592  0  0.291043  0.248516  0  0.970117  0
H  H33  1  0.30329827  0.23894132  0.56304477  1  0.056333  0  0.114022  0.079877  0  0.931191  0
H  H34  1  0.29329279  0.38961760  0.42271115  1  0.054946  0  0.102866  0.117163  0  0.980557  0
H  H35  1  0.15974089  0.33550595  0.51209798  1  0.058437  0  0.098904  0.109561  0  0.989793  0
H  H36  1  0.16781360  0.25928240  0.41614034  1  0.050104  0  0.111054  0.071322  0  0.941742  0
H  H37  1  0.23191649  0.13575234  0.50499016  1  0.403442  0  0.291315  0.248549  0  0.96725  0
C  C38  1  0.84189321  0.87352075  0.27681839  1  1.520016  0  0.226359  0.598943  0  4.135636  0
C  C39  1  0.78673559  0.83160629  0.40182727  1  0.333039  0  0.006104  0.018683  0  3.847097  0
C  C40  1  0.80346001  0.73531478  0.47215691  1  -0.058731  0  -0.14836  -0.225171  0  3.804213  0
C  C41  1  0.69000781  0.68603279  0.53522276  1  0.293733  0  0.006409  0.021991  0  3.807118  0
C  C42  1  0.62655660  0.63597177  0.66358107  1  1.567102  0  0.231486  0.614981  0  4.113725  0
C  C43  1  0.10350612  0.82118641  0.00609100  1  1.55216  0  0.22877  0.60185  0  4.136111  0
C  C44  1  0.14878156  0.74033622  0.03221281  1  0.332586  0  0.006345  0.021061  0  3.845732  0
C  C45  1  0.24722197  0.76589300  0.02458499  1  -0.05792  0  -0.149139  -0.225805  0  3.810234  0
C  C46  1  0.30024519  0.75597757  0.92547992  1  0.25666  0  0.007626  0.023916  0  3.807093  0
C  C47  1  0.35436956  0.68082866  0.93880269  1  1.590974  0  0.232712  0.615372  0  4.114544  0
C  C48  1  0.16661958  0.14318102  0.95340471  1  1.539391  0  0.22803  0.604738  0  4.134026  0
C  C49  1  0.24628479  0.19781334  0.94767892  1  0.332743  0  0.004924  0.01558  0  3.845006  0
C  C50  1  0.20646642  0.18587748  0.06164906  1  -0.02196  0  -0.14738  -0.223876  0  3.799686  0
C  C51  1  0.22372896  0.29591919  0.99294798  1  0.279493  0  0.005473  0.02052  0  3.803949  0
C  C52  1  0.29864476  0.35795390  0.98678474  1  1.56739  0  0.231306  0.614581  0  4.118805  0
C  C53  1  0.82067238  0.87153149  0.95736388  1  1.535243  0  0.230307  0.603944  0  4.130241  0
C  C54  1  0.74729525  0.82946809  0.94478495  1  0.312548  0  0.006528  0.019492  0  3.846056  0
C  C55  1  0.66430845  0.73255662  0.05594966  1  -0.01862  0  -0.149688  -0.225672  0  3.814236  0
C  C56  1  0.71235309  0.68586194  0.99345724  1  0.298899  0  0.007887  0.024709  0  3.807806  0
C  C57  1  0.64426731  0.63146210  0.98493110  1  1.57124  0  0.23328  0.614936  0  4.111539  0
C  C58  1  0.82235110  0.14406652  0.01151373  1  1.543213  0  0.229009  0.601665  0  4.13816  0
C  C59  1  0.75124335  0.19650831  0.04336127  1  0.305572  0  0.007727  0.020604  0  3.848354  0
C  C60  1  0.65807838  0.17997591  0.03884153  1  -0.050636  0  -0.149788  -0.226866  0  3.813979  0
C  C61  1  0.70213265  0.28880631  0.93894858  1  0.294313  0  0.007165  0.024663  0  3.815827  0
C  C62  1  0.63610320  0.35161240  0.95042322  1  1.58144  0  0.231728  0.614026  0  4.119586  0
C  C63  1  0.14994396  0.16001520  0.67112551  1  1.572196  0  0.229198  0.599636  0  4.130107  0
C  C64  1  0.24247413  0.22899198  0.55078638  1  0.311559  0  0.007156  0.02885  0  3.836792  0
C  C65  1  0.23097399  0.32410730  0.47137591  1  -0.017251  0  -0.150286  -0.228967  0  3.821394  0
C  C66  1  0.24018606  0.28376018  0.40327555  1  0.310335  0  0.007898  0.025144  0  3.826311  0
C  C67  1  0.31697454  0.34860983  0.27488378  1  1.542791  0  0.229708  0.610305  0  4.120085  0
N  N68  1  0.67723642  0.78216882  0.47331795  1  -0.993218  0  -0.478548  -0.405984  0  3.161601  0
N  N69  1  0.20163238  0.72146411  0.94586716  1  -0.993204  0  -0.479296  -0.407931  0  3.17778  0
N  N70  1  0.27063949  0.30405420  0.88461732  1  -0.994726  0  -0.47813  -0.407456  0  3.157649  0
N  N71  1  0.78043921  0.78335446  0.88494779  1  -1.021258  0  -0.478604  -0.407333  0  3.176307  0
N  N72  1  0.78073275  0.30215757  0.95986958  1  -0.999272  0  -0.479496  -0.40793  0  3.181427  0
N  N73  1  0.27025003  0.20444562  0.46946300  1  -0.98899  0  -0.479006  -0.408086  0  3.190931  0
O  O74  1  0.98290318  0.00233403  0.96971626  1  -1.220859  0  -0.575079  -1.035145  0  2.544474  0
O  O75  1  0.79316720  0.85983300  0.23928685  1  -1.172569  0  -0.31608  -0.547124  0  2.303462  0
O  O76  1  0.93555801  0.91943976  0.21844516  1  -1.189287  0  -0.32314  -0.555869  0  2.317314  0
O  O77  1  0.67231842  0.63417431  0.71037991  1  -1.174777  0  -0.311817  -0.543928  0  2.335464  0
O  O78  1  0.53225268  0.60153111  0.71233160  1  -1.158549  0  -0.316388  -0.546402  0  2.304414  0
O  O79  1  0.10406483  0.86535664  0.91474564  1  -1.177837  0  -0.314222  -0.549147  0  2.297839  0
O  O80  1  0.06765166  0.83736839  0.08159474  1  -1.185772  0  -0.324042  -0.555812  0  2.337049  0
O  O81  1  0.37164851  0.64692772  0.01728335  1  -1.186134  0  -0.314428  -0.547598  0  2.328119  0
O  O82  1  0.37699984  0.65869351  0.86983568  1  -1.170179  0  -0.313868  -0.543785  0  2.322035  0
O  O83  1  0.11643167  0.18899876  0.91418967  1  -1.180862  0  -0.315217  -0.551169  0  2.312127  0
O  O84  1  0.15553340  0.05297685  0.00064669  1  -1.171434  0  -0.32562  -0.557222  0  2.318563  0
O  O85  1  0.33868039  0.31376672  0.04163565  1  -1.177412  0  -0.312408  -0.54546  0  2.349831  0
O  O86  1  0.31573688  0.44904306  0.92509018  1  -1.168388  0  -0.315884  -0.546146  0  2.305  0
O  O87  1  0.91397636  0.88650413  0.89433223  1  -1.178232  0  -0.314022  -0.548237  0  2.307804  0
O  O88  1  0.77994257  0.89004766  0.03062683  1  -1.164228  0  -0.320538  -0.553159  0  2.340014  0
O  O89  1  0.54986696  0.60561708  0.05460732  1  -1.173552  0  -0.313776  -0.548913  0  2.332697  0
O  O90  1  0.68836703  0.61619904  0.90929799  1  -1.171482  0  -0.314399  -0.541596  0  2.318044  0
O  O91  1  0.91238671  0.19445457  0.92448986  1  -1.17809  0  -0.315298  -0.545155  0  2.30806  0
O  O92  1  0.78448261  0.05208575  0.07780984  1  -1.16598  0  -0.319995  -0.555542  0  2.345651  0
O  O93  1  0.54251288  0.30799936  0.02742375  1  -1.184647  0  -0.311211  -0.540871  0  2.330217  0
O  O94  1  0.68125086  0.44259292  0.88138334  1  -1.173289  0  -0.317261  -0.54956  0  2.32671  0
O  O95  1  0.12270553  0.07075694  0.71099759  1  -1.181938  0  -0.316587  -0.549386  0  2.299846  0
O  O96  1  0.11042933  0.19845973  0.72275513  1  -1.191106  0  -0.320284  -0.554384  0  2.34312  0
O  O97  1  0.33654389  0.43980619  0.22564556  1  -1.158833  0  -0.315768  -0.549263  0  2.318329  0
O  O98  1  0.35286543  0.30591901  0.22814931  1  -1.167718  0  -0.315581  -0.542569  0  2.328718  0
O  O99  1  0.48075456  0.50335135  0.96697035  1  -1.205783  0  -0.572461  -1.032631  0  2.54164  0
