# generated using pymatgen
data_CdH10C16(N3O2)2
_symmetry_space_group_name_H-M   'P 1'
_cell_length_a   11.36146455
_cell_length_b   13.79626901
_cell_length_c   13.78000000
_cell_angle_alpha   103.19438201
_cell_angle_beta   90.00000000
_cell_angle_gamma   114.31590229
_symmetry_Int_Tables_number   1
_chemical_formula_structural   CdH10C16(N3O2)2
_chemical_formula_sum   'Cd4 H40 C64 N24 O16'
_cell_volume   1905.60051431
_cell_formula_units_Z   4
loop_
 _symmetry_equiv_pos_site_id
 _symmetry_equiv_pos_as_xyz
  1  'x, y, z'
loop_
 _atom_site_type_symbol
 _atom_site_label
 _atom_site_symmetry_multiplicity
 _atom_site_fract_x
 _atom_site_fract_y
 _atom_site_fract_z
 _atom_site_occupancy
 _atom_site_hle17_bader_spin_density
 _atom_site_hle17_ddec_charge
 _atom_site_hle17_ddec_spin_density
 _atom_site_hle17_ddec_sum_bond_order
 _atom_site_hle17_magmom
 _atom_site_hse06_10hf_bader_spin_density
 _atom_site_hse06_10hf_ddec_charge
 _atom_site_hse06_10hf_ddec_spin_density
 _atom_site_hse06_10hf_ddec_sum_bond_order
 _atom_site_hse06_10hf_magmom
 _atom_site_hse06_bader_spin_density
 _atom_site_hse06_ddec_charge
 _atom_site_hse06_ddec_spin_density
 _atom_site_hse06_ddec_sum_bond_order
 _atom_site_hse06_magmom
 _atom_site_pbe_bader_charge
 _atom_site_pbe_bader_spin_density
 _atom_site_pbe_cm5_charge
 _atom_site_pbe_ddec_charge
 _atom_site_pbe_ddec_spin_density
 _atom_site_pbe_ddec_sum_bond_order
 _atom_site_pbe_magmom
Cd  Cd0  1  0.04150228  0.44340119  0.36499294  1  0  1.09598  0  1.68835  0  0  0.889291  0  2.135777  0  0  0.94854  0  2.08597  0  1.270259  0  0.772563  0.846789  0  2.169485  0
Cd  Cd1  1  0.40186744  0.44336175  0.86497449  1  0  1.095879  0  1.68755  0  0  0.889478  0  2.134614  0  0  0.948739  0  2.084846  0  1.268609  0  0.772749  0.847271  0  2.168493  0
Cd  Cd2  1  0.95849590  0.55659731  0.63500766  1  0  1.096014  0  1.688305  0  0  0.889323  0  2.135722  0  0  0.948569  0  2.085917  0  1.270251  0  0.772557  0.846821  0  2.169431  0
Cd  Cd3  1  0.59813197  0.55663921  0.13502667  1  0  1.095869  0  1.687568  0  0  0.889457  0  2.13464  0  0  0.948716  0  2.084872  0  1.268613  0  0.772726  0.847248  0  2.168522  0
H  H4  1  0.08467918  0.34755690  0.76635791  1  0  0.106141  0  0.941867  0  0  0.111803  0  1.007353  0  0  0.115726  0  1.004046  0  0.129537  0  0.120788  0.108945  0  1.009871  0
H  H5  1  0.26284569  0.34739012  0.26628642  1  0  0.106349  0  0.941837  0  0  0.11188  0  1.007283  0  0  0.115699  0  1.004094  0  0.168636  0  0.120673  0.108949  0  1.009859  0
H  H6  1  0.91532246  0.65244323  0.23364161  1  0  0.106152  0  0.941886  0  0  0.111803  0  1.007373  0  0  0.115725  0  1.00407  0  0.129535  0  0.1208  0.108946  0  1.009889  0
H  H7  1  0.73715378  0.65260919  0.73371437  1  0  0.106315  0  0.941894  0  0  0.111829  0  1.00735  0  0  0.115647  0  1.004162  0  0.168617  0  0.120672  0.108904  0  1.00992  0
H  H8  1  0.86281538  0.30679486  0.83095497  1  0  0.082264  0  0.939783  0  0  0.091011  0  0.999534  0  0  0.093985  0  0.998141  0  0.08149  0  0.113266  0.088852  0  1.000747  0
H  H9  1  0.44375935  0.30644980  0.33093271  1  0  0.081649  0  0.940231  0  0  0.090532  0  1.000041  0  0  0.093473  0  0.998665  0  0.081864  0  0.113384  0.088336  0  1.001258  0
H  H10  1  0.13718579  0.69320609  0.16904475  1  0  0.082303  0  0.939722  0  0  0.091042  0  0.999484  0  0  0.094017  0  0.99809  0  0.081481  0  0.113274  0.088882  0  1.000699  0
H  H11  1  0.55624265  0.69355280  0.66906882  1  0  0.081683  0  0.940221  0  0  0.090573  0  1.000023  0  0  0.093515  0  0.998646  0  0.082045  0  0.113386  0.088377  0  1.001239  0
H  H12  1  0.00600964  0.20205037  0.36198994  1  0  0.081985  0  0.932306  0  0  0.092018  0  0.989658  0  0  0.093665  0  0.988865  0  0.119436  0  0.119164  0.090748  0  0.99032  0
H  H13  1  0.19581832  0.20197725  0.86189340  1  0  0.081608  0  0.931891  0  0  0.091409  0  0.989643  0  0  0.093057  0  0.988831  0  0.103181  0  0.118899  0.09015  0  0.990281  0
H  H14  1  0.99399159  0.79794894  0.63801085  1  0  0.081994  0  0.932283  0  0  0.092042  0  0.989631  0  0  0.09369  0  0.988837  0  0.119466  0  0.119151  0.09077  0  0.990295  0
H  H15  1  0.80418197  0.79802371  0.13810848  1  0  0.0816  0  0.931882  0  0  0.091403  0  0.989635  0  0  0.093052  0  0.988822  0  0.103103  0  0.118896  0.090145  0  0.990271  0
H  H16  1  0.83812945  0.01662392  0.37617344  1  0  0.12471  0  0.922636  0  0  0.136454  0  0.974624  0  0  0.140306  0  0.973271  0  0.113498  0  0.119096  0.133583  0  0.975903  0
H  H17  1  0.17810878  0.01645467  0.87578715  1  0  0.125321  0  0.922202  0  0  0.136976  0  0.97428  0  0  0.140765  0  0.972988  0  0.114086  0  0.119214  0.134181  0  0.975398  0
H  H18  1  0.16187225  0.98337457  0.62382644  1  0  0.12476  0  0.922582  0  0  0.136502  0  0.974568  0  0  0.140354  0  0.973215  0  0.11354  0  0.119136  0.133632  0  0.975846  0
H  H19  1  0.82189286  0.98354546  0.12421237  1  0  0.1253  0  0.922155  0  0  0.13696  0  0.974235  0  0  0.140748  0  0.972944  0  0.114062  0  0.119218  0.134173  0  0.975343  0
H  H20  1  0.54911516  0.14373766  0.37682804  1  0  0.12295  0  0.934888  0  0  0.129078  0  0.998743  0  0  0.132998  0  0.996466  0  0.099019  0  0.11475  0.126207  0  1.000654  0
H  H21  1  0.59433315  0.14359553  0.87682241  1  0  0.123195  0  0.935721  0  0  0.129281  0  0.999412  0  0  0.133259  0  0.997082  0  0.105452  0  0.114994  0.126401  0  1.00131  0
H  H22  1  0.45088531  0.85625836  0.62317054  1  0  0.12295  0  0.934956  0  0  0.129072  0  0.998826  0  0  0.132991  0  0.99655  0  0.09897  0  0.11474  0.126201  0  1.000737  0
H  H23  1  0.40566843  0.85640625  0.12317676  1  0  0.123205  0  0.935695  0  0  0.129282  0  0.999397  0  0  0.133258  0  0.99707  0  0.105463  0  0.115003  0.126402  0  1.001294  0
H  H24  1  0.72819097  0.32357571  0.36347123  1  0  0.091196  0  0.967335  0  0  0.100205  0  1.028255  0  0  0.102687  0  1.02669  0  0.150507  0  0.118287  0.098228  0  1.029584  0
H  H25  1  0.59517442  0.32342207  0.86350651  1  0  0.091304  0  0.96688  0  0  0.099845  0  1.02849  0  0  0.10231  0  1.026899  0  0.137809  0  0.11828  0.097915  0  1.02982  0
H  H26  1  0.27180903  0.67642114  0.63652682  1  0  0.091175  0  0.967409  0  0  0.10025  0  1.028251  0  0  0.102733  0  1.026685  0  0.150641  0  0.118309  0.098273  0  1.029579  0
H  H27  1  0.40482541  0.67657971  0.13649411  1  0  0.091282  0  0.966927  0  0  0.099844  0  1.028511  0  0  0.102309  0  1.026921  0  0.137837  0  0.118278  0.097914  0  1.029842  0
H  H28  1  0.53024632  0.76548983  0.37569037  1  0  0.127365  0  0.951299  0  0  0.129288  0  1.022125  0  0  0.133376  0  1.019316  0  0.145003  0  0.114278  0.126277  0  1.024356  0
H  H29  1  0.23516446  0.76540849  0.87557745  1  0  0.127949  0  0.951375  0  0  0.129845  0  1.022207  0  0  0.133884  0  1.019427  0  0.128021  0  0.114416  0.126902  0  1.024376  0
H  H30  1  0.46975321  0.23450785  0.62431076  1  0  0.127381  0  0.95127  0  0  0.129274  0  1.022117  0  0  0.133361  0  1.019312  0  0.144998  0  0.114291  0.126268  0  1.02435  0
H  H31  1  0.76483583  0.23459247  0.12442081  1  0  0.127883  0  0.951406  0  0  0.129807  0  1.022214  0  0  0.133845  0  1.019433  0  0.128427  0  0.114389  0.126854  0  1.024393  0
H  H32  1  0.36150761  0.58117087  0.37734321  1  0  0.089406  0  0.959479  0  0  0.091416  0  1.031995  0  0  0.093764  0  1.029921  0  0.13855  0  0.116233  0.089537  0  1.033837  0
H  H33  1  0.21955067  0.58108132  0.87718922  1  0  0.08982  0  0.958699  0  0  0.091547  0  1.031809  0  0  0.093906  0  1.029712  0  0.145786  0  0.116342  0.089654  0  1.03365  0
H  H34  1  0.63849145  0.41882762  0.62265811  1  0  0.089422  0  0.959484  0  0  0.091441  0  1.032011  0  0  0.093791  0  1.029933  0  0.138646  0  0.116227  0.089563  0  1.033853  0
H  H35  1  0.78044921  0.41891882  0.12281030  1  0  0.089832  0  0.958696  0  0  0.091558  0  1.031796  0  0  0.093918  0  1.029696  0  0.145781  0  0.116336  0.089666  0  1.033637  0
H  H36  1  0.06646325  0.68490071  0.37886737  1  0  0.086872  0  0.93788  0  0  0.097333  0  0.996457  0  0  0.099362  0  0.994984  0  0.083637  0  0.119059  0.095644  0  0.997775  0
H  H37  1  0.61828242  0.68475529  0.87860627  1  0  0.085624  0  0.93736  0  0  0.095943  0  0.996233  0  0  0.098059  0  0.994641  0  0.113718  0  0.118685  0.094295  0  0.9975  0
H  H38  1  0.93353663  0.31509943  0.62113361  1  0  0.086861  0  0.937894  0  0  0.097327  0  0.996467  0  0  0.099355  0  0.994994  0  0.083627  0  0.119062  0.095656  0  0.997765  0
H  H39  1  0.38171747  0.31524485  0.12139398  1  0  0.085605  0  0.937377  0  0  0.095924  0  0.996252  0  0  0.098039  0  0.994661  0  0.113696  0  0.118679  0.094276  0  0.997519  0
H  H40  1  0.22533940  0.87478343  0.36940108  1  0  0.119452  0  0.927712  0  0  0.130465  0  0.981389  0  0  0.134145  0  0.980104  0  0.10489  0  0.115305  0.127775  0  0.98255  0
H  H41  1  0.64929694  0.87467580  0.86921030  1  0  0.119146  0  0.927855  0  0  0.129997  0  0.981842  0  0  0.133646  0  0.98061  0  0.108065  0  0.115343  0.127391  0  0.982869  0
H  H42  1  0.77466096  0.12521589  0.63059898  1  0  0.11949  0  0.927678  0  0  0.130504  0  0.981359  0  0  0.134184  0  0.980073  0  0.104878  0  0.115334  0.127814  0  0.98252  0
H  H43  1  0.35070341  0.12532352  0.13078758  1  0  0.119149  0  0.92786  0  0  0.13  0  0.981845  0  0  0.133649  0  0.980612  0  0.108067  0  0.115337  0.127394  0  0.982871  0
C  C44  1  0.04174346  0.37554168  0.04258550  1  0  0.091079  0  3.670343  0  0  0.094444  0  3.916348  0  0  0.095597  0  3.929888  0  0.557476  0  0.132748  0.092964  0  3.908183  0
C  C45  1  0.33377970  0.37553100  0.54253734  1  0  0.09248  0  3.668767  0  0  0.093856  0  3.916922  0  0  0.094994  0  3.930484  0  0.56771  0  0.132358  0.092412  0  3.90858  0
C  C46  1  0.95825548  0.62446010  0.95741440  1  0  0.091107  0  3.670392  0  0  0.09444  0  3.916412  0  0  0.095593  0  3.929953  0  0.557466  0  0.132733  0.092959  0  3.908251  0
C  C47  1  0.66621972  0.62446996  0.45746310  1  0  0.092474  0  3.668624  0  0  0.093853  0  3.916749  0  0  0.094992  0  3.93031  0  0.567845  0  0.132357  0.09241  0  3.908407  0
C  C48  1  0.16564632  0.40947636  0.00803127  1  0  0.045081  0  3.692824  0  0  0.042408  0  3.932981  0  0  0.04151  0  3.950359  0  0.528105  0  0.117527  0.042475  0  3.921953  0
C  C49  1  0.24377098  0.40940078  0.50795014  1  0  0.045482  0  3.691086  0  0  0.044408  0  3.930239  0  0  0.043483  0  3.947697  0  0.511225  0  0.118367  0.044588  0  3.919002  0
C  C50  1  0.83435403  0.59052295  0.99196879  1  0  0.045103  0  3.692802  0  0  0.042439  0  3.932955  0  0  0.04154  0  3.950336  0  0.52781  0  0.11753  0.042507  0  3.921928  0
C  C51  1  0.75622761  0.59059854  0.49204992  1  0  0.045512  0  3.691083  0  0  0.044464  0  3.930227  0  0  0.043541  0  3.94768  0  0.513489  0  0.118389  0.044645  0  3.91899  0
C  C52  1  0.07068642  0.35680054  0.84564158  1  0  0.082584  0  3.663597  0  0  0.048974  0  3.925948  0  0  0.053553  0  3.939484  0  0.487306  0  0.050598  0.045513  0  3.9172  0
C  C53  1  0.28605512  0.35665512  0.34557932  1  0  0.082757  0  3.663063  0  0  0.049533  0  3.925246  0  0  0.054199  0  3.938811  0  0.472396  0  0.051267  0.045919  0  3.916783  0
C  C54  1  0.92931388  0.64320042  0.15435886  1  0  0.082607  0  3.663588  0  0  0.049017  0  3.925928  0  0  0.053596  0  3.939461  0  0.487294  0  0.050634  0.045555  0  3.917179  0
C  C55  1  0.71394564  0.64334502  0.65442166  1  0  0.082815  0  3.663071  0  0  0.049626  0  3.925249  0  0  0.054293  0  3.938813  0  0.472483  0  0.051297  0.046007  0  3.916784  0
C  C56  1  0.94954867  0.33187863  0.88186865  1  0  0.084913  0  3.704552  0  0  0.058969  0  3.973063  0  0  0.062273  0  3.986306  0  0.538029  0  0.05124  0.056683  0  3.96417  0
C  C57  1  0.38220384  0.33167652  0.38183117  1  0  0.086118  0  3.703169  0  0  0.059879  0  3.971702  0  0  0.063213  0  3.984895  0  0.512723  0  0.050998  0.057533  0  3.963069  0
C  C58  1  0.05045163  0.66812233  0.11813178  1  0  0.084958  0  3.704455  0  0  0.059015  0  3.972954  0  0  0.06232  0  3.986194  0  0.538028  0  0.051276  0.056728  0  3.964062  0
C  C59  1  0.61779687  0.66832526  0.61817018  1  0  0.085968  0  3.703251  0  0  0.059701  0  3.9718  0  0  0.063035  0  3.984993  0  0.512519  0  0.050907  0.057356  0  3.963169  0
C  C60  1  0.02943208  0.37639448  0.15211203  1  0  0.620753  0  3.984762  0  0  0.569011  0  4.2856  0  0  0.604259  0  4.276721  0  1.628973  0  0.189394  0.544785  0  4.290548  0
C  C61  1  0.34713122  0.37658591  0.65210860  1  0  0.621555  0  3.982696  0  0  0.570058  0  4.283918  0  0  0.60532  0  4.275  0  1.652542  0  0.189587  0.545963  0  4.289008  0
C  C62  1  0.97056816  0.62360812  0.84788806  1  0  0.620577  0  3.985017  0  0  0.568871  0  4.285806  0  0  0.604118  0  4.276928  0  1.629102  0  0.18926  0.544645  0  4.290752  0
C  C63  1  0.65286779  0.62341422  0.34789165  1  0  0.621534  0  3.982812  0  0  0.570029  0  4.284042  0  0  0.605293  0  4.275121  0  1.65251  0  0.189555  0.545934  0  4.289131  0
C  C64  1  0.28768246  0.46783015  0.08048413  1  0  0.610793  0  3.960225  0  0  0.557009  0  4.263337  0  0  0.590665  0  4.255823  0  1.610853  0  0.199485  0.534133  0  4.267509  0
C  C65  1  0.17988906  0.46756067  0.58040731  1  0  0.609351  0  3.96313  0  0  0.555338  0  4.266091  0  0  0.588999  0  4.258662  0  1.62466  0  0.199823  0.532449  0  4.27021  0
C  C66  1  0.71231819  0.53217328  0.91951687  1  0  0.610878  0  3.959997  0  0  0.557087  0  4.263126  0  0  0.590741  0  4.255609  0  1.610856  0  0.199508  0.53421  0  4.267299  0
C  C67  1  0.82010783  0.53243700  0.41959383  1  0  0.609338  0  3.963098  0  0  0.555261  0  4.266126  0  0  0.588923  0  4.258696  0  1.622303  0  0.199793  0.532372  0  4.270245  0
C  C68  1  0.90393074  0.18558255  0.36614463  1  0  0.13664  0  3.71509  0  0  0.10743  0  3.965716  0  0  0.114408  0  3.985081  0  0.450581  0  0.051683  0.102836  0  3.952742  0
C  C69  1  0.28142889  0.18549054  0.86605321  1  0  0.136813  0  3.715895  0  0  0.107882  0  3.966466  0  0  0.114877  0  3.985798  0  0.542353  0  0.051934  0.10335  0  3.95332  0
C  C70  1  0.09607096  0.81441594  0.63385597  1  0  0.136682  0  3.715028  0  0  0.107447  0  3.965672  0  0  0.114421  0  3.985037  0  0.450622  0  0.051699  0.102852  0  3.952698  0
C  C71  1  0.71857140  0.81451042  0.13394723  1  0  0.136865  0  3.715798  0  0  0.107928  0  3.966377  0  0  0.114921  0  3.985706  0  0.542434  0  0.051935  0.103395  0  3.95323  0
C  C72  1  0.81202289  0.08370210  0.37347054  1  0  -0.174663  0  3.694066  0  0  -0.194349  0  3.941055  0  0  -0.202999  0  3.963115  0  -0.016284  0  -0.07345  -0.18897  0  3.926586  0
C  C73  1  0.27138366  0.08355011  0.87327470  1  0  -0.174805  0  3.694513  0  0  -0.194377  0  3.941568  0  0  -0.202958  0  3.963704  0  -0.056953  0  -0.073197  -0.188745  0  3.926679  0
C  C74  1  0.18797840  0.91629557  0.62652987  1  0  -0.174625  0  3.694013  0  0  -0.194325  0  3.941  0  0  -0.202975  0  3.963061  0  -0.016252  0  -0.073459  -0.188945  0  3.926529  0
C  C75  1  0.72861751  0.91645085  0.12672501  1  0  -0.174735  0  3.69437  0  0  -0.194312  0  3.941429  0  0  -0.202891  0  3.963563  0  -0.056967  0  -0.073172  -0.188687  0  3.926536  0
C  C76  1  0.68213437  0.06738874  0.37669318  1  0  0.192424  0  3.808722  0  0  0.192311  0  4.065712  0  0  0.196411  0  4.089239  0  0.331826  0  0.100617  0.189758  0  4.049774  0
C  C77  1  0.38494392  0.06720060  0.87652247  1  0  0.191535  0  3.810489  0  0  0.191038  0  4.068092  0  0  0.195037  0  4.091758  0  0.284005  0  0.100383  0.188604  0  4.051929  0
C  C78  1  0.31786733  0.93260975  0.62330742  1  0  0.192263  0  3.808733  0  0  0.192195  0  4.065674  0  0  0.196294  0  4.089199  0  0.331795  0  0.100593  0.189643  0  4.049736  0
C  C79  1  0.61505767  0.93280118  0.12347671  1  0  0.191535  0  3.810502  0  0  0.191047  0  4.068118  0  0  0.195044  0  4.091783  0  0.283993  0  0.100457  0.188614  0  4.051952  0
C  C80  1  0.64923030  0.15411016  0.37353150  1  0  -0.167154  0  3.680389  0  0  -0.189368  0  3.933135  0  0  -0.197868  0  3.956681  0  -0.011424  0  -0.075557  -0.18389  0  3.917509  0
C  C81  1  0.50459589  0.15397131  0.87350631  1  0  -0.166551  0  3.682794  0  0  -0.18845  0  3.935452  0  0  -0.196981  0  3.959011  0  0.04148  0  -0.07575  -0.18298  0  3.919773  0
C  C82  1  0.35077099  0.84588752  0.62646746  1  0  -0.167081  0  3.680438  0  0  -0.189322  0  3.933192  0  0  -0.197821  0  3.956735  0  -0.011387  0  -0.07553  -0.183846  0  3.917568  0
C  C83  1  0.49540529  0.84602965  0.12649341  1  0  -0.166516  0  3.68283  0  0  -0.188421  0  3.935509  0  0  -0.19695  0  3.959069  0  0.041466  0  -0.075772  -0.18295  0  3.919828  0
C  C84  1  0.74788365  0.25342563  0.36736109  1  0  0.138392  0  3.676438  0  0  0.108211  0  3.928533  0  0  0.114561  0  3.948114  0  0.481515  0  0.049584  0.104174  0  3.915361  0
C  C85  1  0.50529919  0.25331389  0.86741103  1  0  0.137224  0  3.67681  0  0  0.107309  0  3.928956  0  0  0.11369  0  3.948529  0  0.456502  0  0.049257  0.103258  0  3.91578  0
C  C86  1  0.25211764  0.74657204  0.63263787  1  0  0.138499  0  3.67643  0  0  0.108263  0  3.928519  0  0  0.114614  0  3.948095  0  0.481222  0  0.049645  0.104226  0  3.915347  0
C  C87  1  0.49470281  0.74668871  0.13258979  1  0  0.13721  0  3.676955  0  0  0.107288  0  3.929093  0  0  0.113668  0  3.948666  0  0.456467  0  0.049223  0.103235  0  3.915913  0
C  C88  1  0.38968988  0.83399592  0.37309971  1  0  0.184539  0  3.808876  0  0  0.187913  0  4.057858  0  0  0.191512  0  4.082011  0  0.228608  0  0.097486  0.185705  0  4.041521  0
C  C89  1  0.44417252  0.83391540  0.87300802  1  0  0.185074  0  3.807029  0  0  0.18748  0  4.057673  0  0  0.191078  0  4.081827  0  0.293351  0  0.097624  0.185391  0  4.041157  0
C  C90  1  0.61031094  0.16600258  0.62690089  1  0  0.184545  0  3.808899  0  0  0.187923  0  4.057854  0  0  0.191522  0  4.082006  0  0.228421  0  0.097473  0.185717  0  4.041515  0
C  C91  1  0.55582777  0.16608556  0.12699024  1  0  0.185103  0  3.80703  0  0  0.187499  0  4.057708  0  0  0.191105  0  4.081849  0  0.293333  0  0.097621  0.185409  0  4.041189  0
C  C92  1  0.42863043  0.75071118  0.37615126  1  0  -0.158669  0  3.658743  0  0  -0.179842  0  3.909671  0  0  -0.187758  0  3.930777  0  0.031826  0  -0.06901  -0.174881  0  3.895954  0
C  C93  1  0.32196501  0.75060109  0.87604482  1  0  -0.159725  0  3.65989  0  0  -0.180644  0  3.911477  0  0  -0.188521  0  3.93262  0  0.005039  0  -0.06942  -0.175666  0  3.897623  0
C  C94  1  0.57136998  0.24928649  0.62384915  1  0  -0.158653  0  3.658757  0  0  -0.179768  0  3.909706  0  0  -0.187686  0  3.930816  0  0.032136  0  -0.069002  -0.174818  0  3.895999  0
C  C95  1  0.67803399  0.24939905  0.12395253  1  0  -0.159611  0  3.659802  0  0  -0.180559  0  3.911385  0  0  -0.188439  0  3.932528  0  0.004598  0  -0.06936  -0.17557  0  3.897535  0
C  C96  1  0.33392822  0.64796149  0.37802453  1  0  0.1649  0  3.670872  0  0  0.132404  0  3.930643  0  0  0.140406  0  3.947142  0  0.495196  0  0.058398  0.127057  0  3.919908  0
C  C97  1  0.31393308  0.64786044  0.87790202  1  0  0.165139  0  3.670955  0  0  0.132608  0  3.931083  0  0  0.140608  0  3.947566  0  0.530167  0  0.059011  0.127288  0  3.920255  0
C  C98  1  0.66607084  0.35203700  0.62197679  1  0  0.164818  0  3.670814  0  0  0.132254  0  3.930667  0  0  0.140257  0  3.947165  0  0.494878  0  0.058359  0.126907  0  3.919934  0
C  C99  1  0.68606721  0.35214052  0.12209914  1  0  0.16505  0  3.670886  0  0  0.13253  0  3.931007  0  0  0.140529  0  3.94749  0  0.530207  0  0.058965  0.12721  0  3.920176  0
C  C100  1  0.16995229  0.70640401  0.37677125  1  0  0.130208  0  3.710204  0  0  0.100855  0  3.963819  0  0  0.107558  0  3.984046  0  0.483824  0  0.047257  0.096558  0  3.950271  0
C  C101  1  0.53632618  0.70629556  0.87656504  1  0  0.132475  0  3.708104  0  0  0.103339  0  3.961613  0  0  0.110008  0  3.981768  0  0.521795  0  0.047809  0.099107  0  3.947887  0
C  C102  1  0.83004853  0.29359448  0.62322935  1  0  0.130136  0  3.710246  0  0  0.100787  0  3.963876  0  0  0.107489  0  3.984105  0  0.483805  0  0.047189  0.096477  0  3.950324  0
C  C103  1  0.46367236  0.29370540  0.12343467  1  0  0.132501  0  3.708049  0  0  0.103358  0  3.961565  0  0  0.110026  0  3.981723  0  0.521776  0  0.047805  0.099124  0  3.947843  0
C  C104  1  0.25739841  0.81101787  0.37227826  1  0  -0.184683  0  3.711897  0  0  -0.204443  0  3.960406  0  0  -0.213429  0  3.983461  0  0.030621  0  -0.078815  -0.198732  0  3.945115  0
C  C105  1  0.55348898  0.81093736  0.87214013  1  0  -0.184327  0  3.710769  0  0  -0.203658  0  3.959664  0  0  -0.212622  0  3.982709  0  -0.069589  0  -0.078341  -0.197802  0  3.944066  0
C  C106  1  0.74260283  0.18898144  0.62772180  1  0  -0.184676  0  3.711853  0  0  -0.204463  0  3.960403  0  0  -0.213447  0  3.983455  0  0.030671  0  -0.078815  -0.198752  0  3.945117  0
C  C107  1  0.44651049  0.18906196  0.12785848  1  0  -0.184339  0  3.710678  0  0  -0.203662  0  3.959574  0  0  -0.21263  0  3.982619  0  -0.069564  0  -0.078324  -0.197807  0  3.943978  0
N  N108  1  0.93396789  0.33827548  0.97926373  1  0  -0.268351  0  3.015395  0  0  -0.244418  0  3.278435  0  0  -0.250111  0  3.290667  0  -1.163397  0  -0.296722  -0.240221  0  3.270299  0
N  N109  1  0.40427115  0.33819085  0.47924149  1  0  -0.269596  0  3.015142  0  0  -0.245049  0  3.278784  0  0  -0.250713  0  3.290981  0  -1.171298  0  -0.296833  -0.240919  0  3.270699  0
N  N110  1  0.06603105  0.66172630  0.02073690  1  0  -0.268452  0  3.015424  0  0  -0.244515  0  3.278479  0  0  -0.250208  0  3.290712  0  -1.163354  0  -0.296787  -0.240316  0  3.270343  0
N  N111  1  0.59572908  0.66181175  0.52076005  1  0  -0.269497  0  3.015107  0  0  -0.244938  0  3.278739  0  0  -0.250604  0  3.290939  0  -1.171306  0  -0.296761  -0.24081  0  3.270655  0
N  N112  1  0.17825058  0.39575181  0.90958500  1  0  -0.296402  0  3.235059  0  0  -0.232246  0  3.495932  0  0  -0.245442  0  3.512777  0  -1.243262  0  -0.300072  -0.222831  0  3.484479  0
N  N113  1  0.21745550  0.39566472  0.40949253  1  0  -0.297865  0  3.235751  0  0  -0.234266  0  3.496424  0  0  -0.247456  0  3.513223  0  -1.23888  0  -0.301463  -0.224906  0  3.485057  0
N  N114  1  0.82174930  0.60424833  0.09041597  1  0  -0.296483  0  3.235084  0  0  -0.23234  0  3.49597  0  0  -0.245534  0  3.512813  0  -1.242979  0  -0.300128  -0.222925  0  3.484517  0
N  N115  1  0.78254398  0.60433459  0.59050753  1  0  -0.297866  0  3.235773  0  0  -0.234282  0  3.496429  0  0  -0.247472  0  3.513228  0  -1.238958  0  -0.301466  -0.224922  0  3.485065  0
N  N116  1  0.87290955  0.26912526  0.36406133  1  0  -0.303121  0  3.21234  0  0  -0.229142  0  3.479073  0  0  -0.248075  0  3.497043  0  -1.193264  0  -0.314149  -0.21632  0  3.466733  0
N  N117  1  0.39599174  0.26902585  0.86397330  1  0  -0.302603  0  3.213031  0  0  -0.22861  0  3.479578  0  0  -0.247539  0  3.497492  0  -1.205708  0  -0.31375  -0.21576  0  3.467186  0
N  N118  1  0.12709086  0.73087241  0.63593908  1  0  -0.303351  0  3.212352  0  0  -0.229351  0  3.479083  0  0  -0.248288  0  3.497068  0  -1.193227  0  -0.314249  -0.216529  0  3.466745  0
N  N119  1  0.60400896  0.73097593  0.13602805  1  0  -0.302684  0  3.213034  0  0  -0.228668  0  3.479551  0  0  -0.247601  0  3.497478  0  -1.205634  0  -0.313766  -0.215828  0  3.46719  0
N  N120  1  0.20712830  0.62602768  0.37924288  1  0  -0.308482  0  3.189039  0  0  -0.234638  0  3.451234  0  0  -0.254583  0  3.470809  0  -1.200908  0  -0.312198  -0.221378  0  3.437996  0
N  N121  1  0.41879543  0.62589541  0.87903268  1  0  -0.309714  0  3.189424  0  0  -0.235753  0  3.451672  0  0  -0.255708  0  3.471255  0  -1.202766  0  -0.312574  -0.222283  0  3.438292  0
N  N122  1  0.79287164  0.37397081  0.62075772  1  0  -0.308394  0  3.18899  0  0  -0.234516  0  3.451182  0  0  -0.254462  0  3.470759  0  -1.200865  0  -0.312132  -0.221257  0  3.43795  0
N  N123  1  0.58120310  0.37410555  0.12096703  1  0  -0.309692  0  3.189313  0  0  -0.235724  0  3.451544  0  0  -0.25568  0  3.471131  0  -1.202776  0  -0.312553  -0.222253  0  3.438165  0
N  N124  1  0.59399814  0.96200683  0.38444047  1  0  -0.129423  0  2.966843  0  0  -0.109583  0  3.251601  0  0  -0.108357  0  3.25694  0  -0.4605  0  -0.131976  -0.110423  0  3.248001  0
N  N125  1  0.36770178  0.96178007  0.88414192  1  0  -0.129332  0  2.968208  0  0  -0.109339  0  3.252926  0  0  -0.108059  0  3.258259  0  -0.433516  0  -0.131597  -0.110075  0  3.249195  0
N  N126  1  0.40600315  0.03799084  0.61555921  1  0  -0.129318  0  2.966811  0  0  -0.109486  0  3.251539  0  0  -0.108259  0  3.256877  0  -0.460406  0  -0.132014  -0.110326  0  3.24794  0
N  N127  1  0.63229940  0.03822088  0.11585706  1  0  -0.129344  0  2.968166  0  0  -0.109356  0  3.252891  0  0  -0.108076  0  3.258223  0  -0.433558  0  -0.131614  -0.110092  0  3.249158  0
N  N128  1  0.47565808  0.94130457  0.36750412  1  0  -0.131265  0  2.957284  0  0  -0.11468  0  3.244192  0  0  -0.1134  0  3.24939  0  -0.410681  0  -0.132326  -0.115494  0  3.240773  0
N  N129  1  0.46550592  0.94123885  0.86751958  1  0  -0.131454  0  2.956699  0  0  -0.114447  0  3.243717  0  0  -0.113152  0  3.248894  0  -0.463188  0  -0.132331  -0.115209  0  3.240175  0
N  N130  1  0.52434362  0.05869392  0.63249575  1  0  -0.131322  0  2.957338  0  0  -0.114724  0  3.244243  0  0  -0.113444  0  3.249439  0  -0.410708  0  -0.132275  -0.115538  0  3.240824  0
N  N131  1  0.53449396  0.05876129  0.13247776  1  0  -0.131471  0  2.956699  0  0  -0.114466  0  3.243726  0  0  -0.113172  0  3.248897  0  -0.463146  0  -0.132349  -0.115229  0  3.240186  0
O  O132  1  0.99067157  0.44501067  0.20359442  1  0  -0.621899  0  1.986446  0  0  -0.560942  0  2.238552  0  0  -0.59228  0  2.230002  0  -1.138074  0  -0.325055  -0.537928  0  2.243182  0
O  O133  1  0.45450345  0.44529493  0.70352730  1  0  -0.621721  0  1.985554  0  0  -0.560807  0  2.237377  0  0  -0.59212  0  2.228796  0  -1.147445  0  -0.325263  -0.538331  0  2.242256  0
O  O134  1  0.00932608  0.55499029  0.79640602  1  0  -0.621816  0  1.986558  0  0  -0.560852  0  2.238622  0  0  -0.592188  0  2.230074  0  -1.138128  0  -0.324994  -0.537838  0  2.24325  0
O  O135  1  0.54549420  0.55470602  0.29647386  1  0  -0.62175  0  1.985651  0  0  -0.560823  0  2.237465  0  0  -0.592137  0  2.228883  0  -1.147444  0  -0.32524  -0.538346  0  2.242342  0
O  O136  1  0.05849178  0.30928673  0.18337783  1  0  -0.639615  0  1.883281  0  0  -0.598048  0  2.101501  0  0  -0.624932  0  2.092941  0  -1.164621  0  -0.345635  -0.57755  0  2.105901  0
O  O137  1  0.25108832  0.30945022  0.68348413  1  0  -0.640559  0  1.881688  0  0  -0.598855  0  2.100143  0  0  -0.625797  0  2.091617  0  -1.17588  0  -0.346313  -0.578956  0  2.104848  0
O  O138  1  0.94150975  0.69071670  0.81662317  1  0  -0.639509  0  1.88329  0  0  -0.597955  0  2.101489  0  0  -0.624838  0  2.092927  0  -1.164712  0  -0.345507  -0.577459  0  2.105891  0
O  O139  1  0.74891156  0.69054991  0.31651612  1  0  -0.640531  0  1.881704  0  0  -0.59883  0  2.100161  0  0  -0.625773  0  2.091636  0  -1.175862  0  -0.346301  -0.578929  0  2.104866  0
O  O140  1  0.28127073  0.51944448  0.16563705  1  0  -0.560657  0  1.934767  0  0  -0.518812  0  2.159952  0  0  -0.542171  0  2.15449  0  -1.153131  0  -0.300329  -0.501814  0  2.162806  0
O  O141  1  0.23769369  0.51900987  0.66565457  1  0  -0.560081  0  1.937351  0  0  -0.51856  0  2.16287  0  0  -0.541934  0  2.157441  0  -1.152102  0  -0.300464  -0.501777  0  2.165826  0
O  O142  1  0.71872686  0.48055812  0.83436303  1  0  -0.560741  0  1.934552  0  0  -0.518866  0  2.159713  0  0  -0.542222  0  2.154253  0  -1.153072  0  -0.30035  -0.501867  0  2.162569  0
O  O143  1  0.76230232  0.48098781  0.33434584  1  0  -0.560099  0  1.937291  0  0  -0.518532  0  2.162807  0  0  -0.541906  0  2.157377  0  -1.152123  0  -0.300465  -0.50175  0  2.165763  0
O  O144  1  0.39034933  0.46183916  0.04544378  1  0  -0.666211  0  2.127878  0  0  -0.587728  0  2.401125  0  0  -0.619846  0  2.389735  0  -1.165344  0  -0.333748  -0.56489  0  2.407796  0
O  O145  1  0.07125542  0.46157790  0.54531005  1  0  -0.66552  0  2.128355  0  0  -0.586731  0  2.401091  0  0  -0.618767  0  2.389611  0  -1.173479  0  -0.333872  -0.563815  0  2.407632  0
O  O146  1  0.60964967  0.53816098  0.95455720  1  0  -0.666223  0  2.127864  0  0  -0.587731  0  2.401098  0  0  -0.619865  0  2.389744  0  -1.165456  0  -0.333746  -0.564894  0  2.40777  0
O  O147  1  0.92874358  0.53842224  0.45468875  1  0  -0.665551  0  2.128403  0  0  -0.586731  0  2.401148  0  0  -0.618768  0  2.38967  0  -1.173433  0  -0.333869  -0.563813  0  2.407683  0
