# generated using pymatgen
data_ZnH8C10NO5
_symmetry_space_group_name_H-M   'P 1'
_cell_length_a   5.21724225
_cell_length_b   10.52295692
_cell_length_c   18.65069844
_cell_angle_alpha   89.99992548
_cell_angle_beta   89.99983312
_cell_angle_gamma   92.58821365
_symmetry_Int_Tables_number   1
_chemical_formula_structural   ZnH8C10NO5
_chemical_formula_sum   'Zn4 H32 C40 N4 O20'
_cell_volume   1022.89401177
_cell_formula_units_Z   4
loop_
 _symmetry_equiv_pos_site_id
 _symmetry_equiv_pos_as_xyz
  1  'x, y, z'
loop_
 _atom_site_type_symbol
 _atom_site_label
 _atom_site_symmetry_multiplicity
 _atom_site_fract_x
 _atom_site_fract_y
 _atom_site_fract_z
 _atom_site_occupancy
 _atom_site_hle17_bader_spin_density
 _atom_site_hle17_ddec_charge
 _atom_site_hle17_ddec_spin_density
 _atom_site_hle17_ddec_sum_bond_order
 _atom_site_hle17_magmom
 _atom_site_hse06_10hf_bader_spin_density
 _atom_site_hse06_10hf_ddec_charge
 _atom_site_hse06_10hf_ddec_spin_density
 _atom_site_hse06_10hf_ddec_sum_bond_order
 _atom_site_hse06_10hf_magmom
 _atom_site_hse06_bader_spin_density
 _atom_site_hse06_ddec_charge
 _atom_site_hse06_ddec_spin_density
 _atom_site_hse06_ddec_sum_bond_order
 _atom_site_hse06_magmom
 _atom_site_pbe_bader_spin_density
 _atom_site_pbe_cm5_charge
 _atom_site_pbe_ddec_charge
 _atom_site_pbe_ddec_spin_density
 _atom_site_pbe_ddec_sum_bond_order
 _atom_site_pbe_magmom
Zn  Zn0  1  0.54543832  0.77051411  0.55424522  1  0  1.093253  0  1.748128  0  0  0.909942  0  2.21528  0  0  0.961182  0  2.15453  0  0  0.688641  0.874045  0  2.257216  0
Zn  Zn1  1  0.54544292  0.27051369  0.94575407  1  0  1.093287  0  1.748119  0  0  0.909953  0  2.215311  0  0  0.961217  0  2.154507  0  0  0.688643  0.874055  0  2.257242  0
Zn  Zn2  1  0.45456649  0.22948544  0.44575622  1  0  1.093314  0  1.747987  0  0  0.910014  0  2.215172  0  0  0.961263  0  2.154402  0  0  0.688688  0.874118  0  2.257112  0
Zn  Zn3  1  0.45456336  0.72948204  0.05424524  1  0  1.093305  0  1.748046  0  0  0.90998  0  2.215275  0  0  0.961219  0  2.154516  0  0  0.688676  0.874084  0  2.257216  0
H  H4  1  0.96720887  0.67243019  0.59778233  1  0  0.437012  0  0.863119  0  0  0.402984  0  0.93197  0  0  0.414048  0  0.916066  0  0  0.295273  0.395132  0  0.943259  0
H  H5  1  0.96721573  0.17242892  0.90221883  1  0  0.436997  0  0.863136  0  0  0.402912  0  0.932074  0  0  0.413976  0  0.91617  0  0  0.295242  0.39506  0  0.943361  0
H  H6  1  0.03279008  0.32756845  0.40221912  1  0  0.437004  0  0.863134  0  0  0.402986  0  0.931967  0  0  0.41405  0  0.916063  0  0  0.295286  0.395134  0  0.943256  0
H  H7  1  0.03278256  0.82756401  0.09777940  1  0  0.436929  0  0.86323  0  0  0.402919  0  0.932046  0  0  0.413983  0  0.916142  0  0  0.295284  0.395069  0  0.943331  0
H  H8  1  0.79178264  0.55609643  0.55910990  1  0  0.438796  0  0.867828  0  0  0.403306  0  0.938131  0  0  0.415187  0  0.92132  0  0  0.290698  0.394909  0  0.949985  0
H  H9  1  0.79178560  0.05609794  0.94089256  1  0  0.438892  0  0.867731  0  0  0.403404  0  0.938025  0  0  0.415285  0  0.921214  0  0  0.290734  0.395005  0  0.94988  0
H  H10  1  0.20821440  0.44390222  0.44089262  1  0  0.4389  0  0.86772  0  0  0.403428  0  0.937986  0  0  0.415309  0  0.921175  0  0  0.290741  0.395029  0  0.949841  0
H  H11  1  0.20820920  0.94389787  0.05910567  1  0  0.438794  0  0.867827  0  0  0.40331  0  0.938118  0  0  0.41519  0  0.921308  0  0  0.290705  0.394911  0  0.949975  0
H  H12  1  0.44391933  0.95688275  0.79439438  1  0  0.108371  0  0.935907  0  0  0.118799  0  0.993258  0  0  0.122484  0  0.991115  0  0  0.10719  0.116116  0  0.994892  0
H  H13  1  0.44391993  0.45687632  0.70560754  1  0  0.108334  0  0.936014  0  0  0.118741  0  0.993391  0  0  0.12242  0  0.991252  0  0  0.107161  0.116067  0  0.995006  0
H  H14  1  0.55608465  0.04312632  0.20560599  1  0  0.108322  0  0.936052  0  0  0.118758  0  0.99339  0  0  0.122439  0  0.991245  0  0  0.10718  0.116079  0  0.995008  0
H  H15  1  0.55607667  0.54311852  0.29439766  1  0  0.108354  0  0.935882  0  0  0.118741  0  0.993277  0  0  0.122422  0  0.991148  0  0  0.107175  0.116065  0  0.994887  0
H  H16  1  0.19687298  0.96256039  0.90906847  1  0  0.115749  0  0.956412  0  0  0.124215  0  1.018127  0  0  0.127875  0  1.016105  0  0  0.107912  0.121532  0  1.019763  0
H  H17  1  0.19686924  0.46255619  0.59093526  1  0  0.115817  0  0.956298  0  0  0.124207  0  1.018093  0  0  0.127868  0  1.016062  0  0  0.107904  0.121529  0  1.019736  0
H  H18  1  0.80313407  0.03744201  0.09093298  1  0  0.115784  0  0.956363  0  0  0.124193  0  1.018143  0  0  0.127852  0  1.016121  0  0  0.107893  0.121506  0  1.019777  0
H  H19  1  0.80312812  0.53744531  0.40907048  1  0  0.115743  0  0.956323  0  0  0.124208  0  1.018042  0  0  0.127872  0  1.016013  0  0  0.107894  0.121523  0  1.019671  0
H  H20  1  0.67351929  0.66731198  0.82844781  1  0  0.102616  0  0.945205  0  0  0.113192  0  1.005314  0  0  0.116692  0  1.003485  0  0  0.104552  0.110687  0  1.006692  0
H  H21  1  0.67352555  0.16730180  0.67155467  1  0  0.102582  0  0.945147  0  0  0.113115  0  1.00532  0  0  0.116611  0  1.003495  0  0  0.10454  0.110614  0  1.006691  0
H  H22  1  0.32648076  0.33269616  0.17155042  1  0  0.102599  0  0.945082  0  0  0.113182  0  1.005185  0  0  0.116683  0  1.003351  0  0  0.104546  0.110676  0  1.006561  0
H  H23  1  0.32647329  0.83269588  0.32844410  1  0  0.102642  0  0.945133  0  0  0.113179  0  1.005288  0  0  0.116677  0  1.003458  0  0  0.104566  0.11068  0  1.006663  0
H  H24  1  0.91611239  0.66420092  0.71405950  1  0  0.103927  0  0.95776  0  0  0.114069  0  1.018562  0  0  0.117417  0  1.016538  0  0  0.105473  0.111605  0  1.020164  0
H  H25  1  0.91612129  0.16419043  0.78594224  1  0  0.103907  0  0.957828  0  0  0.114111  0  1.018572  0  0  0.117464  0  1.016539  0  0  0.105485  0.111648  0  1.020171  0
H  H26  1  0.08388224  0.33581011  0.28593820  1  0  0.10387  0  0.95784  0  0  0.11405  0  1.018603  0  0  0.117401  0  1.016575  0  0  0.105438  0.11159  0  1.020204  0
H  H27  1  0.08386934  0.83580254  0.21405813  1  0  0.103961  0  0.957799  0  0  0.114133  0  1.018557  0  0  0.117484  0  1.016526  0  0  0.105503  0.111671  0  1.020154  0
H  H28  1  0.70505740  0.89484393  0.41547390  1  0  0.108285  0  0.938724  0  0  0.114102  0  1.001346  0  0  0.116732  0  1.000532  0  0  0.128836  0.112137  0  1.002181  0
H  H29  1  0.70507223  0.39483393  0.08452455  1  0  0.108216  0  0.93861  0  0  0.114019  0  1.001285  0  0  0.11665  0  1.000463  0  0  0.1288  0.112051  0  1.002113  0
H  H30  1  0.29494018  0.10515947  0.58452862  1  0  0.108267  0  0.938706  0  0  0.114075  0  1.001334  0  0  0.116704  0  1.000519  0  0  0.128833  0.112109  0  1.002164  0
H  H31  1  0.29494002  0.60516367  0.91547047  1  0  0.108265  0  0.938703  0  0  0.11406  0  1.001329  0  0  0.116688  0  1.000516  0  0  0.128823  0.112095  0  1.002158  0
H  H32  1  0.92801495  0.95491980  0.62666320  1  0  0.11039  0  0.937127  0  0  0.118325  0  0.996359  0  0  0.120682  0  0.995137  0  0  0.13121  0.116619  0  0.997322  0
H  H33  1  0.92801522  0.45492531  0.87333564  1  0  0.110485  0  0.937091  0  0  0.118388  0  0.996336  0  0  0.120746  0  0.995116  0  0  0.131232  0.116687  0  0.997294  0
H  H34  1  0.07198061  0.04508266  0.37333932  1  0  0.110498  0  0.937138  0  0  0.118411  0  0.996346  0  0  0.12077  0  0.995122  0  0  0.131246  0.116709  0  0.997314  0
H  H35  1  0.07199523  0.54507326  0.12665937  1  0  0.110494  0  0.937153  0  0  0.118413  0  0.996346  0  0  0.12077  0  0.995123  0  0  0.131248  0.11671  0  0.997308  0
C  C36  1  0.33823967  0.81405973  0.67805567  1  0  0.627593  0  3.916083  0  0  0.578571  0  4.20328  0  0  0.612161  0  4.197655  0  0  0.201078  0.555814  0  4.206218  0
C  C37  1  0.33824628  0.31404915  0.82194537  1  0  0.627657  0  3.915934  0  0  0.578625  0  4.203129  0  0  0.612214  0  4.197508  0  0  0.201065  0.555861  0  4.206068  0
C  C38  1  0.66175102  0.18595038  0.32194149  1  0  0.627703  0  3.915848  0  0  0.578666  0  4.202998  0  0  0.612254  0  4.197376  0  0  0.201093  0.555919  0  4.205927  0
C  C39  1  0.66174627  0.68594381  0.17805715  1  0  0.627733  0  3.915762  0  0  0.578708  0  4.202989  0  0  0.6123  0  4.197367  0  0  0.201116  0.555957  0  4.205918  0
C  C40  1  0.19316053  0.81200957  0.74686334  1  0  -0.067767  0  3.764675  0  0  -0.043135  0  3.99465  0  0  -0.051015  0  4.018076  0  0  -0.017687  -0.037918  0  3.978623  0
C  C41  1  0.19316447  0.31200300  0.75313675  1  0  -0.067757  0  3.764498  0  0  -0.043092  0  3.994453  0  0  -0.050971  0  4.017882  0  0  -0.017668  -0.037864  0  3.978419  0
C  C42  1  0.80683962  0.18799953  0.25313596  1  0  -0.067811  0  3.76461  0  0  -0.043055  0  3.994429  0  0  -0.050933  0  4.017856  0  0  -0.017682  -0.037843  0  3.978412  0
C  C43  1  0.80683394  0.68799088  0.24686416  1  0  -0.067813  0  3.764535  0  0  -0.043243  0  3.99461  0  0  -0.051122  0  4.018037  0  0  -0.017724  -0.038027  0  3.978588  0
C  C44  1  0.27303215  0.89508890  0.80223493  1  0  -0.058704  0  3.716825  0  0  -0.082514  0  3.966282  0  0  -0.083119  0  3.986863  0  0  -0.079086  -0.081974  0  3.952274  0
C  C45  1  0.27303135  0.39508631  0.69776503  1  0  -0.058719  0  3.716766  0  0  -0.082515  0  3.9662  0  0  -0.083115  0  3.986773  0  0  -0.079064  -0.081977  0  3.952197  0
C  C46  1  0.72696576  0.10491735  0.19776544  1  0  -0.058682  0  3.716668  0  0  -0.082525  0  3.966082  0  0  -0.083124  0  3.986653  0  0  -0.079077  -0.081987  0  3.952082  0
C  C47  1  0.72696590  0.60491424  0.30223588  1  0  -0.058695  0  3.71671  0  0  -0.082448  0  3.966196  0  0  -0.083057  0  3.986775  0  0  -0.079063  -0.081906  0  3.952185  0
C  C48  1  0.13477546  0.89836529  0.86596451  1  0  -0.081786  0  3.712597  0  0  -0.104112  0  3.961876  0  0  -0.105866  0  3.982233  0  0  -0.085309  -0.102986  0  3.948392  0
C  C49  1  0.13476958  0.39836289  0.63403718  1  0  -0.081772  0  3.712442  0  0  -0.104  0  3.961754  0  0  -0.105751  0  3.98211  0  0  -0.085285  -0.102889  0  3.948284  0
C  C50  1  0.86522968  0.10163712  0.13403480  1  0  -0.081675  0  3.712398  0  0  -0.103944  0  3.961703  0  0  -0.105698  0  3.982059  0  0  -0.085257  -0.102822  0  3.94822  0
C  C51  1  0.86522938  0.60163574  0.36596427  1  0  -0.081687  0  3.712479  0  0  -0.104008  0  3.961719  0  0  -0.105763  0  3.982076  0  0  -0.085268  -0.102881  0  3.948235  0
C  C52  1  0.91625469  0.81721320  0.87511722  1  0  -0.063834  0  3.766505  0  0  -0.041256  0  3.999439  0  0  -0.047451  0  4.022149  0  0  -0.015408  -0.037005  0  3.984024  0
C  C53  1  0.91624633  0.31720513  0.62488495  1  0  -0.063849  0  3.766429  0  0  -0.041379  0  3.999469  0  0  -0.047577  0  4.022182  0  0  -0.015427  -0.03712  0  3.98405  0
C  C54  1  0.08375258  0.18279110  0.12488369  1  0  -0.064093  0  3.766497  0  0  -0.041571  0  3.999524  0  0  -0.047766  0  4.022239  0  0  -0.015493  -0.037314  0  3.984097  0
C  C55  1  0.08374666  0.68279163  0.37511704  1  0  -0.063985  0  3.766671  0  0  -0.041387  0  3.999548  0  0  -0.047576  0  4.022263  0  0  -0.015448  -0.037138  0  3.984142  0
C  C56  1  0.84127357  0.73123539  0.82072843  1  0  -0.077591  0  3.736908  0  0  -0.100391  0  3.98794  0  0  -0.102434  0  4.008885  0  0  -0.083865  -0.09898  0  3.973629  0
C  C57  1  0.84127445  0.23122903  0.67927332  1  0  -0.077462  0  3.736711  0  0  -0.100224  0  3.987827  0  0  -0.102265  0  4.008776  0  0  -0.083825  -0.09881  0  3.973505  0
C  C58  1  0.15872264  0.26877278  0.17927033  1  0  -0.077474  0  3.736643  0  0  -0.100258  0  3.987682  0  0  -0.102301  0  4.00863  0  0  -0.083838  -0.098849  0  3.973372  0
C  C59  1  0.15872067  0.76876963  0.32072705  1  0  -0.077476  0  3.736819  0  0  -0.100255  0  3.987841  0  0  -0.102295  0  4.008786  0  0  -0.083798  -0.098848  0  3.973541  0
C  C60  1  0.97762928  0.72918184  0.75675973  1  0  -0.056416  0  3.70997  0  0  -0.080058  0  3.955886  0  0  -0.079948  0  3.975737  0  0  -0.081135  -0.079991  0  3.942295  0
C  C61  1  0.97763884  0.22917336  0.74324353  1  0  -0.056472  0  3.709974  0  0  -0.08016  0  3.955858  0  0  -0.080048  0  3.975704  0  0  -0.081159  -0.080093  0  3.942268  0
C  C62  1  0.02236694  0.27082632  0.24323958  1  0  -0.056385  0  3.709966  0  0  -0.080088  0  3.95582  0  0  -0.079975  0  3.975663  0  0  -0.081106  -0.080031  0  3.942243  0
C  C63  1  0.02236318  0.77081859  0.25675846  1  0  -0.056519  0  3.710043  0  0  -0.080154  0  3.955945  0  0  -0.080044  0  3.975795  0  0  -0.0812  -0.08009  0  3.942363  0
C  C64  1  0.76200589  0.82266118  0.94249546  1  0  0.649063  0  3.895338  0  0  0.596782  0  4.188231  0  0  0.631176  0  4.180557  0  0  0.212445  0.573484  0  4.19257  0
C  C65  1  0.76200070  0.32265803  0.55750737  1  0  0.648902  0  3.895181  0  0  0.596715  0  4.188015  0  0  0.631108  0  4.180343  0  0  0.212453  0.573415  0  4.192352  0
C  C66  1  0.23799892  0.17733837  0.05750492  1  0  0.649222  0  3.895141  0  0  0.596945  0  4.18805  0  0  0.63133  0  4.180388  0  0  0.212531  0.573653  0  4.192379  0
C  C67  1  0.23800219  0.67734153  0.44249247  1  0  0.648945  0  3.895338  0  0  0.596714  0  4.188162  0  0  0.631087  0  4.180519  0  0  0.21243  0.573419  0  4.1925  0
C  C68  1  0.83825285  0.94218207  0.45279790  1  0  0.097082  0  3.629663  0  0  0.064499  0  3.887117  0  0  0.067115  0  3.903898  0  0  0.065789  0.06236  0  3.876541  0
C  C69  1  0.83826287  0.44217695  0.04719987  1  0  0.097351  0  3.629467  0  0  0.064788  0  3.886867  0  0  0.067403  0  3.903648  0  0  0.065906  0.062657  0  3.876274  0
C  C70  1  0.16174249  0.05781849  0.54720355  1  0  0.097172  0  3.629726  0  0  0.064634  0  3.887158  0  0  0.067252  0  3.903941  0  0  0.065846  0.062497  0  3.876563  0
C  C71  1  0.16174533  0.55781877  0.95279461  1  0  0.09703  0  3.629812  0  0  0.064571  0  3.887155  0  0  0.067188  0  3.903939  0  0  0.065795  0.062442  0  3.876565  0
C  C72  1  0.96381181  0.97470651  0.57017843  1  0  0.107613  0  3.635743  0  0  0.074325  0  3.891644  0  0  0.078168  0  3.907609  0  0  0.068475  0.07149  0  3.881607  0
C  C73  1  0.96381286  0.47470710  0.92982037  1  0  0.107543  0  3.635776  0  0  0.07427  0  3.891651  0  0  0.078107  0  3.907624  0  0  0.06842  0.071422  0  3.881629  0
C  C74  1  0.03618577  0.02529689  0.42982141  1  0  0.107563  0  3.635622  0  0  0.07435  0  3.891491  0  0  0.078194  0  3.907454  0  0  0.068511  0.0715  0  3.88148  0
C  C75  1  0.03620131  0.52529049  0.07017733  1  0  0.107417  0  3.635727  0  0  0.074223  0  3.891562  0  0  0.078074  0  3.907515  0  0  0.068463  0.071372  0  3.881545  0
N  N76  1  0.80391897  0.91705927  0.52282908  1  0  -0.279104  0  3.273107  0  0  -0.202079  0  3.546473  0  0  -0.216631  0  3.559566  0  0  -0.304144  -0.192287  0  3.538077  0
N  N77  1  0.80392708  0.41705875  0.97716989  1  0  -0.279231  0  3.273243  0  0  -0.202214  0  3.5466  0  0  -0.216768  0  3.559696  0  0  -0.304165  -0.192421  0  3.53821  0
N  N78  1  0.19608020  0.08294126  0.47717290  1  0  -0.279173  0  3.27312  0  0  -0.202183  0  3.546472  0  0  -0.216738  0  3.559564  0  0  -0.304193  -0.192385  0  3.53808  0
N  N79  1  0.19608698  0.58293789  0.02282459  1  0  -0.278991  0  3.273177  0  0  -0.202057  0  3.546533  0  0  -0.216612  0  3.559623  0  0  -0.304113  -0.192268  0  3.538152  0
O  O80  1  0.25626711  0.73932423  0.62618690  1  0  -0.675951  0  2.074812  0  0  -0.592626  0  2.328766  0  0  -0.623879  0  2.316571  0  0  -0.32224  -0.5707  0  2.336573  0
O  O81  1  0.25626797  0.23931831  0.87381534  1  0  -0.67595  0  2.074714  0  0  -0.592615  0  2.328683  0  0  -0.623873  0  2.31649  0  0  -0.322262  -0.570699  0  2.336519  0
O  O82  1  0.74373228  0.26067821  0.37381348  1  0  -0.67601  0  2.074633  0  0  -0.592729  0  2.328639  0  0  -0.623986  0  2.316446  0  0  -0.322293  -0.570804  0  2.336438  0
O  O83  1  0.74373021  0.76067367  0.12618665  1  0  -0.675932  0  2.074686  0  0  -0.592623  0  2.328681  0  0  -0.623884  0  2.316491  0  0  -0.322223  -0.570697  0  2.336483  0
O  O84  1  0.53469411  0.88620262  0.66948538  1  0  -0.615405  0  1.930287  0  0  -0.566082  0  2.163577  0  0  -0.590827  0  2.155538  0  0  -0.313332  -0.548713  0  2.168362  0
O  O85  1  0.53470074  0.38619298  0.83051384  1  0  -0.615445  0  1.930317  0  0  -0.566109  0  2.163603  0  0  -0.590856  0  2.15556  0  0  -0.313308  -0.548747  0  2.16841  0
O  O86  1  0.46530008  0.11380460  0.33051125  1  0  -0.615429  0  1.930207  0  0  -0.56614  0  2.16354  0  0  -0.590886  0  2.155501  0  0  -0.313322  -0.548775  0  2.168326  0
O  O87  1  0.46529181  0.61379998  0.16948707  1  0  -0.615508  0  1.930219  0  0  -0.566168  0  2.163504  0  0  -0.590914  0  2.155468  0  0  -0.313364  -0.548802  0  2.168287  0
O  O88  1  0.64408365  0.71791415  0.96211036  1  0  -0.66295  0  2.087165  0  0  -0.593182  0  2.366852  0  0  -0.623542  0  2.354994  0  0  -0.326741  -0.571748  0  2.374266  0
O  O89  1  0.64408430  0.21791007  0.53789211  1  0  -0.662839  0  2.087117  0  0  -0.593077  0  2.366709  0  0  -0.623436  0  2.354852  0  0  -0.32669  -0.571655  0  2.374152  0
O  O90  1  0.35593243  0.28208343  0.03788948  1  0  -0.662959  0  2.087039  0  0  -0.593203  0  2.36677  0  0  -0.623568  0  2.354923  0  0  -0.326736  -0.571757  0  2.374142  0
O  O91  1  0.35592784  0.78208659  0.46210719  1  0  -0.662786  0  2.087093  0  0  -0.593037  0  2.366739  0  0  -0.623391  0  2.354893  0  0  -0.326646  -0.571597  0  2.374134  0
O  O92  1  0.74944455  0.92467859  0.97747267  1  0  -0.602559  0  2.006368  0  0  -0.54272  0  2.230038  0  0  -0.567027  0  2.219391  0  0  -0.299803  -0.525773  0  2.236923  0
O  O93  1  0.74944580  0.42467835  0.52253010  1  0  -0.60255  0  2.006214  0  0  -0.542743  0  2.229867  0  0  -0.567051  0  2.21922  0  0  -0.299905  -0.525796  0  2.236757  0
O  O94  1  0.25055068  0.07532102  0.02252825  1  0  -0.602568  0  2.006382  0  0  -0.542728  0  2.230047  0  0  -0.567037  0  2.219414  0  0  -0.299845  -0.525789  0  2.236934  0
O  O95  1  0.25055359  0.57532409  0.47747135  1  0  -0.602587  0  2.006169  0  0  -0.542805  0  2.229848  0  0  -0.567104  0  2.219212  0  0  -0.299913  -0.525861  0  2.236736  0
O  O96  1  0.79016311  0.64231283  0.58427407  1  0  -0.857749  0  1.927695  0  0  -0.785036  0  2.162643  0  0  -0.809263  0  2.123164  0  0  -0.578841  -0.767933  0  2.19011  0
O  O97  1  0.79016994  0.14231247  0.91572618  1  0  -0.857863  0  1.927691  0  0  -0.785096  0  2.162696  0  0  -0.809327  0  2.123212  0  0  -0.578877  -0.76799  0  2.190163  0
O  O98  1  0.20983393  0.35768582  0.41572899  1  0  -0.857873  0  1.92768  0  0  -0.785171  0  2.162618  0  0  -0.809399  0  2.123133  0  0  -0.578925  -0.768067  0  2.190086  0
O  O99  1  0.20982452  0.85768047  0.08426830  1  0  -0.857712  0  1.927751  0  0  -0.785015  0  2.162692  0  0  -0.809231  0  2.123193  0  0  -0.578915  -0.767915  0  2.190159  0
