# generated using pymatgen
data_Co3H40C66N4O15
_symmetry_space_group_name_H-M   'P 1'
_cell_length_a   11.03270677
_cell_length_b   11.03270337
_cell_length_c   25.86985051
_cell_angle_alpha   90.74539225
_cell_angle_beta   90.74520366
_cell_angle_gamma   94.83591604
_symmetry_Int_Tables_number   1
_chemical_formula_structural   Co3H40C66N4O15
_chemical_formula_sum   'Co6 H80 C132 N8 O30'
_cell_volume   3137.10402744
_cell_formula_units_Z   2
loop_
 _symmetry_equiv_pos_site_id
 _symmetry_equiv_pos_as_xyz
  1  'x, y, z'
loop_
 _atom_site_type_symbol
 _atom_site_label
 _atom_site_symmetry_multiplicity
 _atom_site_fract_x
 _atom_site_fract_y
 _atom_site_fract_z
 _atom_site_occupancy
 _atom_site_pbe_bader_charge
 _atom_site_pbe_bader_spin_density
 _atom_site_pbe_cm5_charge
 _atom_site_pbe_ddec_charge
 _atom_site_pbe_ddec_spin_density
 _atom_site_pbe_ddec_sum_bond_order
 _atom_site_pbe_magmom
Co  Co0  1  0.34884931  0.70653804  0.99474163  1  1.284835  2.604126  0.683548  0.869895  2.825384  2.577513  2.581
Co  Co1  1  0.29345705  0.65114657  0.50526171  1  1.284743  2.604136  0.6834  0.86968  2.825363  2.577534  2.581
Co  Co2  1  0.65114849  0.29346016  0.00525809  1  1.284748  2.604139  0.683513  0.869815  2.825393  2.577654  2.581
Co  Co3  1  0.70653440  0.34885110  0.49474417  1  1.284834  2.604125  0.683621  0.869985  2.825415  2.577687  2.581
Co  Co4  1  0.50000151  0.99999868  0.99999975  1  1.390242  2.660821  0.67067  1.108448  2.870933  2.291799  2.647
Co  Co5  1  0.99999522  0.49998819  0.49999747  1  1.390333  2.6608  0.670627  1.108404  2.870913  2.291988  2.647
H  H6  1  0.21744473  0.88586870  0.92262520  1  0.121073  0.002066  0.12379  0.100714  0.000428  0.988884  0.001
H  H7  1  0.11412972  0.78255706  0.57737453  1  0.121041  0.002065  0.123779  0.100668  0.000428  0.988903  0.001
H  H8  1  0.78255398  0.11412685  0.07737296  1  0.121004  0.002066  0.123783  0.100668  0.000428  0.988824  0.001
H  H9  1  0.88586809  0.21744387  0.42263023  1  0.121021  0.002066  0.12382  0.100661  0.000428  0.988951  0.001
H  H10  1  0.04052233  0.86314284  0.86025270  1  0.082098  0.000984  0.102144  0.107782  0.000465  1.037957  0.0
H  H11  1  0.13685150  0.95948036  0.63974674  1  0.082047  0.000984  0.10217  0.107805  0.000465  1.037918  0.0
H  H12  1  0.95947911  0.13685386  0.13974433  1  0.082116  0.000984  0.102185  0.107831  0.000465  1.037941  0.0
H  H13  1  0.86314449  0.04052041  0.36025840  1  0.082022  0.000984  0.102196  0.10787  0.000465  1.037903  0.0
H  H14  1  0.91823332  0.66095557  0.85145776  1  0.06754  -0.000342  0.108415  0.107472  -0.000415  0.986053  0.0
H  H15  1  0.33903819  0.08177352  0.64854327  1  0.067429  -0.000342  0.108374  0.107461  -0.000415  0.985937  0.0
H  H16  1  0.08176813  0.33904113  0.14854081  1  0.0676  -0.000341  0.108396  0.107433  -0.000415  0.985914  0.0
H  H17  1  0.66095323  0.91823593  0.35146266  1  0.067718  -0.000341  0.108388  0.10741  -0.000415  0.986083  0.0
H  H18  1  0.88544383  0.44123169  0.88201720  1  0.069407  0.000353  0.105803  0.107721  0.000132  0.997564  0.0
H  H19  1  0.55876648  0.11456206  0.61798373  1  0.069291  0.000353  0.105861  0.107799  0.000132  0.997444  0.0
H  H20  1  0.11455852  0.55876418  0.11798177  1  0.069424  0.000353  0.105829  0.107758  0.000132  0.997482  0.0
H  H21  1  0.44123313  0.88544628  0.38201838  1  0.069459  0.000353  0.105825  0.107782  0.000132  0.997515  0.0
H  H22  1  0.95332047  0.27621465  0.93623175  1  0.118561  0.000329  0.106712  0.115829  5.4e-05  1.019296  0.0
H  H23  1  0.72378373  0.04669178  0.56377059  1  0.118476  0.000329  0.106733  0.115832  5.4e-05  1.019279  0.0
H  H24  1  0.04668006  0.72378469  0.06376915  1  0.11859  0.000329  0.106733  0.115849  5.4e-05  1.019233  0.0
H  H25  1  0.27621130  0.95333157  0.43623195  1  0.118587  0.00033  0.106717  0.115812  5.4e-05  1.019246  0.0
H  H26  1  0.11270943  0.20094227  0.99814614  1  0.080319  -0.00017  0.115229  0.119388  -0.000243  0.96517  0.0
H  H27  1  0.79906680  0.88731138  0.50185412  1  0.080107  -0.00017  0.115221  0.119358  -0.000243  0.965163  0.0
H  H28  1  0.88729839  0.79905680  0.00185557  1  0.080266  -0.00017  0.115206  0.119337  -0.000243  0.965201  0.0
H  H29  1  0.20094370  0.11271331  0.49814929  1  0.080332  -0.00017  0.115191  0.119348  -0.000244  0.965165  0.0
H  H30  1  0.30289077  0.25136717  0.05057410  1  0.105554  0.000966  0.110373  0.119933  0.000289  1.016753  0.001
H  H31  1  0.74865031  0.69711704  0.44942891  1  0.105573  0.000966  0.110348  0.119991  0.000289  1.016715  0.001
H  H32  1  0.69711247  0.74864510  0.94942881  1  0.105637  0.000966  0.110374  0.119936  0.000289  1.016674  0.001
H  H33  1  0.25136293  0.30289972  0.55057408  1  0.105451  0.000966  0.110371  0.119913  0.000289  1.016702  0.001
H  H34  1  0.40076585  0.46438855  0.05145194  1  0.128455  0.00213  0.122735  0.101424  0.000576  1.014677  0.002
H  H35  1  0.53563266  0.59923953  0.44855348  1  0.128516  0.002129  0.122764  0.101413  0.000576  1.014747  0.002
H  H36  1  0.59923011  0.53562399  0.94854978  1  0.128443  0.00213  0.122723  0.101383  0.000576  1.014691  0.002
H  H37  1  0.46438787  0.40077787  0.55145226  1  0.128271  0.00213  0.122779  0.10141  0.000576  1.014578  0.002
H  H38  1  0.00034596  0.47132400  0.36760800  1  0.099707  0.00022  0.107117  0.11497  -2.4e-05  1.019043  0.0
H  H39  1  0.52866816  0.99964290  0.13239244  1  0.099485  0.00022  0.107119  0.114991  -2.4e-05  1.019318  0.0
H  H40  1  0.99965824  0.52866569  0.63239326  1  0.099774  0.00022  0.107104  0.115032  -2.4e-05  1.018983  0.0
H  H41  1  0.47133420  0.00035298  0.86760846  1  0.099532  0.00022  0.107117  0.114978  -2.4e-05  1.019166  0.0
H  H42  1  0.04652782  0.53756219  0.27696175  1  0.079048  5.6e-05  0.106344  0.121751  2e-05  0.986274  0.0
H  H43  1  0.46242889  0.95345592  0.22304022  1  0.079803  5.6e-05  0.106303  0.1217  2e-05  0.986291  0.0
H  H44  1  0.95346365  0.46242368  0.72304136  1  0.079075  5.6e-05  0.106345  0.121738  2e-05  0.986384  0.0
H  H45  1  0.53757074  0.04654063  0.77696028  1  0.078997  5.6e-05  0.106327  0.12172  2e-05  0.986297  0.0
H  H46  1  0.63021449  0.55631158  0.34601826  1  0.075612  0.000542  0.104719  0.107986  0.000262  0.998693  0.0
H  H47  1  0.44369737  0.36977818  0.15398307  1  0.075486  0.000543  0.104648  0.107912  0.000262  0.998691  0.0
H  H48  1  0.36978243  0.44367658  0.65398372  1  0.075323  0.000542  0.104701  0.107996  0.000262  0.998726  0.0
H  H49  1  0.55630499  0.63021950  0.84601706  1  0.075546  0.000543  0.104652  0.107927  0.000262  0.99863  0.0
H  H50  1  0.67643850  0.62739155  0.25672721  1  0.086242  4.4e-05  0.102169  0.116998  9e-06  1.014428  0.0
H  H51  1  0.37260971  0.32355543  0.24327371  1  0.086304  4.4e-05  0.102187  0.116945  9e-06  1.014437  0.0
H  H52  1  0.32355935  0.37258944  0.74327590  1  0.086856  4.4e-05  0.102176  0.117063  9e-06  1.014272  0.0
H  H53  1  0.62739446  0.67644514  0.75672606  1  0.086275  4.4e-05  0.102208  0.117046  9e-06  1.014458  0.0
H  H54  1  0.20541317  0.74025358  0.12923452  1  0.094966  0.000325  0.1049  0.10664  9.8e-05  1.017452  0.0
H  H55  1  0.25974395  0.79458620  0.37076450  1  0.094752  0.000325  0.104905  0.106641  9.8e-05  1.017463  0.0
H  H56  1  0.79458462  0.25974733  0.87076328  1  0.094704  0.000325  0.104913  0.106647  9.8e-05  1.017444  0.0
H  H57  1  0.74024927  0.20542701  0.62923412  1  0.095133  0.000325  0.104909  0.106616  9.9e-05  1.017313  0.0
H  H58  1  0.09444608  0.76015300  0.21218526  1  0.098431  0.000135  0.10506  0.12058  6.8e-05  1.023366  0.0
H  H59  1  0.23984859  0.90555648  0.28781659  1  0.098394  0.000135  0.105037  0.120566  6.8e-05  1.023389  0.0
H  H60  1  0.90554808  0.23985032  0.78781369  1  0.098147  0.000136  0.10502  0.120527  6.8e-05  1.023426  0.0
H  H61  1  0.76014919  0.09445804  0.71218399  1  0.098169  0.000136  0.105043  0.120652  6.8e-05  1.023323  0.0
H  H62  1  0.12232320  0.14862933  0.19528317  1  0.064266  0.00023  0.105918  0.117004  0.00013  0.999765  0.0
H  H63  1  0.85137172  0.87768173  0.30471554  1  0.064325  0.00023  0.105892  0.116957  0.00013  0.999791  0.0
H  H64  1  0.87768004  0.85137569  0.80471468  1  0.064382  0.00023  0.105889  0.116971  0.00013  0.999776  0.0
H  H65  1  0.14862149  0.12232694  0.69527609  1  0.064665  0.00023  0.105882  0.117031  0.00013  0.999854  0.0
H  H66  1  0.22800756  0.12664319  0.11053694  1  0.081602  0.000276  0.101017  0.09677  0.000103  1.031865  0.0
H  H67  1  0.87335572  0.77198794  0.38946163  1  0.081601  0.000276  0.101054  0.096783  0.000103  1.03187  0.0
H  H68  1  0.77199660  0.87335737  0.88946129  1  0.081743  0.000276  0.101049  0.096885  0.000103  1.03182  0.0
H  H69  1  0.12663934  0.22800819  0.61053111  1  0.088413  0.000275  0.101019  0.096781  0.000103  1.031741  0.0
H  H70  1  0.72784500  0.91473681  0.11976191  1  0.064648  0.00035  0.104289  0.106567  0.000152  1.010756  0.0
H  H71  1  0.08526470  0.27215426  0.38023573  1  0.064671  0.00035  0.104307  0.106559  0.000152  1.010822  0.0
H  H72  1  0.27215555  0.08525619  0.88024012  1  0.06447  0.00035  0.104309  0.106608  0.000152  1.01068  0.0
H  H73  1  0.91474128  0.72785009  0.61976368  1  0.064591  0.00035  0.104299  0.106545  0.000152  1.010783  0.0
H  H74  1  0.87274268  0.84912042  0.18763141  1  0.072266  0.000155  0.102347  0.118977  7.3e-05  1.02991  0.0
H  H75  1  0.15088200  0.12725079  0.31236760  1  0.07207  0.000155  0.10237  0.119027  7.3e-05  1.029971  0.0
H  H76  1  0.12725152  0.15086569  0.81237248  1  0.072082  0.000155  0.102333  0.118953  7.3e-05  1.03005  0.0
H  H77  1  0.84912033  0.87275142  0.68762907  1  0.072137  0.000155  0.10236  0.119041  7.3e-05  1.029965  0.0
H  H78  1  0.72946687  0.47704806  0.16398936  1  0.055032  0.000159  0.109287  0.128626  6e-05  0.979594  0.0
H  H79  1  0.52295123  0.27053155  0.33600951  1  0.055035  0.000159  0.109299  0.12862  6e-05  0.979591  0.0
H  H80  1  0.27052186  0.52294029  0.83601027  1  0.054687  0.000159  0.109257  0.128614  6e-05  0.979521  0.0
H  H81  1  0.47704928  0.72947323  0.66398949  1  0.055072  0.000159  0.109259  0.128556  6e-05  0.979531  0.0
H  H82  1  0.58492289  0.54275455  0.09757132  1  0.101814  0.000352  0.105771  0.118349  8.3e-05  1.031267  0.0
H  H83  1  0.45724467  0.41507956  0.40242810  1  0.101833  0.000351  0.105757  0.11831  8.3e-05  1.031299  0.0
H  H84  1  0.41507491  0.45724092  0.90242646  1  0.101938  0.000352  0.105765  0.118367  8.3e-05  1.031143  0.0
H  H85  1  0.54275860  0.58492184  0.59757321  1  0.101894  0.000352  0.10578  0.118359  8.3e-05  1.031234  0.0
C  C86  1  0.16271553  0.79937006  0.91746146  1  0.496721  -0.012626  0.054876  0.105802  -0.013317  3.924679  -0.007
C  C87  1  0.20062601  0.83728975  0.58253864  1  0.497089  -0.012631  0.054885  0.105898  -0.013324  3.924557  -0.007
C  C88  1  0.83728318  0.20062641  0.08253748  1  0.497253  -0.012625  0.054832  0.10577  -0.013317  3.92467  -0.007
C  C89  1  0.79937269  0.16272032  0.41746540  1  0.497372  -0.012629  0.054836  0.105813  -0.013321  3.924791  -0.007
C  C90  1  0.06379727  0.78541340  0.88263182  1  0.021734  0.004733  -0.089601  -0.133515  0.001811  4.003687  0.005
C  C91  1  0.21458492  0.93621129  0.61736683  1  0.021514  0.004733  -0.089624  -0.133585  0.001811  4.003744  0.005
C  C92  1  0.93620599  0.21458346  0.11736483  1  0.020994  0.004732  -0.089643  -0.133559  0.001811  4.00393  0.005
C  C93  1  0.78541560  0.06379803  0.38263645  1  0.021022  0.004733  -0.089616  -0.133569  0.001811  4.004024  0.005
C  C94  1  0.99646679  0.67388271  0.87782717  1  -0.133748  -0.018248  -0.069144  -0.087602  -0.019538  3.947178  -0.011
C  C95  1  0.32611421  0.00354014  0.62217307  1  -0.13388  -0.018255  -0.069074  -0.087498  -0.019544  3.947161  -0.011
C  C96  1  0.00353101  0.32611458  0.12217023  1  -0.13357  -0.018247  -0.069075  -0.087504  -0.019536  3.947112  -0.011
C  C97  1  0.67388903  0.99647395  0.37783024  1  -0.133507  -0.018249  -0.069001  -0.087365  -0.019539  3.947209  -0.011
C  C98  1  0.02912560  0.57557816  0.90789489  1  0.061684  0.003912  -0.001758  0.044798  0.001633  4.030762  0.004
C  C99  1  0.42442098  0.97088741  0.59210483  1  0.061086  0.003912  -0.001853  0.044582  0.001633  4.031015  0.004
C  C100  1  0.97087765  0.42442050  0.09210139  1  0.060891  0.003912  -0.00179  0.04474  0.001633  4.0309  0.004
C  C101  1  0.57557861  0.02913271  0.40789927  1  0.061751  0.003911  -0.001892  0.044628  0.001633  4.030907  0.004
C  C102  1  0.96578874  0.45695902  0.90696690  1  -0.022717  0.000324  -0.084323  -0.120276  7.6e-05  3.983802  0.0
C  C103  1  0.54304080  0.03422018  0.59303246  1  -0.022685  0.000324  -0.084375  -0.120306  7.6e-05  3.983658  0.0
C  C104  1  0.03421543  0.54303882  0.09302976  1  -0.022837  0.000324  -0.084394  -0.120293  7.7e-05  3.98384  0.0
C  C105  1  0.45695787  0.96579713  0.40696891  1  -0.022667  0.000324  -0.084389  -0.120471  7.6e-05  3.983975  0.0
C  C106  1  0.00401058  0.36544061  0.93665197  1  -0.0332  0.001708  -0.078156  -0.107056  0.000714  3.954106  0.001
C  C107  1  0.63456454  0.99599640  0.56334917  1  -0.033324  0.001709  -0.078081  -0.106914  0.000714  3.95412  0.001
C  C108  1  0.99598904  0.63455684  0.06334622  1  -0.032906  0.001708  -0.078135  -0.107016  0.000713  3.954266  0.001
C  C109  1  0.36543779  0.00401851  0.43665453  1  -0.033627  0.001708  -0.078067  -0.106874  0.000714  3.954239  0.001
C  C110  1  0.10969623  0.38481453  0.96942164  1  -0.021842  0.002502  -5.7e-05  0.04368  0.000943  4.013823  0.003
C  C111  1  0.61519591  0.89031666  0.53058065  1  -0.021581  0.0025  -3.1e-05  0.043587  0.000942  4.013907  0.003
C  C112  1  0.89030976  0.61518529  0.03057697  1  -0.021609  0.002502  -1.7e-05  0.043603  0.000943  4.014045  0.003
C  C113  1  0.38481370  0.10969708  0.46942540  1  -0.021561  0.002502  -0.000162  0.043544  0.000943  4.01408  0.003
C  C114  1  0.15719134  0.29310831  0.99927822  1  -0.008222  -0.011337  -0.061288  -0.074069  -0.012251  3.921006  -0.007
C  C115  1  0.70690464  0.84281709  0.50072396  1  -0.008212  -0.01133  -0.06127  -0.07388  -0.012243  3.92061  -0.007
C  C116  1  0.84281465  0.70689333  0.00072349  1  -0.008268  -0.011335  -0.061338  -0.074046  -0.012249  3.920872  -0.007
C  C117  1  0.29311044  0.15719259  0.49928016  1  -0.008378  -0.011337  -0.061206  -0.073976  -0.012251  3.921172  -0.007
C  C118  1  0.26146738  0.32129931  0.02881087  1  -0.02844  0.003294  -0.080699  -0.119165  0.001019  3.957378  0.003
C  C119  1  0.67871338  0.73853817  0.47119025  1  -0.02849  0.003291  -0.080597  -0.11924  0.001018  3.957253  0.003
C  C120  1  0.73853588  0.67870481  0.97119239  1  -0.028447  0.003294  -0.080633  -0.119123  0.001019  3.957244  0.003
C  C121  1  0.32129987  0.26147225  0.52881077  1  -0.029024  0.003294  -0.080669  -0.119128  0.001019  3.957315  0.003
C  C122  1  0.31750690  0.44059320  0.02922165  1  0.508771  -0.007047  0.063573  0.119283  -0.007417  3.897153  -0.004
C  C123  1  0.55942508  0.68249814  0.47078147  1  0.508201  -0.007037  0.063412  0.119268  -0.007407  3.897092  -0.004
C  C124  1  0.68249271  0.55941423  0.97077968  1  0.50873  -0.007046  0.063536  0.11931  -0.007415  3.897119  -0.004
C  C125  1  0.44059272  0.31751449  0.52922152  1  0.509618  -0.007047  0.063452  0.119311  -0.007417  3.897066  -0.004
C  C126  1  0.17279951  0.50200332  0.97184167  1  0.467823  -0.006439  0.118036  0.121495  -0.007984  3.992858  -0.004
C  C127  1  0.49800316  0.82721086  0.52815792  1  0.467357  -0.006438  0.117876  0.121164  -0.007982  3.993047  -0.004
C  C128  1  0.82720375  0.49799534  0.02815538  1  0.467479  -0.006439  0.117927  0.121477  -0.007984  3.993037  -0.004
C  C129  1  0.50200828  0.17279940  0.47184542  1  0.468073  -0.006441  0.117962  0.121449  -0.007987  3.992984  -0.004
C  C130  1  0.13183947  0.59782250  0.94125160  1  0.488589  -0.008636  0.117661  0.119667  -0.010025  3.987482  -0.005
C  C131  1  0.40217844  0.86817365  0.55874729  1  0.489292  -0.008638  0.117634  0.119792  -0.010027  3.987328  -0.005
C  C132  1  0.86816470  0.40217443  0.05874467  1  0.489042  -0.008635  0.117717  0.119638  -0.010023  3.987528  -0.005
C  C133  1  0.59782297  0.13184119  0.44125601  1  0.48839  -0.008634  0.117784  0.119849  -0.010022  3.98776  -0.005
C  C134  1  0.77849433  0.46376588  0.41423996  1  1.526865  0.003426  0.205766  0.565014  0.001611  4.168118  0.002
C  C135  1  0.53623247  0.22149645  0.08575921  1  1.527142  0.003424  0.205901  0.565344  0.001609  4.167468  0.002
C  C136  1  0.22150442  0.53621699  0.58575892  1  1.526914  0.003425  0.205787  0.565273  0.001609  4.167536  0.002
C  C137  1  0.46376533  0.77850175  0.91424013  1  1.526886  0.003426  0.205802  0.565223  0.00161  4.167687  0.002
C  C138  1  0.81210690  0.50945194  0.36239834  1  -0.050427  0.003067  -0.030401  -0.069553  0.001546  4.00919  0.002
C  C139  1  0.49055189  0.18788753  0.13760591  1  -0.050561  0.003067  -0.030309  -0.069539  0.001547  4.009046  0.002
C  C140  1  0.18789458  0.49053480  0.63760328  1  -0.050565  0.003066  -0.030474  -0.069655  0.001546  4.009041  0.002
C  C141  1  0.50944501  0.81211150  0.86239497  1  -0.050593  0.003067  -0.030342  -0.069609  0.001546  4.009216  0.002
C  C142  1  0.92978783  0.50426462  0.34284218  1  0.013305  0.000633  -0.076601  -0.054799  0.000106  3.960175  0.0
C  C143  1  0.49573943  0.07020693  0.15715889  1  0.0134  0.000631  -0.07664  -0.054913  0.000105  3.960386  0.0
C  C144  1  0.07021364  0.49572484  0.65716061  1  0.013616  0.000632  -0.076551  -0.05488  0.000105  3.960026  0.0
C  C145  1  0.50425929  0.92978954  0.84284122  1  0.013379  0.000631  -0.07661  -0.054853  0.000105  3.960294  0.0
C  C146  1  0.95562346  0.54091630  0.29268346  1  -0.030871  0.000279  -0.104482  -0.208674  8e-05  3.993864  0.0
C  C147  1  0.45908227  0.04436972  0.20731874  1  -0.031745  0.000279  -0.104478  -0.208555  8e-05  3.993796  0.0
C  C148  1  0.04437346  0.45907186  0.70732084  1  -0.030905  0.000279  -0.104512  -0.208607  8e-05  3.994213  0.0
C  C149  1  0.54091554  0.95562757  0.79268098  1  -0.031472  0.000279  -0.104432  -0.208487  8e-05  3.993772  0.0
C  C150  1  0.72163288  0.55349771  0.33079404  1  -0.055288  0.001109  -0.084248  -0.066571  0.000531  3.992482  0.001
C  C151  1  0.44651066  0.27836641  0.16920958  1  -0.054912  0.001108  -0.084124  -0.066404  0.00053  3.992294  0.001
C  C152  1  0.27836678  0.44648888  0.66921105  1  -0.054799  0.001108  -0.084205  -0.06658  0.00053  3.992483  0.001
C  C153  1  0.55349169  0.72163581  0.83079135  1  -0.05495  0.001108  -0.084173  -0.066446  0.00053  3.99225  0.001
C  C154  1  0.74684805  0.59255823  0.28090233  1  0.019304  0.000616  -0.11334  -0.228748  0.000242  4.02901  0.0
C  C155  1  0.40744670  0.25314691  0.21909932  1  0.019116  0.000616  -0.113417  -0.228675  0.000242  4.028978  0.0
C  C156  1  0.25315162  0.40742473  0.71910274  1  0.018297  0.000616  -0.113394  -0.22881  0.000242  4.028876  0.0
C  C157  1  0.59255293  0.74685054  0.78090041  1  0.019139  0.000615  -0.113416  -0.228787  0.000242  4.029024  0.0
C  C158  1  0.28115691  0.91267041  0.06364280  1  1.552919  -0.002567  0.213367  0.592102  -0.0035  4.179867  -0.001
C  C159  1  0.08732214  0.71883190  0.43635814  1  1.552798  -0.002568  0.213426  0.592204  -0.003501  4.179687  -0.001
C  C160  1  0.71884454  0.08732901  0.93635734  1  1.55219  -0.002566  0.213426  0.592175  -0.003498  4.179887  -0.001
C  C161  1  0.91266203  0.28115514  0.56363721  1  1.552461  -0.002569  0.213176  0.591756  -0.003501  4.179907  -0.001
C  C162  1  0.21976827  0.93137615  0.11397246  1  -0.034479  0.010509  -0.025723  -0.055698  0.005411  3.985079  0.008
C  C163  1  0.06862420  0.78022552  0.38602628  1  -0.034768  0.01051  -0.025745  -0.055714  0.005411  3.984945  0.008
C  C164  1  0.78023135  0.06862493  0.88602536  1  -0.034629  0.01051  -0.025691  -0.055574  0.005411  3.985076  0.008
C  C165  1  0.93137086  0.21977424  0.61396880  1  -0.034743  0.01051  -0.025774  -0.055879  0.005411  3.985009  0.008
C  C166  1  0.18494425  0.82918498  0.14372119  1  -0.07088  -0.001034  -0.08425  -0.069818  -0.001391  3.991094  -0.001
C  C167  1  0.17081480  0.81505140  0.35627790  1  -0.070498  -0.001034  -0.084225  -0.069734  -0.001391  3.991097  -0.001
C  C168  1  0.81505354  0.17081775  0.85627624  1  -0.070033  -0.001034  -0.084297  -0.069894  -0.00139  3.991159  -0.001
C  C169  1  0.82917934  0.18495554  0.64371837  1  -0.071244  -0.001035  -0.084247  -0.069611  -0.001392  3.990552  -0.001
C  C170  1  0.12498467  0.84010666  0.19012989  1  -0.010493  0.000999  -0.106213  -0.212932  0.00041  4.021278  0.001
C  C171  1  0.15989726  0.87501454  0.30987005  1  -0.010497  0.000999  -0.106168  -0.212984  0.00041  4.021246  0.001
C  C172  1  0.87500947  0.15990029  0.80986831  1  -0.010316  0.000998  -0.106171  -0.212857  0.00041  4.021239  0.001
C  C173  1  0.84009869  0.12499619  0.69012663  1  -0.010248  0.000999  -0.106197  -0.213089  0.000411  4.020997  0.001
C  C174  1  0.09993883  0.95594750  0.20716035  1  0.428756  -0.002395  0.080865  0.253522  -0.002681  4.055021  -0.002
C  C175  1  0.04405601  0.90006662  0.29283895  1  0.428237  -0.002394  0.08073  0.25343  -0.00268  4.055122  -0.002
C  C176  1  0.90005985  0.04405983  0.79283671  1  0.428356  -0.002394  0.08094  0.253603  -0.00268  4.054882  -0.002
C  C177  1  0.95594357  0.09994623  0.70715661  1  0.42823  -0.002396  0.080786  0.25339  -0.002683  4.054911  -0.002
C  C178  1  0.13871495  0.05949522  0.17951089  1  -0.064137  0.001093  -0.103943  -0.20863  0.000466  4.016718  0.001
C  C179  1  0.94050554  0.86128814  0.32048774  1  -0.064319  0.001093  -0.103927  -0.20859  0.000466  4.016666  0.001
C  C180  1  0.86129011  0.94050994  0.82048543  1  -0.064188  0.001092  -0.103957  -0.208521  0.000466  4.016595  0.001
C  C181  1  0.05948951  0.13871434  0.67950465  1  -0.063671  0.001093  -0.103847  -0.208642  0.000466  4.016834  0.001
C  C182  1  0.19774919  0.04683371  0.13270775  1  0.01408  -0.001281  -0.081651  -0.068136  -0.001748  3.996194  -0.001
C  C183  1  0.95316723  0.80225011  0.36729082  1  0.014192  -0.001281  -0.081626  -0.068109  -0.001748  3.996135  -0.001
C  C184  1  0.80225406  0.95317040  0.86728972  1  0.014009  -0.001281  -0.081689  -0.068375  -0.001748  3.996307  -0.001
C  C185  1  0.04682783  0.19774784  0.63270232  1  0.007148  -0.001281  -0.081641  -0.067977  -0.00175  3.995859  -0.001
C  C186  1  0.56205692  0.77167412  0.06316908  1  1.553809  -0.004998  0.214926  0.588788  -0.00617  4.17765  -0.003
C  C187  1  0.22831646  0.43793871  0.43683081  1  1.552666  -0.004999  0.214925  0.588892  -0.006176  4.177291  -0.003
C  C188  1  0.43794544  0.22832266  0.93683027  1  1.552708  -0.004998  0.214831  0.588702  -0.006174  4.177626  -0.003
C  C189  1  0.77167589  0.56205992  0.56316927  1  1.552714  -0.004996  0.214797  0.588647  -0.006173  4.177553  -0.003
C  C190  1  0.64686438  0.73339187  0.10459846  1  -0.006008  0.010338  -0.025103  -0.053126  0.005346  3.97724  0.008
C  C191  1  0.26660541  0.35313348  0.39540179  1  -0.00575  0.010338  -0.025141  -0.053167  0.005346  3.976956  0.008
C  C192  1  0.35313072  0.26659885  0.89540276  1  -0.005901  0.010337  -0.025144  -0.053021  0.005346  3.976906  0.008
C  C193  1  0.73339693  0.64686964  0.60459799  1  -0.005875  0.010337  -0.025185  -0.053233  0.005345  3.977079  0.008
C  C194  1  0.72842457  0.81925434  0.13001360  1  -0.028737  -0.001643  -0.084995  -0.074087  -0.002031  3.980395  -0.001
C  C195  1  0.18074414  0.27157235  0.36998510  1  -0.029262  -0.001644  -0.084954  -0.073957  -0.002033  3.98027  -0.001
C  C196  1  0.27157326  0.18073571  0.86998801  1  -0.029294  -0.001645  -0.084883  -0.074028  -0.002033  3.980312  -0.001
C  C197  1  0.81926092  0.72843463  0.63001316  1  -0.029255  -0.001644  -0.08492  -0.073837  -0.002032  3.980279  -0.001
C  C198  1  0.80926610  0.78316798  0.16754287  1  0.005922  0.001246  -0.10289  -0.197737  0.000537  3.989844  0.001
C  C199  1  0.21683054  0.19073321  0.33245577  1  0.006587  0.001246  -0.102928  -0.197879  0.000538  3.990066  0.001
C  C200  1  0.19073265  0.21681671  0.83245834  1  0.006592  0.001246  -0.103003  -0.197841  0.000537  3.9902  0.001
C  C201  1  0.78317360  0.80927278  0.66754094  1  0.006487  0.001246  -0.102902  -0.19796  0.000538  3.990226  0.001
C  C202  1  0.80932840  0.65994654  0.17904410  1  0.376416  -0.002788  0.080276  0.249947  -0.003083  4.048824  -0.002
C  C203  1  0.34005253  0.19066680  0.32095598  1  0.376638  -0.00279  0.080273  0.249936  -0.003085  4.048944  -0.002
C  C204  1  0.19066581  0.34003504  0.82095629  1  0.37669  -0.00279  0.080276  0.249783  -0.003085  4.049017  -0.002
C  C205  1  0.65995254  0.80933838  0.67904382  1  0.376635  -0.00279  0.080204  0.249886  -0.003085  4.049027  -0.002
C  C206  1  0.72813136  0.57298999  0.15457032  1  0.039174  0.001073  -0.098017  -0.197091  0.00038  3.992322  0.001
C  C207  1  0.42700865  0.27186282  0.34542859  1  0.039187  0.001074  -0.097969  -0.196974  0.00038  3.992257  0.001
C  C208  1  0.27186101  0.42699777  0.84543048  1  0.039653  0.001074  -0.097826  -0.196817  0.00038  3.992199  0.001
C  C209  1  0.57299550  0.72814318  0.65456928  1  0.039282  0.001074  -0.09788  -0.196784  0.000381  3.991984  0.001
C  C210  1  0.64681995  0.61030502  0.11757723  1  -0.056951  -0.001358  -0.083956  -0.075091  -0.001743  3.961841  -0.001
C  C211  1  0.38969612  0.35317836  0.38242295  1  -0.056856  -0.00136  -0.08397  -0.075139  -0.001744  3.961764  -0.001
C  C212  1  0.35317604  0.38968849  0.88242284  1  -0.056911  -0.001359  -0.084036  -0.075293  -0.001743  3.961577  -0.001
C  C213  1  0.61030804  0.64682492  0.61757606  1  -0.056831  -0.001359  -0.083976  -0.075204  -0.001744  3.961572  -0.001
C  C214  1  0.86433402  0.58547782  0.26182058  1  0.384854  -0.000292  0.089462  0.272587  -0.000433  4.048604  0.0
C  C215  1  0.41452339  0.13566053  0.23818290  1  0.384622  -0.000293  0.089342  0.272213  -0.000434  4.0489  0.0
C  C216  1  0.13566292  0.41450581  0.73818293  1  0.384249  -0.000293  0.089436  0.272346  -0.000433  4.048844  0.0
C  C217  1  0.58547714  0.86433790  0.76181684  1  0.385205  -0.000293  0.08935  0.272246  -0.000434  4.048784  0.0
N  N218  1  0.27424478  0.52935534  0.00170181  1  -1.21569  0.06166  -0.321508  -0.274033  0.033233  3.567099  0.052
N  N219  1  0.47065670  0.72576000  0.49829827  1  -1.214698  0.061646  -0.321349  -0.273881  0.033226  3.566732  0.052
N  N220  1  0.72575483  0.47064664  0.99829678  1  -1.215528  0.061656  -0.321421  -0.273988  0.033231  3.567078  0.052
N  N221  1  0.52935928  0.27424975  0.50170392  1  -1.215807  0.061661  -0.321503  -0.274117  0.033236  3.567307  0.052
N  N222  1  0.19651766  0.70768132  0.94577196  1  -1.224917  0.052674  -0.321726  -0.264568  0.027249  3.585843  0.049
N  N223  1  0.29231476  0.80348952  0.55422691  1  -1.224691  0.052664  -0.32165  -0.264534  0.027241  3.585568  0.049
N  N224  1  0.80348197  0.29231341  0.05422660  1  -1.224809  0.052674  -0.321683  -0.264425  0.027249  3.58575  0.049
N  N225  1  0.70768575  0.19651980  0.44577443  1  -1.224932  0.052682  -0.321787  -0.264614  0.027253  3.585831  0.049
O  O226  1  0.85830866  0.43117505  0.44708647  1  -1.161681  0.100951  -0.306887  -0.597023  0.053399  2.459984  0.086
O  O227  1  0.56881706  0.14167998  0.05291335  1  -1.161759  0.100929  -0.306929  -0.597064  0.053392  2.459986  0.086
O  O228  1  0.14168463  0.56880553  0.55291198  1  -1.16142  0.100933  -0.306894  -0.597046  0.053397  2.459599  0.086
O  O229  1  0.43118438  0.85831944  0.94708562  1  -1.161736  0.100927  -0.306952  -0.597107  0.053391  2.460003  0.086
O  O230  1  0.66615328  0.44805887  0.42560869  1  -1.148263  0.08253  -0.302264  -0.535225  0.042484  2.256774  0.069
O  O231  1  0.55193644  0.33384143  0.07438900  1  -1.148295  0.08254  -0.302339  -0.53543  0.042488  2.256432  0.069
O  O232  1  0.33384728  0.55193141  0.57439255  1  -1.148365  0.082519  -0.302218  -0.535273  0.042479  2.256561  0.069
O  O233  1  0.44806137  0.66615859  0.92561189  1  -1.148111  0.082539  -0.302249  -0.535328  0.042489  2.256497  0.069
O  O234  1  0.56880438  0.88379011  0.05173933  1  -1.148732  0.070528  -0.307043  -0.572955  0.037101  2.392597  0.06
O  O235  1  0.11619570  0.43119862  0.44825757  1  -1.148107  0.070542  -0.306997  -0.573046  0.037109  2.39282  0.06
O  O236  1  0.43120162  0.11620517  0.94826120  1  -1.148066  0.070543  -0.30694  -0.572891  0.037102  2.392661  0.06
O  O237  1  0.88379576  0.56878815  0.55174052  1  -1.148214  0.070554  -0.306922  -0.572895  0.037102  2.392594  0.06
O  O238  1  0.48957352  0.68744190  0.04277881  1  -1.156588  0.070142  -0.31516  -0.55307  0.036661  2.397778  0.06
O  O239  1  0.31255419  0.51042199  0.45722458  1  -1.156324  0.070146  -0.315179  -0.55308  0.036663  2.397465  0.06
O  O240  1  0.51042973  0.31256130  0.95722019  1  -1.15657  0.070148  -0.315182  -0.553091  0.036665  2.397712  0.06
O  O241  1  0.68743451  0.48957724  0.54277703  1  -1.156588  0.070159  -0.31519  -0.553066  0.03667  2.397565  0.06
O  O242  1  0.34123088  0.00204624  0.04302108  1  -1.156621  0.057633  -0.310256  -0.56847  0.029798  2.340489  0.05
O  O243  1  0.99794290  0.65875789  0.45697840  1  -1.15663  0.057636  -0.310312  -0.568544  0.029799  2.340248  0.05
O  O244  1  0.65877786  0.99794747  0.95697984  1  -1.156283  0.057633  -0.310247  -0.56849  0.029797  2.340317  0.05
O  O245  1  0.00203673  0.34121332  0.54300679  1  -1.156  0.057625  -0.310089  -0.568272  0.029796  2.340657  0.05
O  O246  1  0.26614380  0.80364013  0.04561244  1  -1.16012  0.092643  -0.319556  -0.565342  0.047874  2.446374  0.078
O  O247  1  0.19634720  0.73384322  0.45439033  1  -1.159859  0.092639  -0.319573  -0.565382  0.047872  2.44668  0.078
O  O248  1  0.73385309  0.19635708  0.95438689  1  -1.159993  0.092633  -0.319639  -0.565443  0.047871  2.446663  0.078
O  O249  1  0.80362332  0.26615354  0.54561504  1  -1.160112  0.092665  -0.319523  -0.565233  0.047887  2.446329  0.078
O  O250  1  0.02825806  0.97175192  0.25000048  1  -1.100784  -0.000875  -0.162142  -0.231975  -0.00076  2.559199  -0.001
O  O251  1  0.97173879  0.02826251  0.74999623  1  -1.100895  -0.000875  -0.1622  -0.232064  -0.00076  2.558877  -0.001
O  O252  1  0.89811810  0.62416116  0.21331266  1  -1.107536  -0.000185  -0.155492  -0.227198  -0.00013  2.572604  0.0
O  O253  1  0.37583642  0.10187727  0.28668772  1  -1.10748  -0.000186  -0.155398  -0.226978  -0.00013  2.572766  0.0
O  O254  1  0.10187338  0.37581837  0.78668810  1  -1.107154  -0.000186  -0.155376  -0.226885  -0.00013  2.572606  0.0
O  O255  1  0.62416865  0.89812609  0.71331169  1  -1.10751  -0.000186  -0.155405  -0.227019  -0.00013  2.572742  0.0
