# generated using pymatgen
data_ZnH6C6(S3N2)2
_symmetry_space_group_name_H-M   'P 1'
_cell_length_a   8.66518695
_cell_length_b   13.33150128
_cell_length_c   13.32308226
_cell_angle_alpha   83.94739014
_cell_angle_beta   71.04637230
_cell_angle_gamma   71.03114595
_symmetry_Int_Tables_number   1
_chemical_formula_structural   ZnH6C6(S3N2)2
_chemical_formula_sum   'Zn4 H24 C24 S24 N16'
_cell_volume   1376.58780871
_cell_formula_units_Z   4
loop_
 _symmetry_equiv_pos_site_id
 _symmetry_equiv_pos_as_xyz
  1  'x, y, z'
loop_
 _atom_site_type_symbol
 _atom_site_label
 _atom_site_symmetry_multiplicity
 _atom_site_fract_x
 _atom_site_fract_y
 _atom_site_fract_z
 _atom_site_occupancy
 _atom_site_hle17_bader_spin_density
 _atom_site_hle17_ddec_charge
 _atom_site_hle17_ddec_spin_density
 _atom_site_hle17_ddec_sum_bond_order
 _atom_site_hle17_magmom
 _atom_site_hse06_10hf_bader_spin_density
 _atom_site_hse06_10hf_ddec_charge
 _atom_site_hse06_10hf_ddec_spin_density
 _atom_site_hse06_10hf_ddec_sum_bond_order
 _atom_site_hse06_10hf_magmom
 _atom_site_hse06_bader_spin_density
 _atom_site_hse06_ddec_charge
 _atom_site_hse06_ddec_spin_density
 _atom_site_hse06_ddec_sum_bond_order
 _atom_site_hse06_magmom
 _atom_site_pbe_bader_spin_density
 _atom_site_pbe_cm5_charge
 _atom_site_pbe_ddec_charge
 _atom_site_pbe_ddec_spin_density
 _atom_site_pbe_ddec_sum_bond_order
 _atom_site_pbe_magmom
Zn  Zn0  1  0.99994512  0.99996870  0.99993848  1  0  0.921986  0  1.85501  0  0  0.701379  0  2.329279  0  0  0.743713  0  2.283677  0  0  0.73046  0.672462  0  2.360561  0
Zn  Zn1  1  0.49994188  0.00001620  0.99994201  1  0  0.610262  0  2.332244  0  0  0.481383  0  2.801345  0  0  0.509277  0  2.774643  0  0  0.410069  0.462326  0  2.819267  0
Zn  Zn2  1  0.25008923  0.49996550  0.50000321  1  0  0.921318  0  1.919291  0  0  0.706538  0  2.401202  0  0  0.746896  0  2.353524  0  0  0.751277  0.679042  0  2.433984  0
Zn  Zn3  1  0.75000587  0.50008751  0.50008689  1  0  0.585241  0  2.384124  0  0  0.455015  0  2.862986  0  0  0.481868  0  2.837498  0  0  0.401896  0.436682  0  2.880143  0
H  H4  1  0.91258628  0.39108697  0.11083717  1  0  0.124955  0  0.948394  0  0  0.144451  0  1.007107  0  0  0.14546  0  1.007349  0  0  0.092077  0.143717  0  1.006957  0
H  H5  1  0.69611991  0.88928765  0.39087499  1  0  0.124488  0  0.9493  0  0  0.144087  0  1.007817  0  0  0.145047  0  1.008127  0  0  0.092118  0.143378  0  1.007638  0
H  H6  1  0.41462042  0.60888199  0.88921919  1  0  0.124524  0  0.948992  0  0  0.143859  0  1.00802  0  0  0.144851  0  1.008255  0  0  0.091858  0.143125  0  1.007908  0
H  H7  1  0.97637175  0.11100107  0.60883598  1  0  0.124289  0  0.948401  0  0  0.143855  0  1.007257  0  0  0.144862  0  1.007467  0  0  0.091796  0.143123  0  1.007121  0
H  H8  1  0.80408168  0.33093549  0.22787712  1  0  0.13359  0  0.959093  0  0  0.150528  0  1.022391  0  0  0.152027  0  1.022122  0  0  0.090245  0.149366  0  1.022739  0
H  H9  1  0.86505430  0.77236395  0.33075154  1  0  0.133795  0  0.957366  0  0  0.150794  0  1.020648  0  0  0.152293  0  1.020346  0  0  0.0904  0.149635  0  1.021017  0
H  H10  1  0.36232439  0.66895651  0.77230323  1  0  0.133567  0  0.958093  0  0  0.150215  0  1.021849  0  0  0.151721  0  1.021553  0  0  0.090039  0.149059  0  1.022226  0
H  H11  1  0.96816102  0.22797804  0.66895368  1  0  0.133063  0  0.959977  0  0  0.150141  0  1.02316  0  0  0.151624  0  1.022902  0  0  0.090166  0.148997  0  1.023501  0
H  H12  1  0.76592880  0.47123165  0.22376221  1  0  0.131383  0  0.950862  0  0  0.149088  0  1.013571  0  0  0.150194  0  1.013913  0  0  0.090429  0.14823  0  1.013415  0
H  H13  1  0.76257241  0.77642893  0.47109023  1  0  0.131445  0  0.9504  0  0  0.149052  0  1.013361  0  0  0.150181  0  1.013646  0  0  0.090629  0.148172  0  1.013254  0
H  H14  1  0.46059937  0.52866959  0.77639096  1  0  0.131307  0  0.950185  0  0  0.149126  0  1.012787  0  0  0.150261  0  1.013067  0  0  0.09035  0.148251  0  1.012678  0
H  H15  1  0.01031793  0.22379253  0.52857479  1  0  0.13167  0  0.950081  0  0  0.149394  0  1.012881  0  0  0.150511  0  1.013205  0  0  0.090514  0.148529  0  1.012748  0
H  H16  1  0.16834296  0.81363790  0.70114614  1  0  0.135282  0  0.942921  0  0  0.151591  0  1.006645  0  0  0.152877  0  1.006813  0  0  0.092133  0.150604  0  1.00664  0
H  H17  1  0.01787835  0.29906690  0.81389786  1  0  0.134882  0  0.943775  0  0  0.151052  0  1.007629  0  0  0.152313  0  1.00783  0  0  0.091714  0.150091  0  1.007594  0
H  H18  1  0.68281413  0.18632990  0.29886884  1  0  0.135729  0  0.942945  0  0  0.152031  0  1.006529  0  0  0.153323  0  1.006685  0  0  0.092256  0.151049  0  1.006531  0
H  H19  1  0.13117977  0.70088254  0.18584682  1  0  0.135177  0  0.942088  0  0  0.151319  0  1.005935  0  0  0.152667  0  1.006031  0  0  0.091902  0.150301  0  1.005965  0
H  H20  1  0.05319023  0.95306511  0.70857033  1  0  0.128524  0  0.988099  0  0  0.145562  0  1.050407  0  0  0.146781  0  1.051203  0  0  0.090994  0.144614  0  1.049948  0
H  H21  1  0.99395444  0.29140933  0.95333551  1  0  0.128931  0  0.987249  0  0  0.145755  0  1.04965  0  0  0.146956  0  1.050468  0  0  0.091301  0.144824  0  1.049182  0
H  H22  1  0.71457531  0.04692445  0.29131932  1  0  0.128854  0  0.987033  0  0  0.145705  0  1.049475  0  0  0.146933  0  1.050252  0  0  0.091063  0.144762  0  1.049031  0
H  H23  1  0.23923876  0.70854069  0.04644082  1  0  0.128722  0  0.98836  0  0  0.145633  0  1.050805  0  0  0.146879  0  1.051579  0  0  0.091094  0.144666  0  1.050376  0
H  H24  1  0.08626580  0.87643245  0.59522333  1  0  0.117343  0  0.973221  0  0  0.130865  0  1.043945  0  0  0.132389  0  1.043458  0  0  0.084357  0.129771  0  1.044286  0
H  H25  1  0.03753420  0.40474193  0.87681153  1  0  0.116763  0  0.973719  0  0  0.130821  0  1.043866  0  0  0.132338  0  1.043386  0  0  0.084482  0.12972  0  1.044219  0
H  H26  1  0.55764110  0.12347917  0.40467968  1  0  0.116861  0  0.973498  0  0  0.130602  0  1.044022  0  0  0.132134  0  1.04351  0  0  0.083894  0.129515  0  1.044372  0
H  H27  1  0.31944292  0.59516922  0.12301662  1  0  0.116912  0  0.973652  0  0  0.130296  0  1.044589  0  0  0.131817  0  1.044122  0  0  0.084  0.129209  0  1.04491  0
C  C28  1  0.69550203  0.16336165  0.95449886  1  0  0.174253  0  3.803166  0  0  0.158444  0  4.103238  0  0  0.174736  0  4.116241  0  0  0.111799  0.147507  0  4.09408  0
C  C29  1  0.14103462  0.04542572  0.16340347  1  0  0.173654  0  3.804711  0  0  0.158262  0  4.103872  0  0  0.174583  0  4.116967  0  0  0.111915  0.147303  0  4.094713  0
C  C30  1  0.81336907  0.83663458  0.04552535  1  0  0.173917  0  3.808615  0  0  0.158447  0  4.108327  0  0  0.174783  0  4.121279  0  0  0.112176  0.147466  0  4.09921  0
C  C31  1  0.34985515  0.95448010  0.83648337  1  0  0.175807  0  3.805401  0  0  0.159867  0  4.105227  0  0  0.176288  0  4.118086  0  0  0.112833  0.148844  0  4.096247  0
C  C32  1  0.67114402  0.30620987  0.06275719  1  0  0.063056  0  3.834766  0  0  0.060999  0  4.142936  0  0  0.071593  0  4.156825  0  0  0.113753  0.053775  0  4.133414  0
C  C33  1  0.02251712  0.93730591  0.30635600  1  0  0.062922  0  3.833737  0  0  0.060445  0  4.142899  0  0  0.071096  0  4.156683  0  0  0.11426  0.0532  0  4.133414  0
C  C34  1  0.04004201  0.69361340  0.93750695  1  0  0.06192  0  3.835043  0  0  0.059428  0  4.143974  0  0  0.070043  0  4.15782  0  0  0.11363  0.052228  0  4.134428  0
C  C35  1  0.26607529  0.06273223  0.69357597  1  0  0.063414  0  3.832986  0  0  0.060843  0  4.142197  0  0  0.071518  0  4.155945  0  0  0.114344  0.053613  0  4.132694  0
C  C36  1  0.79359396  0.40109924  0.17679008  1  0  -0.323507  0  3.639506  0  0  -0.39483  0  3.889018  0  0  -0.395207  0  3.89624  0  0  -0.230187  -0.394384  0  3.884053  0
C  C37  1  0.80511636  0.82339164  0.40098800  1  0  -0.323214  0  3.640146  0  0  -0.394763  0  3.889902  0  0  -0.395202  0  3.897346  0  0  -0.230725  -0.394273  0  3.884778  0
C  C38  1  0.37126100  0.59878858  0.82340274  1  0  -0.323132  0  3.639367  0  0  -0.394442  0  3.889462  0  0  -0.394815  0  3.896654  0  0  -0.229849  -0.393959  0  3.884385  0
C  C39  1  0.02958979  0.17687368  0.59875485  1  0  -0.322778  0  3.640636  0  0  -0.394384  0  3.889792  0  0  -0.394785  0  3.897165  0  0  -0.229973  -0.393936  0  3.88476  0
C  C40  1  0.89322104  0.56165450  0.65957157  1  0  0.175775  0  3.805632  0  0  0.160093  0  4.104177  0  0  0.176202  0  4.116341  0  0  0.111366  0.149274  0  4.095714  0
C  C41  1  0.54535266  0.34060400  0.56179382  1  0  0.174238  0  3.807967  0  0  0.158584  0  4.106295  0  0  0.174706  0  4.118529  0  0  0.111542  0.147753  0  4.097799  0
C  C42  1  0.11410081  0.43835998  0.34051081  1  0  0.174629  0  3.804845  0  0  0.159109  0  4.102902  0  0  0.175199  0  4.11508  0  0  0.11105  0.148296  0  4.094442  0
C  C43  1  0.44740014  0.65949809  0.43851430  1  0  0.175188  0  3.804572  0  0  0.159604  0  4.102788  0  0  0.175723  0  4.11498  0  0  0.111411  0.148773  0  4.094303  0
C  C44  1  0.89716159  0.73331787  0.70213218  1  0  0.060859  0  3.833801  0  0  0.056457  0  4.146516  0  0  0.06671  0  4.160834  0  0  0.106721  0.049497  0  4.136691  0
C  C45  1  0.36964054  0.29786829  0.73338148  1  0  0.061164  0  3.835307  0  0  0.056412  0  4.148941  0  0  0.066728  0  4.163171  0  0  0.107352  0.049422  0  4.139151  0
C  C46  1  0.33235074  0.26673560  0.29777778  1  0  0.061189  0  3.835578  0  0  0.056525  0  4.148808  0  0  0.066838  0  4.163009  0  0  0.107268  0.049521  0  4.139072  0
C  C47  1  0.40087752  0.70210450  0.26676967  1  0  0.061182  0  3.833446  0  0  0.055883  0  4.147875  0  0  0.066166  0  4.162122  0  0  0.106436  0.048899  0  4.138103  0
C  C48  1  0.06406473  0.87586155  0.68096963  1  0  -0.319366  0  3.613713  0  0  -0.389739  0  3.862342  0  0  -0.390102  0  3.869059  0  0  -0.236782  -0.389274  0  3.857706  0
C  C49  1  0.06017249  0.31906451  0.87612192  1  0  -0.317803  0  3.612742  0  0  -0.388309  0  3.861454  0  0  -0.388654  0  3.868198  0  0  -0.236085  -0.387886  0  3.856842  0
C  C50  1  0.62061348  0.12410151  0.31895505  1  0  -0.318995  0  3.612518  0  0  -0.389388  0  3.861259  0  0  -0.389805  0  3.868069  0  0  -0.235848  -0.388925  0  3.856592  0
C  C51  1  0.25575926  0.68084847  0.12370993  1  0  -0.318168  0  3.612633  0  0  -0.388382  0  3.861633  0  0  -0.388777  0  3.868229  0  0  -0.235707  -0.387901  0  3.857058  0
S  S52  1  0.68266283  0.07935320  0.87082400  1  0  -0.374582  0  2.29485  0  0  -0.348545  0  2.686003  0  0  -0.365426  0  2.678847  0  0  -0.19434  -0.336419  0  2.690539  0
S  S53  1  0.23780853  0.12907158  0.07940148  1  0  -0.374136  0  2.294625  0  0  -0.348342  0  2.685694  0  0  -0.365209  0  2.678453  0  0  -0.194386  -0.336197  0  2.690269  0
S  S54  1  0.63292029  0.92066630  0.12912992  1  0  -0.374118  0  2.296083  0  0  -0.347986  0  2.686863  0  0  -0.36495  0  2.67978  0  0  -0.194144  -0.335799  0  2.691377  0
S  S55  1  0.44642590  0.87088519  0.92049456  1  0  -0.374852  0  2.295746  0  0  -0.348662  0  2.686863  0  0  -0.36563  0  2.679715  0  0  -0.194388  -0.336479  0  2.69142  0
S  S56  1  0.56039629  0.29341424  0.97936430  1  0  0.082567  0  2.495549  0  0  0.082929  0  2.813039  0  0  0.0826  0  2.812855  0  0  0.098421  0.082505  0  2.813433  0
S  S57  1  0.14611604  0.02060532  0.29352049  1  0  0.082971  0  2.493711  0  0  0.083337  0  2.811223  0  0  0.08299  0  2.810994  0  0  0.098351  0.082933  0  2.811636  0
S  S58  1  0.83315745  0.70653178  0.02087132  1  0  0.08321  0  2.494739  0  0  0.08357  0  2.812494  0  0  0.083257  0  2.812247  0  0  0.098543  0.083137  0  2.812921  0
S  S59  1  0.46010933  0.97936305  0.70639147  1  0  0.08225  0  2.494149  0  0  0.082684  0  2.812186  0  0  0.082346  0  2.811875  0  0  0.09789  0.082262  0  2.812653  0
S  S60  1  0.61438599  0.42508777  0.12724056  1  0  0.093947  0  2.436673  0  0  0.095927  0  2.775784  0  0  0.089864  0  2.776675  0  0  0.035733  0.100243  0  2.77508  0
S  S61  1  0.95999338  0.87301530  0.42531445  1  0  0.093748  0  2.43822  0  0  0.095885  0  2.777434  0  0  0.089836  0  2.778311  0  0  0.035798  0.100193  0  2.776714  0
S  S62  1  0.16668447  0.57464544  0.87329381  1  0  0.094437  0  2.438917  0  0  0.096681  0  2.77812  0  0  0.09059  0  2.779024  0  0  0.036097  0.101004  0  2.777366  0
S  S63  1  0.25831488  0.12720030  0.57468521  1  0  0.093975  0  2.437366  0  0  0.096109  0  2.776784  0  0  0.089997  0  2.777671  0  0  0.035881  0.100448  0  2.776074  0
S  S64  1  0.85105426  0.44752520  0.64681840  1  0  -0.383513  0  2.19439  0  0  -0.357702  0  2.560584  0  0  -0.373636  0  2.553432  0  0  -0.203156  -0.346307  0  2.565143  0
S  S65  1  0.70163470  0.35332846  0.44761876  1  0  -0.383183  0  2.194696  0  0  -0.357179  0  2.56028  0  0  -0.373123  0  2.553167  0  0  -0.20323  -0.345776  0  2.56482  0
S  S66  1  0.94510780  0.55251026  0.35324659  1  0  -0.383559  0  2.193771  0  0  -0.357788  0  2.559418  0  0  -0.373718  0  2.552308  0  0  -0.203187  -0.346399  0  2.563953  0
S  S67  1  0.50241627  0.64679573  0.55271696  1  0  -0.384217  0  2.193628  0  0  -0.358541  0  2.559859  0  0  -0.374464  0  2.552695  0  0  -0.203575  -0.347165  0  2.564436  0
S  S68  1  0.75143890  0.66204817  0.74946746  1  0  0.086601  0  2.495313  0  0  0.093977  0  2.817313  0  0  0.093907  0  2.816854  0  0  0.094228  0.093328  0  2.817975  0
S  S69  1  0.58670385  0.25067463  0.66216470  1  0  0.088112  0  2.495386  0  0  0.095513  0  2.817518  0  0  0.095437  0  2.817087  0  0  0.095114  0.094871  0  2.818154  0
S  S70  1  0.16253034  0.33801618  0.25054613  1  0  0.086947  0  2.494239  0  0  0.094278  0  2.816285  0  0  0.094184  0  2.815825  0  0  0.094378  0.093653  0  2.816943  0
S  S71  1  0.49906026  0.74946949  0.33820503  1  0  0.087615  0  2.495176  0  0  0.095097  0  2.817768  0  0  0.095019  0  2.817323  0  0  0.095039  0.094462  0  2.818417  0
S  S72  1  0.86066871  0.85604682  0.75258785  1  0  0.066538  0  2.639848  0  0  0.071063  0  3.017633  0  0  0.064558  0  3.020025  0  0  0.016967  0.075546  0  3.016009  0
S  S73  1  0.28340838  0.24729128  0.85606179  1  0  0.065479  0  2.640554  0  0  0.070259  0  3.018274  0  0  0.063693  0  3.02071  0  0  0.016079  0.074774  0  3.016621  0
S  S74  1  0.46904974  0.14404365  0.24721967  1  0  0.065317  0  2.641707  0  0  0.069993  0  3.019515  0  0  0.063466  0  3.021934  0  0  0.016113  0.074492  0  3.017889  0
S  S75  1  0.38706585  0.75257986  0.14396642  1  0  0.065463  0  2.638595  0  0  0.070345  0  3.016526  0  0  0.063836  0  3.018923  0  0  0.016534  0.074818  0  3.014918  0
N  N76  1  0.80914204  0.14014307  0.00754279  1  0  -0.260208  0  3.27975  0  0  -0.182591  0  3.580354  0  0  -0.198896  0  3.592228  0  0  -0.241955  -0.171752  0  3.572228  0
N  N77  1  0.05067217  0.99236934  0.14016595  1  0  -0.260494  0  3.280348  0  0  -0.182734  0  3.580775  0  0  -0.199152  0  3.592735  0  0  -0.241756  -0.171881  0  3.572667  0
N  N78  1  0.95683150  0.85979483  0.99242822  1  0  -0.261391  0  3.284911  0  0  -0.183994  0  3.585285  0  0  -0.200422  0  3.597399  0  0  -0.242565  -0.17308  0  3.577037  0
N  N79  1  0.18319076  0.00752208  0.85971140  1  0  -0.262487  0  3.284224  0  0  -0.184432  0  3.584446  0  0  -0.200897  0  3.596506  0  0  -0.242274  -0.173552  0  3.576258  0
N  N80  1  0.79626330  0.22008829  0.06933612  1  0  -0.205923  0  3.030359  0  0  -0.188611  0  3.306613  0  0  -0.197071  0  3.323827  0  0  -0.223583  -0.182643  0  3.294833  0
N  N81  1  0.98358217  0.93067979  0.22016093  1  0  -0.205229  0  3.028785  0  0  -0.187796  0  3.304938  0  0  -0.196218  0  3.322166  0  0  -0.223918  -0.181842  0  3.293161  0
N  N82  1  0.08563026  0.77976306  0.93077764  1  0  -0.204312  0  3.029068  0  0  -0.186742  0  3.305485  0  0  -0.195215  0  3.322731  0  0  -0.223043  -0.180788  0  3.293676  0
N  N83  1  0.13435417  0.06931182  0.77974747  1  0  -0.204743  0  3.029842  0  0  -0.187398  0  3.306027  0  0  -0.195851  0  3.323281  0  0  -0.223727  -0.181418  0  3.294206  0
N  N84  1  0.03641829  0.68396983  0.62708427  1  0  -0.205696  0  3.039793  0  0  -0.191505  0  3.322132  0  0  -0.200008  0  3.339556  0  0  -0.225512  -0.185482  0  3.310214  0
N  N85  1  0.27971095  0.37290591  0.68401407  1  0  -0.20722  0  3.037832  0  0  -0.193268  0  3.320406  0  0  -0.201749  0  3.337841  0  0  -0.226965  -0.187256  0  3.308469  0
N  N86  1  0.34735747  0.31604188  0.37282072  1  0  -0.20571  0  3.038212  0  0  -0.191717  0  3.320572  0  0  -0.200208  0  3.337956  0  0  -0.225935  -0.185712  0  3.3087  0
N  N87  1  0.33681592  0.62699532  0.31602791  1  0  -0.206387  0  3.03682  0  0  -0.192119  0  3.319193  0  0  -0.200593  0  3.336615  0  0  -0.226741  -0.18613  0  3.307285  0
N  N88  1  0.03324087  0.58737459  0.60428513  1  0  -0.261694  0  3.314041  0  0  -0.184689  0  3.616183  0  0  -0.200053  0  3.626896  0  0  -0.247722  -0.174569  0  3.608977  0
N  N89  1  0.37956002  0.39580314  0.58745894  1  0  -0.260403  0  3.312294  0  0  -0.183014  0  3.613769  0  0  -0.198469  0  3.624615  0  0  -0.247277  -0.172828  0  3.606465  0
N  N90  1  0.22473350  0.41261771  0.39572661  1  0  -0.261011  0  3.31188  0  0  -0.18373  0  3.613741  0  0  -0.199094  0  3.624463  0  0  -0.247363  -0.173572  0  3.606468  0
N  N91  1  0.36278842  0.60417031  0.41270647  1  0  -0.261181  0  3.310836  0  0  -0.183864  0  3.612749  0  0  -0.199291  0  3.623494  0  0  -0.246635  -0.173672  0  3.60549  0
