# generated using pymatgen
data_Zn2H30C39(N3O4)2
_symmetry_space_group_name_H-M   'P 1'
_cell_length_a   11.88232530
_cell_length_b   11.89620701
_cell_length_c   24.17311423
_cell_angle_alpha   89.96501671
_cell_angle_beta   89.83772094
_cell_angle_gamma   89.89663704
_symmetry_Int_Tables_number   1
_chemical_formula_structural   Zn2H30C39(N3O4)2
_chemical_formula_sum   'Zn4 H60 C78 N12 O16'
_cell_volume   3416.96103787
_cell_formula_units_Z   2
loop_
 _symmetry_equiv_pos_site_id
 _symmetry_equiv_pos_as_xyz
  1  'x, y, z'
loop_
 _atom_site_type_symbol
 _atom_site_label
 _atom_site_symmetry_multiplicity
 _atom_site_fract_x
 _atom_site_fract_y
 _atom_site_fract_z
 _atom_site_occupancy
 _atom_site_pbe_bader_charge
 _atom_site_pbe_bader_spin_density
 _atom_site_pbe_cm5_charge
 _atom_site_pbe_ddec_charge
 _atom_site_pbe_ddec_spin_density
 _atom_site_pbe_ddec_sum_bond_order
 _atom_site_pbe_magmom
Zn  Zn0  1  0.61686175  0.50125929  0.50037118  1  1.2866  0  0.663398  0.810646  0  2.447938  0
Zn  Zn1  1  0.38516339  0.50163674  0.49986976  1  1.283015  0  0.662852  0.810739  0  2.44053  0
Zn  Zn2  1  0.00227026  0.88772130  0.00034763  1  1.281664  0  0.664418  0.813213  0  2.438503  0
Zn  Zn3  1  0.00489026  0.11930846  0.00016308  1  1.280593  0  0.6635  0.813797  0  2.428923  0
H  H4  1  0.18107710  0.50555324  0.42523600  1  0.138553  0  0.130052  0.102753  0  0.991596  0
H  H5  1  0.23239255  0.48906184  0.59360315  1  0.114753  0  0.129847  0.114999  0  0.986612  0
H  H6  1  0.82094306  0.50625574  0.57502769  1  0.089947  0  0.130063  0.103226  0  0.992129  0
H  H7  1  0.76977290  0.48695420  0.40674776  1  0.138702  0  0.129578  0.113502  0  0.987011  0
H  H8  1  0.67973705  0.13927244  0.72079076  1  0.04848  0  0.096794  0.106222  0  1.0311  0
H  H9  1  0.32800226  0.86412335  0.72028277  1  0.07199  0  0.096778  0.106519  0  1.031322  0
H  H10  1  0.36576610  0.17712200  0.77944172  1  0.069554  0  0.096417  0.106021  0  1.03407  0
H  H11  1  0.64227412  0.82534017  0.78052849  1  0.091292  0  0.096421  0.107139  0  1.031672  0
H  H12  1  0.33653483  0.22580122  0.61337539  1  0.111487  0  0.097896  0.101892  0  1.00829  0
H  H13  1  0.67313811  0.77467486  0.61416299  1  0.086429  0  0.097672  0.1015  0  1.009021  0
H  H14  1  0.27953906  0.83515495  0.88798245  1  0.08463  0  0.096448  0.098475  0  1.014289  0
H  H15  1  0.72675070  0.16935193  0.88734951  1  0.079481  0  0.096235  0.09833  0  1.012665  0
H  H16  1  0.32969415  0.07926192  0.68671481  1  0.051329  0  0.093354  0.09863  0  1.02173  0
H  H17  1  0.67969716  0.92041279  0.68779826  1  0.049403  0  0.093723  0.099207  0  1.019759  0
H  H18  1  0.42463489  0.82681280  0.81372448  1  0.056651  0  0.094883  0.102061  0  1.015336  0
H  H19  1  0.58217381  0.17600242  0.81330028  1  0.063184  0  0.094826  0.101845  0  1.015739  0
H  H20  1  0.67735321  0.86328543  0.28040693  1  0.077985  0  0.096463  0.106611  0  1.030318  0
H  H21  1  0.32593649  0.13979310  0.27907174  1  0.054053  0  0.096838  0.106366  0  1.03107  0
H  H22  1  0.36434825  0.82720226  0.21934279  1  0.070022  0  0.096482  0.106326  0  1.031734  0
H  H23  1  0.64135127  0.17760231  0.22028588  1  0.069634  0  0.096123  0.1065  0  1.032288  0
H  H24  1  0.33021391  0.77635892  0.38525977  1  0.077292  0  0.09797  0.101681  0  1.009114  0
H  H25  1  0.66714346  0.22633706  0.38760483  1  0.07603  0  0.097835  0.10192  0  1.008716  0
H  H26  1  0.28161907  0.17219855  0.11250311  1  0.09154  0  0.09696  0.100205  0  1.011505  0
H  H27  1  0.72682537  0.83376637  0.11298263  1  0.086936  0  0.096774  0.099488  0  1.011939  0
H  H28  1  0.32588451  0.92344141  0.31215122  1  0.055395  0  0.093833  0.099544  0  1.019864  0
H  H29  1  0.67608605  0.08096329  0.31379261  1  0.047721  0  0.093127  0.09814  0  1.020887  0
H  H30  1  0.42607229  0.17751247  0.18670921  1  0.039058  0  0.095109  0.102565  0  1.015098  0
H  H31  1  0.58198126  0.82713406  0.18739719  1  0.065455  0  0.095206  0.10261  0  1.016072  0
H  H32  1  0.15843733  0.32480530  0.99958041  1  0.121385  0  0.130469  0.104021  0  0.989516  0
H  H33  1  0.81575005  0.27097791  0.99976079  1  0.138441  0  0.13009  0.118137  0  0.980646  0
H  H34  1  0.85056343  0.68238078  0.00054279  1  0.116903  0  0.130223  0.103992  0  0.989251  0
H  H35  1  0.19313512  0.73670378  0.99952475  1  0.125053  0  0.130343  0.118538  0  0.980654  0
H  H36  1  0.94726914  0.42025364  0.34625007  1  0.067314  0  0.106706  0.148287  0  0.971861  0
H  H37  1  0.07402134  0.49235126  0.36140442  1  0.048597  0  0.099283  0.135678  0  1.012565  0
H  H38  1  0.94975015  0.56844218  0.34551452  1  0.051307  0  0.104601  0.146843  0  0.978609  0
H  H39  1  0.05456483  0.42228689  0.65432334  1  0.056393  0  0.106811  0.147764  0  0.972073  0
H  H40  1  0.92781428  0.49451690  0.63879005  1  0.073491  0  0.099073  0.135357  0  1.012329  0
H  H41  1  0.05188529  0.57052430  0.65458341  1  0.049908  0  0.104358  0.146331  0  0.978935  0
H  H42  1  0.31750761  0.55836265  0.96279620  1  0.077183  0  0.106816  0.148415  0  0.971576  0
H  H43  1  0.28773980  0.43395407  0.00035537  1  0.012953  0  0.100885  0.137152  0  1.008265  0
H  H44  1  0.31768481  0.56096477  0.03583795  1  0.074285  0  0.10624  0.148167  0  0.976187  0
H  H45  1  0.69116634  0.44919541  0.96436194  1  0.049146  0  0.106928  0.148931  0  0.971958  0
H  H46  1  0.72158447  0.57382626  0.00145081  1  0.050191  0  0.100973  0.137634  0  1.008629  0
H  H47  1  0.69199620  0.44708177  0.03741037  1  0.065394  0  0.105936  0.147986  0  0.976469  0
H  H48  1  0.29422612  0.67234610  0.60736497  1  0.506384  0  0.286495  0.290648  0  1.03256  0
H  H49  1  0.22776568  0.75539909  0.65709934  1  0.44152  0  0.299947  0.291061  0  0.955239  0
H  H50  1  0.85786233  0.79744753  0.88358301  1  0.497652  0  0.290851  0.304051  0  1.008788  0
H  H51  1  0.78725266  0.73436389  0.82794040  1  0.431171  0  0.303292  0.297108  0  0.952493  0
H  H52  1  0.71328796  0.33635336  0.60963939  1  0.495126  0  0.286045  0.291914  0  1.03194  0
H  H53  1  0.78025461  0.25328365  0.65949908  1  0.430379  0  0.300579  0.293117  0  0.953595  0
H  H54  1  0.14926140  0.20737518  0.88255925  1  0.488874  0  0.291594  0.304777  0  1.009589  0
H  H55  1  0.22032580  0.26922975  0.82644548  1  0.417295  0  0.303011  0.297285  0  0.952047  0
H  H56  1  0.28938709  0.33460950  0.39096152  1  0.49191  0  0.286437  0.292434  0  1.030577  0
H  H57  1  0.22359963  0.25190745  0.34074971  1  0.42188  0  0.30065  0.292594  0  0.954742  0
H  H58  1  0.85765909  0.20534578  0.11697964  1  0.498728  0  0.291305  0.306871  0  1.002443  0
H  H59  1  0.78682250  0.26822181  0.17269596  1  0.43513  0  0.302889  0.296625  0  0.950284  0
H  H60  1  0.70826612  0.66908363  0.39252408  1  0.47029  0  0.285772  0.28923  0  1.0346  0
H  H61  1  0.77577416  0.75221533  0.34321882  1  0.430332  0  0.29965  0.290691  0  0.955604  0
H  H62  1  0.14803349  0.80150895  0.11670609  1  0.50051  0  0.291222  0.306548  0  1.002942  0
H  H63  1  0.21866492  0.73790644  0.17208523  1  0.415897  0  0.302987  0.296947  0  0.950593  0
C  C64  1  0.50050924  0.65413752  0.42080269  1  1.528975  0  0.211761  0.608586  0  4.147406  0
C  C65  1  0.49439009  0.34741307  0.42172124  1  1.510073  0  0.210944  0.606233  0  4.146445  0
C  C66  1  0.50797821  0.34854875  0.57929976  1  1.49232  0  0.211042  0.606175  0  4.142726  0
C  C67  1  0.50162277  0.65538592  0.57862393  1  1.526316  0  0.211559  0.608811  0  4.145988  0
C  C68  1  0.15766200  0.00313533  0.07794559  1  1.515561  0  0.208808  0.604307  0  4.153633  0
C  C69  1  0.15824740  0.00738499  0.92247761  1  1.530977  0  0.209864  0.605683  0  4.153655  0
C  C70  1  0.84928162  0.99826563  0.92231617  1  1.510255  0  0.209887  0.605901  0  4.151523  0
C  C71  1  0.84881187  0.00405807  0.07792653  1  1.526295  0  0.210005  0.606339  0  4.149848  0
C  C72  1  0.14151715  0.50133286  0.46591019  1  0.50722  0  0.072287  0.064011  0  3.874809  0
C  C73  1  0.16913893  0.49436242  0.56107161  1  0.41443  0  0.045983  0.00903  0  3.879985  0
C  C74  1  0.05541330  0.49700151  0.57338600  1  0.074223  0  0.011238  0.105046  0  3.947218  0
C  C75  1  0.97910285  0.49964265  0.52788370  1  -0.058103  0  0.009644  -0.00477  0  3.972258  0
C  C76  1  0.86055270  0.50146905  0.53438038  1  0.581258  0  0.072087  0.062247  0  3.878046  0
C  C77  1  0.83297335  0.49296144  0.43926180  1  0.41941  0  0.046755  0.010769  0  3.877177  0
C  C78  1  0.94667278  0.49577955  0.42693025  1  0.035882  0  0.011836  0.108166  0  3.944279  0
C  C79  1  0.02297334  0.49932105  0.47240847  1  0.046887  0  0.009107  -0.00801  0  3.972899  0
C  C80  1  0.50411687  0.00096611  0.75028075  1  0.031561  0  0.016694  -0.001697  0  3.76655  0
C  C81  1  0.40369146  0.00200342  0.79064397  1  -0.013353  0  -0.000845  0.10512  0  3.949089  0
C  C82  1  0.60388229  0.00063500  0.79081070  1  -0.008755  0  -0.001332  0.105185  0  3.94443  0
C  C83  1  0.50382582  0.90074519  0.71010324  1  0.029748  0  -0.000196  0.105784  0  3.94537  0
C  C84  1  0.50470828  0.10084812  0.70980291  1  -0.076229  0  -0.00079  0.105062  0  3.946151  0
C  C85  1  0.60331257  0.15804653  0.69762870  1  0.013188  0  -0.112484  -0.268578  0  3.957118  0
C  C86  1  0.40487011  0.84476182  0.69737773  1  -0.0659  0  -0.111869  -0.268717  0  3.95786  0
C  C87  1  0.34662412  0.10083359  0.80268016  1  -0.038526  0  -0.113805  -0.273091  0  3.963919  0
C  C88  1  0.66097793  0.90211852  0.80338201  1  -0.096564  0  -0.113606  -0.274744  0  3.960562  0
C  C89  1  0.60931416  0.23980882  0.65541710  1  0.43219  0  0.103783  0.313777  0  4.059721  0
C  C90  1  0.39892097  0.76413984  0.65471225  1  0.370765  0  0.103036  0.313326  0  4.055046  0
C  C91  1  0.26575253  0.10776950  0.84547983  1  0.423745  0  0.10425  0.314646  0  4.069995  0
C  C92  1  0.74140249  0.89604331  0.84622803  1  0.4262  0  0.104069  0.314822  0  4.067975  0
C  C93  1  0.51023838  0.26537738  0.62497098  1  -0.007991  0  -0.040338  -0.172305  0  3.941759  0
C  C94  1  0.49857468  0.73763885  0.62467400  1  -0.020741  0  -0.039468  -0.171236  0  3.943171  0
C  C95  1  0.24138513  0.00925903  0.87673562  1  -0.005396  0  -0.041114  -0.174895  0  3.944583  0
C  C96  1  0.76565907  0.99517760  0.87692028  1  -0.005617  0  -0.041762  -0.176078  0  3.941631  0
C  C97  1  0.41090773  0.20665781  0.63796236  1  -0.085477  0  -0.093781  -0.074293  0  4.048932  0
C  C98  1  0.59828522  0.79462562  0.63842053  1  -0.009479  0  -0.092868  -0.072655  0  4.045466  0
C  C99  1  0.29930177  0.90952368  0.86347955  1  -0.036679  0  -0.093271  -0.071221  0  4.04806  0
C  C100  1  0.70736523  0.09444749  0.86327182  1  -0.017213  0  -0.093016  -0.070375  0  4.045016  0
C  C101  1  0.40708288  0.12565333  0.67898084  1  -0.013854  0  -0.116416  -0.183624  0  4.050578  0
C  C102  1  0.60197809  0.87505256  0.67965251  1  -0.065779  0  -0.116252  -0.183315  0  4.048394  0
C  C103  1  0.37911912  0.90467799  0.82179662  1  -0.087897  0  -0.116966  -0.184422  0  4.044928  0
C  C104  1  0.62784923  0.09838990  0.82162792  1  -0.062323  0  -0.117211  -0.184797  0  4.042695  0
C  C105  1  0.50252478  0.00216243  0.24999865  1  0.051918  0  0.015447  -0.000305  0  3.763352  0
C  C106  1  0.40331307  0.00232362  0.20915546  1  -0.041693  0  -0.000246  0.105453  0  3.946166  0
C  C107  1  0.60326809  0.00242146  0.20984140  1  -0.07205  0  -0.000808  0.104713  0  3.947595  0
C  C108  1  0.50113462  0.10201753  0.29040157  1  -0.028045  0  -9.8e-05  0.104137  0  3.947015  0
C  C109  1  0.50180143  0.90190607  0.29022624  1  0.031576  0  0.000134  0.105626  0  3.94482  0
C  C110  1  0.60005148  0.84452785  0.30304790  1  -0.105609  0  -0.112025  -0.268762  0  3.958049  0
C  C111  1  0.40193148  0.15864210  0.30249360  1  -0.037384  0  -0.112164  -0.268276  0  3.958846  0
C  C112  1  0.34599308  0.90418420  0.19648165  1  -0.001232  0  -0.113799  -0.273077  0  3.960391  0
C  C113  1  0.66036916  0.10087956  0.19733085  1  -0.039478  0  -0.113481  -0.273634  0  3.961981  0
C  C114  1  0.60474757  0.76298578  0.34537588  1  0.385872  0  0.102264  0.311736  0  4.055798  0
C  C115  1  0.39465307  0.23956316  0.34499502  1  0.400612  0  0.103255  0.31256  0  4.063949  0
C  C116  1  0.26557124  0.89894569  0.15362795  1  0.384962  0  0.103139  0.312261  0  4.067408  0
C  C117  1  0.74092061  0.10684516  0.15433871  1  0.392117  0  0.103118  0.313245  0  4.065935  0
C  C118  1  0.50452853  0.73717396  0.37505104  1  0.023057  0  -0.039783  -0.171454  0  3.942648  0
C  C119  1  0.49319078  0.26503546  0.37575582  1  0.035899  0  -0.039945  -0.171558  0  3.943824  0
C  C120  1  0.24171590  0.99853745  0.12308751  1  0.029565  0  -0.040623  -0.174108  0  3.946208  0
C  C121  1  0.76529536  0.00768572  0.12356526  1  0.019768  0  -0.041108  -0.176622  0  3.945874  0
C  C122  1  0.40552275  0.79576214  0.36128396  1  -0.065146  0  -0.092641  -0.071925  0  4.047572  0
C  C123  1  0.59322489  0.20718489  0.36275419  1  -0.092472  0  -0.093027  -0.073408  0  4.046634  0
C  C124  1  0.30056857  0.09719440  0.13667791  1  -0.112768  0  -0.093125  -0.071379  0  4.050516  0
C  C125  1  0.70727063  0.90846134  0.13727153  1  -0.096062  0  -0.092481  -0.068304  0  4.047719  0
C  C126  1  0.40310246  0.87699150  0.32034749  1  -0.032283  0  -0.116329  -0.183782  0  4.050188  0
C  C127  1  0.59823977  0.12688380  0.32147270  1  0.013519  0  -0.11736  -0.184134  0  4.050932  0
C  C128  1  0.38002920  0.10033494  0.17833007  1  -0.011573  0  -0.116928  -0.184318  0  4.046986  0
C  C129  1  0.62765628  0.90461523  0.17904601  1  0.030477  0  -0.117035  -0.185204  0  4.047568  0
C  C130  1  0.07529285  0.36365893  0.99966415  1  0.524467  0  0.070227  0.062625  0  3.876466  0
C  C131  1  0.88165610  0.33470737  0.99998312  1  0.451133  0  0.045316  0.008663  0  3.883824  0
C  C132  1  0.85612587  0.44817819  0.00031906  1  0.003519  0  0.011675  0.108501  0  3.94764  0
C  C133  1  0.94804367  0.52527410  0.00013769  1  -0.003287  0  0.007256  -0.008411  0  3.972791  0
C  C134  1  0.93376771  0.64365819  0.00026616  1  0.499127  0  0.070503  0.06072  0  3.877163  0
C  C135  1  0.12731427  0.67287876  0.99984553  1  0.439721  0  0.04599  0.008351  0  3.883254  0
C  C136  1  0.15300800  0.55939877  0.99978109  1  0.056861  0  0.011048  0.108068  0  3.946966  0
C  C137  1  0.06118248  0.48212711  0.99982551  1  0.04647  0  0.007802  -0.010054  0  3.971479  0
C  C138  1  0.98266750  0.49410106  0.36720960  1  -0.054312  0  -0.226322  -0.412805  0  3.955155  0
C  C139  1  0.01919555  0.49600770  0.63308980  1  -0.069877  0  -0.225571  -0.41  0  3.954937  0
C  C140  1  0.27484372  0.52498379  0.99971050  1  -0.060062  0  -0.22596  -0.414101  0  3.959588  0
C  C141  1  0.73436134  0.48278510  0.00093846  1  -0.039705  0  -0.226025  -0.415401  0  3.960466  0
N  N142  1  0.21082250  0.49854022  0.50867893  1  -1.245609  0  -0.308532  -0.169131  0  3.545863  0
N  N143  1  0.79124502  0.49785796  0.49163045  1  -1.230037  0  -0.309121  -0.169713  0  3.54707  0
N  N144  1  0.98857806  0.29371516  0.99970344  1  -1.254472  0  -0.31026  -0.177178  0  3.549934  0
N  N145  1  0.02033612  0.71369435  0.00007723  1  -1.243185  0  -0.311378  -0.175469  0  3.551414  0
N  N146  1  0.29712242  0.71281446  0.64450372  1  -1.30297  0  -0.608931  -0.635587  0  3.346622  0
N  N147  1  0.79042716  0.79407515  0.85765968  1  -1.270318  0  -0.604867  -0.63384  0  3.350398  0
N  N148  1  0.71020826  0.29338497  0.64613867  1  -1.263413  0  -0.60764  -0.633947  0  3.347611  0
N  N149  1  0.21660343  0.20991167  0.85637801  1  -1.256444  0  -0.605049  -0.634521  0  3.353669  0
N  N150  1  0.29315130  0.29230177  0.35431438  1  -1.26242  0  -0.607213  -0.632646  0  3.349189  0
N  N151  1  0.78968432  0.20891856  0.14273577  1  -1.284996  0  -0.604171  -0.636569  0  3.34312  0
N  N152  1  0.70600348  0.71018524  0.35552139  1  -1.24884  0  -0.608004  -0.634072  0  3.348586  0
N  N153  1  0.21631885  0.79717108  0.14205841  1  -1.261882  0  -0.604258  -0.636177  0  3.343454  0
O  O154  1  0.59443715  0.60950541  0.43599177  1  -1.178736  0  -0.319402  -0.556921  0  2.38232  0
O  O155  1  0.40582316  0.63113338  0.44293454  1  -1.170914  0  -0.325706  -0.555417  0  2.299954  0
O  O156  1  0.39957095  0.39157301  0.43634201  1  -1.171995  0  -0.320307  -0.551294  0  2.364318  0
O  O157  1  0.58796296  0.37050474  0.44458099  1  -1.174142  0  -0.322829  -0.559203  0  2.321311  0
O  O158  1  0.41411145  0.37198304  0.55671662  1  -1.171318  0  -0.322765  -0.559048  0  2.315487  0
O  O159  1  0.60250088  0.39295331  0.56460334  1  -1.165514  0  -0.320249  -0.551118  0  2.367667  0
O  O160  1  0.59606035  0.63205572  0.55624531  1  -1.169435  0  -0.325633  -0.555216  0  2.302772  0
O  O161  1  0.40741874  0.61162833  0.56349611  1  -1.173934  0  -0.319152  -0.557517  0  2.37997  0
O  O162  1  0.10380576  0.91181514  0.06696811  1  -1.165344  0  -0.319519  -0.558783  0  2.37717  0
O  O163  1  0.14185666  0.09577079  0.05251047  1  -1.170754  0  -0.327186  -0.55808  0  2.297826  0
O  O164  1  0.10557586  0.09987171  0.93336978  1  -1.170092  0  -0.321026  -0.553295  0  2.366206  0
O  O165  1  0.14197219  0.91591423  0.94869235  1  -1.175062  0  -0.323141  -0.563734  0  2.324819  0
O  O166  1  0.86563407  0.09025442  0.94799185  1  -1.171025  0  -0.323728  -0.564777  0  2.315916  0
O  O167  1  0.90233984  0.90611081  0.93337595  1  -1.169558  0  -0.321199  -0.553644  0  2.364406  0
O  O168  1  0.86483516  0.91157066  0.05241194  1  -1.175215  0  -0.32717  -0.557973  0  2.300193  0
O  O169  1  0.90184125  0.09580337  0.06656059  1  -1.171457  0  -0.319441  -0.558777  0  2.37462  0
