# generated using pymatgen
data_Zn4H10C32O13F4
_symmetry_space_group_name_H-M   'P 1'
_cell_length_a   16.10045307
_cell_length_b   16.10575171
_cell_length_c   19.63139000
_cell_angle_alpha   84.28987275
_cell_angle_beta   88.90447305
_cell_angle_gamma   83.60030472
_symmetry_Int_Tables_number   1
_chemical_formula_structural   Zn4H10C32O13F4
_chemical_formula_sum   'Zn4 H10 C32 O13 F4'
_cell_volume   5033.62349906
_cell_formula_units_Z   1
loop_
 _symmetry_equiv_pos_site_id
 _symmetry_equiv_pos_as_xyz
  1  'x, y, z'
loop_
 _atom_site_type_symbol
 _atom_site_label
 _atom_site_symmetry_multiplicity
 _atom_site_fract_x
 _atom_site_fract_y
 _atom_site_fract_z
 _atom_site_occupancy
 _atom_site_pbe_bader_charge
 _atom_site_pbe_bader_spin_density
 _atom_site_pbe_cm5_charge
 _atom_site_pbe_ddec_charge
 _atom_site_pbe_ddec_spin_density
 _atom_site_pbe_ddec_sum_bond_order
 _atom_site_pbe_magmom
Zn  Zn0  1  0.43091817  0.57235325  0.55889009  1  1.317743  0  0.67613  0.966211  0  2.369815  0
Zn  Zn1  1  0.56521253  0.57024136  0.43501529  1  1.322335  0  0.679481  0.973909  0  2.348749  0
Zn  Zn2  1  0.43063504  0.43758241  0.44815347  1  1.31352  0  0.67671  0.969321  0  2.360518  0
Zn  Zn3  1  0.57793997  0.42253408  0.56013000  1  1.314937  0  0.67676  0.967973  0  2.357318  0
H  H4  1  0.41363596  0.58645469  0.76692756  1  0.087926  0  0.111226  0.117019  0  0.989291  0
H  H5  1  0.40912951  0.57609130  0.89396576  1  0.067955  0  0.104126  0.103684  0  0.998663  0
H  H6  1  0.50696649  0.65286036  0.09791421  1  0.088762  0  0.115065  0.143306  0  0.978634  0
H  H7  1  0.43176864  0.01854278  0.44275278  1  0.135074  0  0.136227  0.163636  0  0.943319  0
H  H8  1  0.47251892  0.59147720  0.99341060  1  0.067592  0  0.105717  0.106176  0  0.992962  0
H  H9  1  0.45755512  0.39198582  0.11116544  1  0.102853  0  0.114481  0.141789  0  0.98606  0
H  H10  1  0.60011895  0.37305576  0.77363671  1  0.10057  0  0.110724  0.116078  0  0.987669  0
H  H11  1  0.52445501  0.40088312  0.00725772  1  0.066997  0  0.105149  0.10395  0  0.994355  0
H  H12  1  0.01347206  0.43397334  0.44838483  1  0.135943  0  0.135569  0.164018  0  0.941926  0
H  H13  1  0.59557441  0.36122739  0.90112573  1  0.08402  0  0.104714  0.104978  0  0.990703  0
C  C14  1  0.72568411  0.48806304  0.49128586  1  1.67325  0  0.237394  0.680052  0  4.237733  0
C  C15  1  0.50402291  0.46295065  0.98139900  1  -0.062517  0  -0.081635  -0.120362  0  3.981403  0
C  C16  1  0.48503337  0.52814022  0.01944889  1  0.049278  0  -0.086756  -0.132444  0  3.970671  0
C  C17  1  0.27682743  0.51219385  0.51275003  1  1.711953  0  0.232644  0.662891  0  4.253782  0
C  C18  1  0.48681638  0.51437630  0.23980784  1  0.035965  0  -0.033471  -0.265795  0  3.952409  0
C  C19  1  0.81563813  0.48246951  0.48710833  1  0.228534  0  -0.024935  -0.177332  0  3.891963  0
C  C20  1  0.97885484  0.47578965  0.48202422  1  0.214322  0  -0.071141  -0.193229  0  4.052027  0
C  C21  1  0.02402136  0.52151981  0.51913177  1  0.481459  0  0.117614  0.305668  0  4.144224  0
C  C22  1  0.11116985  0.51925423  0.51772530  1  -0.20282  0  -0.026223  -0.100051  0  4.105796  0
C  C23  1  0.89168381  0.47953719  0.48484829  1  -0.466188  0  -0.009924  0.061907  0  4.128029  0
C  C24  1  0.18713603  0.51687200  0.51640836  1  0.047149  0  -0.014074  -0.108976  0  3.911875  0
C  C25  1  0.50389276  0.46929554  0.90677287  1  -0.084606  0  -0.004815  0.117986  0  4.041566  0
C  C26  1  0.48219568  0.81679235  0.48245959  1  0.257632  0  -0.022417  -0.175111  0  3.889721  0
C  C27  1  0.47532135  0.98038612  0.47818768  1  0.184677  0  -0.072285  -0.193944  0  4.057182  0
C  C28  1  0.52267186  0.02186304  0.51707530  1  0.522666  0  0.117217  0.305182  0  4.145759  0
C  C29  1  0.48708358  0.72647081  0.48679367  1  1.712881  0  0.238498  0.681623  0  4.231914  0
C  C30  1  0.52011454  0.10923584  0.51488028  1  -0.121851  0  -0.023154  -0.096647  0  4.105782  0
C  C31  1  0.47940800  0.89297131  0.48089838  1  -0.483976  0  -0.011511  0.061241  0  4.129006  0
C  C32  1  0.51753796  0.18542288  0.51248485  1  -0.029065  0  -0.016414  -0.11243  0  3.912457  0
C  C33  1  0.51317998  0.27545619  0.50898224  1  1.641494  0  0.233539  0.665518  0  4.249625  0
C  C34  1  0.48997360  0.50998552  0.31599692  1  1.620074  0  0.232521  0.650285  0  4.159786  0
C  C35  1  0.50916071  0.48792880  0.68633412  1  1.553039  0  0.228631  0.604664  0  4.167078  0
C  C36  1  0.55601255  0.41108791  0.87171656  1  -0.080257  0  -0.086366  -0.135421  0  3.966751  0
C  C37  1  0.50795578  0.48118819  0.76254539  1  -0.050294  0  -0.019578  -0.046089  0  3.979607  0
C  C38  1  0.45422520  0.53829306  0.79690991  1  0.010672  0  -0.078633  -0.080765  0  3.980194  0
C  C39  1  0.45245060  0.53254602  0.86787950  1  -0.070591  0  -0.087213  -0.132622  0  3.967005  0
C  C40  1  0.55888151  0.41739777  0.80059076  1  0.046065  0  -0.078258  -0.079549  0  3.976239  0
C  C41  1  0.47071508  0.44775687  0.13430606  1  0.099327  0  -0.106222  -0.288221  0  3.962818  0
C  C42  1  0.47153838  0.44547166  0.20493466  1  0.378555  0  0.111083  0.310633  0  4.058716  0
C  C43  1  0.49951539  0.58787096  0.19786753  1  0.4523  0  0.11146  0.312995  0  4.060275  0
C  C44  1  0.49721686  0.59350704  0.12706026  1  0.105162  0  -0.104732  -0.28877  0  3.962432  0
C  C45  1  0.48424733  0.52242127  0.09405824  1  -0.083506  0  -0.000152  0.177987  0  4.058203  0
O  O46  1  0.50145383  0.50038953  0.50034270  1  -1.235646  0  -0.569992  -1.037814  0  2.522726  0
O  O47  1  0.54720539  0.54638622  0.34076271  1  -1.152854  0  -0.312711  -0.543771  0  2.329624  0
O  O48  1  0.56173222  0.43674716  0.65740520  1  -1.164682  0  -0.315324  -0.545557  0  2.33168  0
O  O49  1  0.43571575  0.47017728  0.34937073  1  -1.156463  0  -0.312305  -0.540168  0  2.324687  0
O  O50  1  0.45722786  0.54463806  0.65565762  1  -1.173586  0  -0.315872  -0.548888  0  2.349543  0
O  O51  1  0.44450497  0.69190660  0.53480509  1  -1.145461  0  -0.303478  -0.530335  0  2.273156  0
O  O52  1  0.56115773  0.30502075  0.54913588  1  -1.137789  0  -0.304847  -0.531545  0  2.275483  0
O  O53  1  0.68616198  0.54608138  0.45166908  1  -1.145072  0  -0.30222  -0.528379  0  2.27025  0
O  O54  1  0.31212328  0.45912789  0.47425578  1  -1.147286  0  -0.306167  -0.532278  0  2.277299  0
O  O55  1  0.69533327  0.43468878  0.53432376  1  -1.141234  0  -0.303464  -0.531003  0  2.271822  0
O  O56  1  0.31123589  0.56110398  0.54798378  1  -1.145547  0  -0.3061  -0.531527  0  2.276624  0
O  O57  1  0.53359567  0.69076815  0.44250097  1  -1.147005  0  -0.302576  -0.531047  0  2.266373  0
O  O58  1  0.46144390  0.31582174  0.46585103  1  -1.137572  0  -0.306685  -0.533275  0  2.27665  0
F  F59  1  0.98346600  0.57464241  0.56187522  1  -0.608359  0  -0.095484  -0.136938  0  1.288002  0
F  F60  1  0.57811884  0.97723026  0.56219638  1  -0.610632  0  -0.095707  -0.136628  0  1.28737  0
F  F61  1  0.45868583  0.37214726  0.24177567  1  -0.625029  0  -0.100999  -0.137557  0  1.325611  0
F  F62  1  0.51214051  0.65790138  0.22750302  1  -0.62279  0  -0.098844  -0.136216  0  1.326593  0
