# generated using pymatgen
data_ZnH12(C8O3)2
_symmetry_space_group_name_H-M   'P 1'
_cell_length_a   7.58226070
_cell_length_b   8.13798201
_cell_length_c   12.59859173
_cell_angle_alpha   108.79819692
_cell_angle_beta   97.02695236
_cell_angle_gamma   90.05444960
_symmetry_Int_Tables_number   1
_chemical_formula_structural   ZnH12(C8O3)2
_chemical_formula_sum   'Zn2 H24 C32 O12'
_cell_volume   729.71869531
_cell_formula_units_Z   2
loop_
 _symmetry_equiv_pos_site_id
 _symmetry_equiv_pos_as_xyz
  1  'x, y, z'
loop_
 _atom_site_type_symbol
 _atom_site_label
 _atom_site_symmetry_multiplicity
 _atom_site_fract_x
 _atom_site_fract_y
 _atom_site_fract_z
 _atom_site_occupancy
 _atom_site_hle17_bader_spin_density
 _atom_site_hle17_ddec_charge
 _atom_site_hle17_ddec_spin_density
 _atom_site_hle17_ddec_sum_bond_order
 _atom_site_hle17_magmom
 _atom_site_hse06_10hf_bader_spin_density
 _atom_site_hse06_10hf_ddec_charge
 _atom_site_hse06_10hf_ddec_spin_density
 _atom_site_hse06_10hf_ddec_sum_bond_order
 _atom_site_hse06_10hf_magmom
 _atom_site_hse06_bader_spin_density
 _atom_site_hse06_ddec_charge
 _atom_site_hse06_ddec_spin_density
 _atom_site_hse06_ddec_sum_bond_order
 _atom_site_hse06_magmom
 _atom_site_pbe_bader_spin_density
 _atom_site_pbe_cm5_charge
 _atom_site_pbe_ddec_charge
 _atom_site_pbe_ddec_spin_density
 _atom_site_pbe_ddec_sum_bond_order
 _atom_site_pbe_magmom
Zn  Zn0  1  0.74999577  0.94921052  0.00003039  1  0  1.190524  0  1.746729  0  0  1.014427  0  2.23761  0  0  1.064295  0  2.171038  0  0  0.713024  0.979091  0  2.28387  0
Zn  Zn1  1  0.25000111  0.05078280  0.99996862  1  0  1.19052  0  1.746684  0  0  1.014429  0  2.237563  0  0  1.064298  0  2.170988  0  0  0.713051  0.979098  0  2.283837  0
H  H2  1  0.35546533  0.03264360  0.33080939  1  0  0.099722  0  0.97533  0  0  0.107878  0  1.041755  0  0  0.111491  0  1.038768  0  0  0.10272  0.10526  0  1.043945  0
H  H3  1  0.14447388  0.70199689  0.66916006  1  0  0.099799  0  0.974692  0  0  0.108253  0  1.040853  0  0  0.11186  0  1.037876  0  0  0.102839  0.105647  0  1.043025  0
H  H4  1  0.64453893  0.96736401  0.66919088  1  0  0.099749  0  0.975288  0  0  0.107899  0  1.041725  0  0  0.111514  0  1.038735  0  0  0.102716  0.105282  0  1.043911  0
H  H5  1  0.85552306  0.29799647  0.33083579  1  0  0.099849  0  0.974613  0  0  0.108321  0  1.040761  0  0  0.111935  0  1.037769  0  0  0.102852  0.105714  0  1.042944  0
H  H6  1  0.94680629  0.79307543  0.38049373  1  0  0.105515  0  0.979194  0  0  0.115151  0  1.042945  0  0  0.117765  0  1.04351  0  0  0.10247  0.11333  0  1.042606  0
H  H7  1  0.55300598  0.41208167  0.61961447  1  0  0.105659  0  0.978515  0  0  0.115011  0  1.042694  0  0  0.117509  0  1.043437  0  0  0.101846  0.113246  0  1.04225  0
H  H8  1  0.05319386  0.20692960  0.61950565  1  0  0.105494  0  0.979202  0  0  0.115123  0  1.042961  0  0  0.117738  0  1.043525  0  0  0.102452  0.113302  0  1.042633  0
H  H9  1  0.44698849  0.58791812  0.38038889  1  0  0.105678  0  0.978582  0  0  0.115051  0  1.042717  0  0  0.117555  0  1.043441  0  0  0.101861  0.11326  0  1.042303  0
H  H10  1  0.78277580  0.89103987  0.54058903  1  0  0.090033  0  0.957696  0  0  0.10277  0  1.015706  0  0  0.105288  0  1.014298  0  0  0.101084  0.100905  0  1.016788  0
H  H11  1  0.71718824  0.35008724  0.45958664  1  0  0.089927  0  0.958284  0  0  0.102684  0  1.01643  0  0  0.105208  0  1.01495  0  0  0.101266  0.10084  0  1.01749  0
H  H12  1  0.21722385  0.10895477  0.45940810  1  0  0.090033  0  0.957647  0  0  0.10277  0  1.015659  0  0  0.105286  0  1.014251  0  0  0.101095  0.100891  0  1.016756  0
H  H13  1  0.28280472  0.64990865  0.54041578  1  0  0.089899  0  0.958245  0  0  0.102634  0  1.01642  0  0  0.105159  0  1.014939  0  0  0.101228  0.100791  0  1.017474  0
H  H14  1  0.04720451  0.68866840  0.09844764  1  0  0.120634  0  0.923363  0  0  0.137862  0  0.979781  0  0  0.139406  0  0.978418  0  0  0.110702  0.136684  0  0.980818  0
H  H15  1  0.45197057  0.59032405  0.90148573  1  0  0.120441  0  0.924209  0  0  0.138125  0  0.980126  0  0  0.13964  0  0.978785  0  0  0.110557  0.136973  0  0.981132  0
H  H16  1  0.95279230  0.31132236  0.90154844  1  0  0.120619  0  0.923319  0  0  0.137821  0  0.979772  0  0  0.139364  0  0.978408  0  0  0.110698  0.136643  0  0.980809  0
H  H17  1  0.54803573  0.40967434  0.09852147  1  0  0.120418  0  0.924311  0  0  0.138123  0  0.980199  0  0  0.139639  0  0.978854  0  0  0.110556  0.136967  0  0.981211  0
H  H18  1  0.09826823  0.83047091  0.24102944  1  0  0.084426  0  0.937418  0  0  0.1012  0  1.005064  0  0  0.101036  0  1.005102  0  0  0.096865  0.10124  0  1.005095  0
H  H19  1  0.40131458  0.58959201  0.75882458  1  0  0.084258  0  0.938506  0  0  0.101124  0  1.006156  0  0  0.100966  0  1.006152  0  0  0.096601  0.101165  0  1.006193  0
H  H20  1  0.90173775  0.16951721  0.75896682  1  0  0.084426  0  0.937354  0  0  0.10122  0  1.004982  0  0  0.101055  0  1.005019  0  0  0.096895  0.101259  0  1.005017  0
H  H21  1  0.59868645  0.41040769  0.24118327  1  0  0.08431  0  0.938524  0  0  0.101181  0  1.006158  0  0  0.101022  0  1.006157  0  0  0.096634  0.101227  0  1.006197  0
H  H22  1  0.00226520  0.61596534  0.21359741  1  0  0.075141  0  0.979613  0  0  0.089805  0  1.050092  0  0  0.089098  0  1.051883  0  0  0.091842  0.090236  0  1.048898  0
H  H23  1  0.49678658  0.40260053  0.78648041  1  0  0.075707  0  0.980425  0  0  0.090546  0  1.050561  0  0  0.089828  0  1.052342  0  0  0.09201  0.090981  0  1.049387  0
H  H24  1  0.99772251  0.38402936  0.78639798  1  0  0.075161  0  0.979491  0  0  0.089811  0  1.049998  0  0  0.089101  0  1.051793  0  0  0.091822  0.090245  0  1.048799  0
H  H25  1  0.50322254  0.59740047  0.21352599  1  0  0.075743  0  0.980377  0  0  0.090589  0  1.050511  0  0  0.089872  0  1.052289  0  0  0.091997  0.091027  0  1.049331  0
C  C26  1  0.55158046  0.97059048  0.45145461  1  0  0.021003  0  3.813283  0  0  0.034883  0  4.051918  0  0  0.031841  0  4.077312  0  0  -0.023027  0.036747  0  4.034702  0
C  C27  1  0.94842170  0.51901767  0.54858223  1  0  0.020203  0  3.813074  0  0  0.034227  0  4.051772  0  0  0.031155  0  4.077257  0  0  -0.023471  0.03608  0  4.034563  0
C  C28  1  0.44842374  0.02941583  0.54854537  1  0  0.020778  0  3.813434  0  0  0.034785  0  4.05196  0  0  0.031741  0  4.077353  0  0  -0.023034  0.036655  0  4.034735  0
C  C29  1  0.05157019  0.48098092  0.45141432  1  0  0.020128  0  3.813193  0  0  0.034197  0  4.051848  0  0  0.031094  0  4.07736  0  0  -0.023562  0.036069  0  4.034624  0
C  C30  1  0.48440012  0.97909027  0.34483903  1  0  -0.096696  0  3.725098  0  0  -0.130119  0  3.978072  0  0  -0.127348  0  3.996034  0  0  -0.086442  -0.131711  0  3.96589  0
C  C31  1  0.01552431  0.63423199  0.65516692  1  0  -0.096371  0  3.723404  0  0  -0.130381  0  3.976299  0  0  -0.127634  0  3.994375  0  0  -0.086017  -0.131925  0  3.96406  0
C  C32  1  0.51560418  0.02091862  0.65516310  1  0  -0.096742  0  3.725151  0  0  -0.130171  0  3.978111  0  0  -0.127401  0  3.996072  0  0  -0.086452  -0.131762  0  3.965931  0
C  C33  1  0.98447026  0.36576786  0.34483171  1  0  -0.096333  0  3.723311  0  0  -0.130356  0  3.976169  0  0  -0.127605  0  3.994253  0  0  -0.085966  -0.131903  0  3.963932  0
C  C34  1  0.57407640  0.91899941  0.24958568  1  0  -0.18072  0  3.741448  0  0  -0.164901  0  3.986505  0  0  -0.176717  0  4.006003  0  0  -0.032043  -0.157288  0  3.973573  0
C  C35  1  0.92568028  0.66943129  0.75042105  1  0  -0.180441  0  3.740145  0  0  -0.163872  0  3.984184  0  0  -0.175826  0  4.003809  0  0  -0.031293  -0.156189  0  3.971175  0
C  C36  1  0.42592666  0.08101081  0.75041505  1  0  -0.180669  0  3.741389  0  0  -0.16491  0  3.986577  0  0  -0.176723  0  4.006071  0  0  -0.032079  -0.157295  0  3.973647  0
C  C37  1  0.07431970  0.33057111  0.24958014  1  0  -0.180453  0  3.7401  0  0  -0.163906  0  3.984183  0  0  -0.175859  0  4.003811  0  0  -0.031317  -0.15624  0  3.971196  0
C  C38  1  0.74510107  0.85079400  0.26160240  1  0  0.280917  0  3.765496  0  0  0.260169  0  4.022995  0  0  0.275388  0  4.037687  0  0  0.097062  0.249866  0  4.012993  0
C  C39  1  0.75461002  0.58902912  0.73842660  1  0  0.280431  0  3.764667  0  0  0.260144  0  4.02092  0  0  0.275583  0  4.035552  0  0  0.096477  0.249766  0  4.010952  0
C  C40  1  0.25490340  0.14921752  0.73839792  1  0  0.280789  0  3.765467  0  0  0.260019  0  4.023016  0  0  0.275245  0  4.037698  0  0  0.096965  0.249716  0  4.013011  0
C  C41  1  0.24538731  0.41097330  0.26157438  1  0  0.280352  0  3.764887  0  0  0.260097  0  4.021103  0  0  0.275535  0  4.035738  0  0  0.096422  0.249731  0  4.011134  0
C  C42  1  0.81664762  0.84541083  0.36871819  1  0  -0.211613  0  3.770059  0  0  -0.229342  0  4.023254  0  0  -0.237723  0  4.044701  0  0  -0.111367  -0.223857  0  4.008766  0
C  C43  1  0.68323006  0.47628796  0.63138894  1  0  -0.211753  0  3.769268  0  0  -0.229535  0  4.022476  0  0  -0.237849  0  4.043818  0  0  -0.110903  -0.224072  0  4.008045  0
C  C44  1  0.18335531  0.15459679  0.63128197  1  0  -0.211535  0  3.770084  0  0  -0.229248  0  4.023269  0  0  -0.237629  0  4.044713  0  0  -0.111301  -0.223764  0  4.008774  0
C  C45  1  0.31676587  0.52371316  0.36861165  1  0  -0.211832  0  3.769533  0  0  -0.229642  0  4.02272  0  0  -0.237954  0  4.044064  0  0  -0.11092  -0.224161  0  4.008302  0
C  C46  1  0.72135928  0.90218895  0.46048788  1  0  -0.064412  0  3.737839  0  0  -0.084714  0  3.984686  0  0  -0.082596  0  4.003814  0  0  -0.082847  -0.085775  0  3.971522  0
C  C47  1  0.77861421  0.44135610  0.53962461  1  0  -0.063747  0  3.737643  0  0  -0.084275  0  3.984596  0  0  -0.082033  0  4.003597  0  0  -0.083017  -0.085413  0  3.971494  0
C  C48  1  0.27864073  0.09781347  0.53951173  1  0  -0.064366  0  3.737874  0  0  -0.084693  0  3.984684  0  0  -0.082574  0  4.00381  0  0  -0.082883  -0.085742  0  3.971518  0
C  C49  1  0.22137757  0.55864115  0.46037403  1  0  -0.063638  0  3.737721  0  0  -0.084148  0  3.984652  0  0  -0.081898  0  4.00366  0  0  -0.082922  -0.085285  0  3.971526  0
C  C50  1  0.48018718  0.92549161  0.14009148  1  0  0.689969  0  3.845167  0  0  0.639785  0  4.129389  0  0  0.677005  0  4.119046  0  0  0.220791  0.61439  0  4.135887  0
C  C51  1  0.01949137  0.78545426  0.85988066  1  0  0.690873  0  3.846013  0  0  0.639772  0  4.131002  0  0  0.677043  0  4.120639  0  0  0.220678  0.614335  0  4.137533  0
C  C52  1  0.51981005  0.07450949  0.85991080  1  0  0.690037  0  3.845115  0  0  0.639821  0  4.129414  0  0  0.67704  0  4.119069  0  0  0.220781  0.614422  0  4.135917  0
C  C53  1  0.98051367  0.21454167  0.14011639  1  0  0.690706  0  3.845796  0  0  0.639568  0  4.130853  0  0  0.676837  0  4.120493  0  0  0.220594  0.614139  0  4.137383  0
C  C54  1  0.00576615  0.72745646  0.18280844  1  0  -0.066697  0  3.585949  0  0  -0.161749  0  3.843776  0  0  -0.15422  0  3.847669  0  0  -0.141042  -0.166697  0  3.841013  0
C  C55  1  0.49355565  0.54479841  0.81716434  1  0  -0.067272  0  3.588409  0  0  -0.163171  0  3.846604  0  0  -0.155437  0  3.850498  0  0  -0.141046  -0.168195  0  3.843854  0
C  C56  1  0.99423224  0.27253949  0.81718887  1  0  -0.066659  0  3.585677  0  0  -0.161712  0  3.843522  0  0  -0.154176  0  3.847405  0  0  -0.141044  -0.16666  0  3.840754  0
C  C57  1  0.50645208  0.45520129  0.18284167  1  0  -0.067344  0  3.588479  0  0  -0.163271  0  3.84666  0  0  -0.155537  0  3.850557  0  0  -0.141042  -0.168288  0  3.843903  0
O  O58  1  0.33052402  0.99839901  0.14259703  1  0  -0.63506  0  2.055517  0  0  -0.566607  0  2.322541  0  0  -0.596373  0  2.308993  0  0  -0.308738  -0.545835  0  2.331089  0
O  O59  1  0.16927617  0.85593405  0.85739525  1  0  -0.635047  0  2.055847  0  0  -0.56642  0  2.323441  0  0  -0.596194  0  2.309872  0  0  -0.308456  -0.545678  0  2.332079  0
O  O60  1  0.66946897  0.00159691  0.85740380  1  0  -0.635088  0  2.05556  0  0  -0.566587  0  2.322579  0  0  -0.596366  0  2.309059  0  0  -0.308741  -0.545812  0  2.331125  0
O  O61  1  0.83073117  0.14405534  0.14260298  1  0  -0.634973  0  2.055811  0  0  -0.566365  0  2.323497  0  0  -0.596149  0  2.309945  0  0  -0.308387  -0.545615  0  2.332119  0
O  O62  1  0.54313014  0.85655783  0.04685743  1  0  -0.669193  0  2.124438  0  0  -0.604297  0  2.408525  0  0  -0.630382  0  2.388139  0  0  -0.325335  -0.586116  0  2.42206  0
O  O63  1  0.95648980  0.80960303  0.95312099  1  0  -0.669626  0  2.125515  0  0  -0.604122  0  2.409544  0  0  -0.630215  0  2.389135  0  0  -0.32513  -0.585935  0  2.423118  0
O  O64  1  0.45686444  0.14344329  0.95314385  1  0  -0.669185  0  2.12447  0  0  -0.604283  0  2.408554  0  0  -0.630364  0  2.388163  0  0  -0.325253  -0.586104  0  2.422096  0
O  O65  1  0.04351562  0.19040069  0.04687775  1  0  -0.669462  0  2.125302  0  0  -0.603933  0  2.409336  0  0  -0.630025  0  2.388926  0  0  -0.325091  -0.585753  0  2.422916  0
O  O66  1  0.83070946  0.79135522  0.16930457  1  0  -0.238129  0  2.392491  0  0  -0.155055  0  2.628125  0  0  -0.175177  0  2.631042  0  0  -0.169281  -0.140964  0  2.62564  0
O  O67  1  0.66878636  0.62211179  0.83069139  1  0  -0.23836  0  2.390068  0  0  -0.155258  0  2.625494  0  0  -0.175672  0  2.628542  0  0  -0.169392  -0.141146  0  2.62304  0
O  O68  1  0.16929621  0.20865370  0.83069530  1  0  -0.238144  0  2.392366  0  0  -0.155026  0  2.627977  0  0  -0.175151  0  2.630883  0  0  -0.169241  -0.140933  0  2.62549  0
O  O69  1  0.33121626  0.37789059  0.16931081  1  0  -0.238307  0  2.390086  0  0  -0.15521  0  2.625492  0  0  -0.175627  0  2.628542  0  0  -0.169372  -0.141107  0  2.623041  0
