# generated using pymatgen
data_ZnH16C25NO4
_symmetry_space_group_name_H-M   'P 1'
_cell_length_a   8.85671912
_cell_length_b   12.51414928
_cell_length_c   24.81666468
_cell_angle_alpha   86.89083798
_cell_angle_beta   79.69471703
_cell_angle_gamma   69.28199083
_symmetry_Int_Tables_number   1
_chemical_formula_structural   ZnH16C25NO4
_chemical_formula_sum   'Zn4 H64 C100 N4 O16'
_cell_volume   2531.04519499
_cell_formula_units_Z   4
loop_
 _symmetry_equiv_pos_site_id
 _symmetry_equiv_pos_as_xyz
  1  'x, y, z'
loop_
 _atom_site_type_symbol
 _atom_site_label
 _atom_site_symmetry_multiplicity
 _atom_site_fract_x
 _atom_site_fract_y
 _atom_site_fract_z
 _atom_site_occupancy
 _atom_site_pbe_bader_charge
 _atom_site_pbe_bader_spin_density
 _atom_site_pbe_cm5_charge
 _atom_site_pbe_ddec_charge
 _atom_site_pbe_ddec_spin_density
 _atom_site_pbe_ddec_sum_bond_order
 _atom_site_pbe_magmom
Zn  Zn0  1  0.25446480  0.77280136  0.73017649  1  1.290804  0  0.683303  0.843543  0  2.308449  0
Zn  Zn1  1  0.75746547  0.72712161  0.76981545  1  1.289916  0  0.683011  0.843274  0  2.306779  0
Zn  Zn2  1  0.74552926  0.22719788  0.26982323  1  1.29081  0  0.68332  0.843479  0  2.308507  0
Zn  Zn3  1  0.24252610  0.27288279  0.23018644  1  1.289813  0  0.683035  0.843249  0  2.306859  0
H  H4  1  0.34328556  0.96132072  0.77502393  1  0.183832  0  0.120367  0.106253  0  1.038431  0
H  H5  1  0.07932330  0.53870728  0.72496510  1  0.168374  0  0.120135  0.105952  0  1.038292  0
H  H6  1  0.65670966  0.03867259  0.22497867  1  0.183767  0  0.120413  0.106338  0  1.038462  0
H  H7  1  0.92068098  0.46128767  0.27503346  1  0.168509  0  0.120104  0.105967  0  1.038276  0
H  H8  1  0.21787681  0.61357597  0.89310743  1  0.091034  0  0.11123  0.110499  0  0.985043  0
H  H9  1  0.72536081  0.88539494  0.60655159  1  0.099167  0  0.111375  0.11044  0  0.986161  0
H  H10  1  0.78210928  0.38643445  0.10689689  1  0.090916  0  0.111222  0.110558  0  0.98513  0
H  H11  1  0.27462556  0.11461967  0.39344815  1  0.099275  0  0.111439  0.110513  0  0.986174  0
H  H12  1  0.14036737  0.50037203  0.62305851  1  0.075378  0  0.102928  0.094606  0  1.013662  0
H  H13  1  0.26469939  0.00017428  0.87704244  1  0.07615  0  0.10317  0.09459  0  1.013198  0
H  H14  1  0.85966443  0.49961757  0.37692584  1  0.074858  0  0.102969  0.094682  0  1.013555  0
H  H15  1  0.73528608  0.99981564  0.12296237  1  0.075968  0  0.103125  0.09448  0  1.013122  0
H  H16  1  0.13301631  0.72626967  0.56645453  1  0.070227  0  0.108766  0.132423  0  0.981913  0
H  H17  1  0.42562321  0.77401756  0.93358682  1  0.085694  0  0.108747  0.132049  0  0.98303  0
H  H18  1  0.86702603  0.27371836  0.43353827  1  0.069938  0  0.108718  0.132427  0  0.981772  0
H  H19  1  0.57438628  0.22598266  0.06642094  1  0.0857  0  0.108798  0.132068  0  0.982956  0
H  H20  1  0.58872804  0.53873834  0.65915162  1  0.080037  0  0.096074  0.099798  0  1.024451  0
H  H21  1  0.78783950  0.96107554  0.84067543  1  0.073342  0  0.096082  0.099631  0  1.024517  0
H  H22  1  0.41129673  0.46126313  0.34082706  1  0.079579  0  0.09621  0.099954  0  1.024568  0
H  H23  1  0.21215179  0.03892039  0.15933088  1  0.07329  0  0.096202  0.099797  0  1.024393  0
H  H24  1  0.16009843  0.71939853  0.96321199  1  0.071466  0  0.098911  0.096961  0  1.041315  0
H  H25  1  0.84293984  0.77999552  0.53619581  1  0.072738  0  0.098852  0.096609  0  1.042343  0
H  H26  1  0.83991544  0.28059309  0.03679231  1  0.071032  0  0.098864  0.096902  0  1.041373  0
H  H27  1  0.15704936  0.22003024  0.46380584  1  0.072591  0  0.098763  0.096499  0  1.042435  0
H  H28  1  0.48721569  0.47070066  0.58561088  1  0.055821  0  0.097702  0.097479  0  1.021164  0
H  H29  1  0.54450394  0.02809088  0.91423371  1  0.062649  0  0.09784  0.098072  0  1.020987  0
H  H30  1  0.51283170  0.52927602  0.41436676  1  0.055807  0  0.097728  0.097518  0  1.021061  0
H  H31  1  0.45547897  0.97189904  0.08577135  1  0.062522  0  0.097791  0.097916  0  1.021085  0
H  H32  1  0.23139766  0.17317700  0.78049153  1  0.069959  0  0.117225  0.125366  0  0.982165  0
H  H33  1  0.18501065  0.32685577  0.71968496  1  0.097856  0  0.117007  0.125141  0  0.983064  0
H  H34  1  0.76859830  0.82681634  0.21951372  1  0.069794  0  0.117234  0.125388  0  0.982211  0
H  H35  1  0.81498098  0.67314012  0.28031879  1  0.097798  0  0.117037  0.125174  0  0.982968  0
H  H36  1  0.80505943  0.16370849  0.72148229  1  0.0863  0  0.118138  0.12573  0  0.977872  0
H  H37  1  0.69010908  0.33605148  0.77866262  1  0.076559  0  0.118489  0.125783  0  0.980355  0
H  H38  1  0.19493251  0.83629256  0.27852425  1  0.086368  0  0.118142  0.125804  0  0.977792  0
H  H39  1  0.30988219  0.66395469  0.22134320  1  0.076514  0  0.118455  0.125768  0  0.980241  0
H  H40  1  0.64461903  0.43967310  0.49148155  1  0.091638  0  0.096604  0.095827  0  1.053183  0
H  H41  1  0.57615426  0.05907251  0.00843457  1  0.051179  0  0.096746  0.095957  0  1.053851  0
H  H42  1  0.35544527  0.56030274  0.50849683  1  0.080934  0  0.096534  0.095755  0  1.053295  0
H  H43  1  0.42382787  0.94091916  0.99157266  1  0.051234  0  0.096732  0.095985  0  1.053969  0
H  H44  1  0.88099289  0.64631504  0.86438336  1  0.119874  0  0.104698  0.134256  0  1.040094  0
H  H45  1  0.39184694  0.85357203  0.63564097  1  0.123245  0  0.104336  0.133615  0  1.040826  0
H  H46  1  0.11899817  0.35368164  0.13561606  1  0.119876  0  0.104727  0.134305  0  1.04012  0
H  H47  1  0.60813917  0.14644608  0.36436406  1  0.123375  0  0.104323  0.133536  0  1.040915  0
H  H48  1  0.85414476  0.56970297  0.63936797  1  0.066774  0  0.093451  0.093353  0  1.051542  0
H  H49  1  0.06410284  0.93089802  0.86051790  1  0.081825  0  0.093934  0.093865  0  1.0523  0
H  H50  1  0.14587130  0.43030621  0.36061209  1  0.066583  0  0.0934  0.093195  0  1.051419  0
H  H51  1  0.93588396  0.06909961  0.13948859  1  0.082965  0  0.093831  0.093627  0  1.052446  0
H  H52  1  0.93488061  0.95046642  0.71816112  1  0.146306  0  0.131339  0.110124  0  0.970325  0
H  H53  1  0.60308574  0.54933946  0.78177344  1  0.145158  0  0.131342  0.110631  0  0.969843  0
H  H54  1  0.06510418  0.04953459  0.28184233  1  0.146411  0  0.131361  0.110202  0  0.97032  0
H  H55  1  0.39691049  0.45066664  0.21822755  1  0.14514  0  0.131367  0.110634  0  0.969951  0
H  H56  1  0.90724087  0.29029945  0.86146924  1  0.034364  0  0.088206  0.081488  0  1.048052  0
H  H57  1  0.06114099  0.20992734  0.63913853  1  0.053188  0  0.088158  0.081463  0  1.048902  0
H  H58  1  0.09274772  0.70970496  0.13853331  1  0.034264  0  0.088238  0.08152  0  1.047993  0
H  H59  1  0.93883728  0.79008814  0.36086196  1  0.052844  0  0.088112  0.081375  0  1.048914  0
H  H60  1  0.01779357  0.44534536  0.86041024  1  0.064624  0  0.09059  0.0875  0  1.056366  0
H  H61  1  0.32537709  0.05430716  0.63973407  1  0.07021  0  0.091013  0.087966  0  1.057089  0
H  H62  1  0.98218891  0.55465994  0.13959450  1  0.064247  0  0.090683  0.087672  0  1.056255  0
H  H63  1  0.67459808  0.94571009  0.36026972  1  0.070187  0  0.090993  0.087905  0  1.05723  0
H  H64  1  0.81055102  0.21189237  0.94989265  1  0.078653  0  0.094967  0.092012  0  1.049427  0
H  H65  1  0.97338307  0.28876719  0.55097687  1  0.104686  0  0.095119  0.091871  0  1.051625  0
H  H66  1  0.18946004  0.78810009  0.05011062  1  0.078467  0  0.095022  0.092018  0  1.049484  0
H  H67  1  0.02659696  0.71125089  0.44902514  1  0.066436  0  0.095154  0.091967  0  1.051408  0
C  C68  1  0.22488022  0.00915907  0.76291056  1  0.417672  0  0.053442  0.093481  0  3.925288  0
C  C69  1  0.99666604  0.49081457  0.73713015  1  0.465894  0  0.053153  0.092896  0  3.924618  0
C  C70  1  0.77510517  0.99084021  0.23709201  1  0.417411  0  0.053288  0.093188  0  3.925497  0
C  C71  1  0.00333656  0.50918210  0.26286922  1  0.465813  0  0.053152  0.092801  0  3.924869  0
C  C72  1  0.09829377  0.60336379  0.89890587  1  -0.035707  0  -0.059388  -0.025297  0  3.936357  0
C  C73  1  0.60119313  0.89594177  0.60087835  1  -0.099158  0  -0.059232  -0.024616  0  3.939941  0
C  C74  1  0.90168820  0.39664233  0.10109670  1  -0.035772  0  -0.059343  -0.025341  0  3.936348  0
C  C75  1  0.39879474  0.10407627  0.39912162  1  -0.099293  0  -0.059402  -0.02499  0  3.940065  0
C  C76  1  0.12308154  0.56191167  0.58952525  1  -0.065095  0  -0.069199  -0.053646  0  3.995448  0
C  C77  1  0.27498800  0.93855905  0.91053843  1  -0.022914  0  -0.069456  -0.053885  0  3.994672  0
C  C78  1  0.87695822  0.43807967  0.41046059  1  -0.061482  0  -0.069138  -0.053616  0  3.995283  0
C  C79  1  0.72500286  0.06142833  0.08946797  1  -0.023966  0  -0.069196  -0.053337  0  3.994141  0
C  C80  1  0.15405189  0.65739302  0.59626474  1  -0.02481  0  -0.095214  -0.235264  0  3.917641  0
C  C81  1  0.40793146  0.84292026  0.90379505  1  -0.079274  0  -0.095186  -0.23456  0  3.918168  0
C  C82  1  0.84598650  0.34259581  0.40372479  1  -0.02444  0  -0.095168  -0.235283  0  3.917478  0
C  C83  1  0.59207160  0.15707653  0.09621169  1  -0.078472  0  -0.095268  -0.234735  0  3.917974  0
C  C84  1  0.06148431  0.53349850  0.54314179  1  -0.002815  0  -0.004209  0.010941  0  3.955035  0
C  C85  1  0.13829197  0.96690357  0.95687097  1  0.011584  0  -0.003943  0.010866  0  3.95579  0
C  C86  1  0.93856176  0.46649963  0.45684129  1  -0.006212  0  -0.004281  0.010746  0  3.955498  0
C  C87  1  0.86169043  0.03308214  0.04313779  1  0.01176  0  -0.004043  0.010797  0  3.955684  0
C  C88  1  0.00954391  0.18692237  0.75021245  1  -0.168145  0  0.015434  0.096537  0  3.997876  0
C  C89  1  0.94658645  0.31296032  0.74994692  1  0.009946  0  0.016393  0.098312  0  3.995677  0
C  C90  1  0.99045118  0.81307781  0.24979256  1  -0.167779  0  0.015384  0.096631  0  3.997659  0
C  C91  1  0.05340392  0.68703643  0.25005763  1  0.011219  0  0.016392  0.09829  0  3.995636  0
C  C92  1  0.90882461  0.51717764  0.55393526  1  -0.100443  0  -0.007484  0.023443  0  3.990145  0
C  C93  1  0.98035498  0.98283689  0.94602851  1  -0.037109  0  -0.007622  0.024446  0  3.989014  0
C  C94  1  0.09120864  0.48282390  0.44604747  1  -0.099826  0  -0.007737  0.023238  0  3.990141  0
C  C95  1  0.01963774  0.01714875  0.05397580  1  -0.037071  0  -0.007708  0.024118  0  3.988967  0
C  C96  1  0.06428182  0.70098836  0.81051288  1  1.487579  0  0.206967  0.617579  0  4.180118  0
C  C97  1  0.57606589  0.79861431  0.68941145  1  1.506647  0  0.20635  0.615845  0  4.179251  0
C  C98  1  0.93571188  0.29901177  0.18948900  1  1.487662  0  0.206909  0.617404  0  4.180311  0
C  C99  1  0.42393365  0.20138746  0.31058617  1  1.506659  0  0.206253  0.615701  0  4.179363  0
C  C100  1  0.66369320  0.52078672  0.61849216  1  0.000501  0  -0.096833  -0.077313  0  4.008794  0
C  C101  1  0.80393866  0.97892655  0.88138460  1  -0.015647  0  -0.09656  -0.077231  0  4.008697  0
C  C102  1  0.33634390  0.47921217  0.38148470  1  0.001537  0  -0.097188  -0.077904  0  4.008822  0
C  C103  1  0.19604784  0.02106592  0.11861909  1  -0.015531  0  -0.096726  -0.077826  0  4.008546  0
C  C104  1  0.12713134  0.67930660  0.00136224  1  -0.090135  0  -0.091876  -0.128193  0  3.977315  0
C  C105  1  0.80761403  0.82024664  0.49813469  1  -0.071656  0  -0.092748  -0.128901  0  3.975879  0
C  C106  1  0.87287914  0.32068589  0.99864271  1  -0.089946  0  -0.09176  -0.127986  0  3.977213  0
C  C107  1  0.19236395  0.17977489  0.50186989  1  -0.070956  0  -0.092673  -0.128721  0  3.975757  0
C  C108  1  0.04797075  0.54976433  0.94943672  1  0.004195  0  -0.00048  0.014774  0  3.939208  0
C  C109  1  0.54754812  0.94982647  0.55044575  1  -0.002578  0  -0.000649  0.014285  0  3.941151  0
C  C110  1  0.95202145  0.45024178  0.05056485  1  0.003373  0  -0.000536  0.014743  0  3.939313  0
C  C111  1  0.45243939  0.05019246  0.44955638  1  -0.002949  0  -0.000711  0.014496  0  3.940823  0
C  C112  1  0.15361220  0.51745229  0.48944959  1  0.04192  0  -0.004092  0.031982  0  3.981378  0
C  C113  1  0.16020633  0.98296680  0.01059372  1  -0.019791  0  -0.004308  0.030962  0  3.983644  0
C  C114  1  0.84644155  0.48254071  0.51053299  1  0.043615  0  -0.004094  0.032214  0  3.981619  0
C  C115  1  0.83978591  0.01701720  0.98941524  1  -0.020021  0  -0.0044  0.030648  0  3.983865  0
C  C116  1  0.60462340  0.48348796  0.57620204  1  -0.035315  0  -0.095267  -0.079634  0  4.012993  0
C  C117  1  0.66514141  0.01566512  0.92368870  1  -0.002104  0  -0.095792  -0.080526  0  4.014121  0
C  C118  1  0.39542057  0.51649908  0.42378178  1  -0.03703  0  -0.09505  -0.079371  0  4.012991  0
C  C119  1  0.33485749  0.98432052  0.07631518  1  -0.001825  0  -0.095709  -0.080009  0  4.013806  0
C  C120  1  0.16204813  0.12764630  0.76569886  1  0.087122  0  -0.074135  -0.166324  0  3.93163  0
C  C121  1  0.05526007  0.37230252  0.73443334  1  -0.025244  0  -0.074131  -0.166366  0  3.930838  0
C  C122  1  0.83794353  0.87234789  0.23430569  1  0.087142  0  -0.074096  -0.166317  0  3.931494  0
C  C123  1  0.94473902  0.62769080  0.26556998  1  -0.025316  0  -0.074167  -0.166398  0  3.930999  0
C  C124  1  0.92362044  0.12233869  0.73423864  1  -0.030114  0  -0.070544  -0.166383  0  3.928042  0
C  C125  1  0.78001327  0.37748923  0.76588537  1  0.017793  0  -0.071403  -0.167658  0  3.930501  0
C  C126  1  0.07636591  0.87766577  0.26576721  1  -0.029783  0  -0.070525  -0.166482  0  3.92808  0
C  C127  1  0.21998351  0.62251350  0.23411898  1  0.016822  0  -0.071326  -0.167612  0  3.930054  0
C  C128  1  0.20576386  0.67767316  0.64720441  1  1.545777  0  0.192289  0.609669  0  4.215506  0
C  C129  1  0.53106479  0.82243980  0.85286775  1  1.546992  0  0.192005  0.609659  0  4.218527  0
C  C130  1  0.79424629  0.32231661  0.35279093  1  1.546433  0  0.192069  0.609363  0  4.215506  0
C  C131  1  0.46892650  0.17756040  0.14713872  1  1.546203  0  0.192103  0.609765  0  4.218347  0
C  C132  1  0.69228748  0.46640159  0.52381215  1  -0.087874  0  -0.095085  -0.133995  0  3.977066  0
C  C133  1  0.68298615  0.03269977  0.97610357  1  -0.063623  0  -0.095158  -0.133738  0  3.979621  0
C  C134  1  0.30776301  0.53358540  0.47616868  1  -0.076912  0  -0.095  -0.133801  0  3.977441  0
C  C135  1  0.31701237  0.96728845  0.02390167  1  -0.063844  0  -0.095208  -0.134038  0  3.979805  0
C  C136  1  0.00602937  0.64605236  0.85972827  1  -0.059963  0  -0.106487  -0.27285  0  3.929672  0
C  C137  1  0.51221350  0.85354067  0.64016991  1  -0.051027  0  -0.105898  -0.27233  0  3.930633  0
C  C138  1  0.99396556  0.35394860  0.14027201  1  -0.059684  0  -0.106485  -0.272852  0  3.92963  0
C  C139  1  0.48777441  0.14647910  0.35983142  1  -0.050757  0  -0.105808  -0.272067  0  3.930727  0
C  C140  1  0.81137209  0.53741929  0.60740005  1  -0.087281  0  -0.097747  -0.134434  0  3.981957  0
C  C141  1  0.95695576  0.96269458  0.89250943  1  -0.117925  0  -0.098862  -0.135308  0  3.981858  0
C  C142  1  0.18866076  0.46258484  0.39258404  1  -0.087354  0  -0.097512  -0.133899  0  3.981271  0
C  C143  1  0.04303050  0.03729360  0.10749322  1  -0.119438  0  -0.098686  -0.134677  0  3.981644  0
C  C144  1  0.99494823  0.00389842  0.73197413  1  0.51865  0  0.065123  0.11808  0  3.904927  0
C  C145  1  0.73052690  0.49595016  0.76804792  1  0.483311  0  0.065722  0.118305  0  3.902999  0
C  C146  1  0.00504166  0.99610258  0.26802882  1  0.518241  0  0.065135  0.117952  0  3.9051  0
C  C147  1  0.26947513  0.50404997  0.23195369  1  0.483328  0  0.065714  0.11833  0  3.902916  0
C  C148  1  0.98350939  0.46081571  0.94897158  1  -0.043497  0  -0.000469  0.040386  0  3.953873  0
C  C149  1  0.39379392  0.03906042  0.55114984  1  -0.005865  0  -0.001055  0.040013  0  3.952866  0
C  C150  1  0.01648674  0.53918616  0.05103270  1  -0.042424  0  -0.00044  0.040349  0  3.953831  0
C  C151  1  0.60618709  0.96095686  0.44885610  1  -0.029162  0  -0.001053  0.0399  0  3.9528  0
C  C152  1  0.06605069  0.58831579  0.99985513  1  0.018812  0  -0.004078  0.030605  0  3.969919  0
C  C153  1  0.65412151  0.91141666  0.49991119  1  0.016413  0  -0.003307  0.031557  0  3.968792  0
C  C154  1  0.93395198  0.41168091  0.00014641  1  0.01926  0  -0.004058  0.030492  0  3.970119  0
C  C155  1  0.34586224  0.08860402  0.50009377  1  -0.007151  0  -0.003299  0.031382  0  3.968514  0
C  C156  1  0.91276322  0.32597909  0.89983313  1  -0.048295  0  -0.100522  -0.084766  0  4.040482  0
C  C157  1  0.14001048  0.17422315  0.60067842  1  0.012602  0  -0.100995  -0.085017  0  4.039265  0
C  C158  1  0.08724082  0.67401851  0.10017113  1  -0.048009  0  -0.100576  -0.084764  0  4.040498  0
C  C159  1  0.85995918  0.82579326  0.39932668  1  0.01319  0  -0.100866  -0.0849  0  4.039223  0
C  C160  1  0.97386733  0.41281169  0.89930634  1  -0.00786  0  -0.096684  -0.126998  0  3.989759  0
C  C161  1  0.28723514  0.08705417  0.60095183  1  -0.065574  0  -0.096846  -0.12718  0  3.988893  0
C  C162  1  0.02612602  0.58718933  0.10069771  1  -0.007671  0  -0.096759  -0.127173  0  3.989684  0
C  C163  1  0.71273852  0.91296478  0.39905148  1  -0.066099  0  -0.096879  -0.12709  0  3.988551  0
C  C164  1  0.85899964  0.28055149  0.95003646  1  -0.037921  0  -0.094775  -0.074806  0  4.021559  0
C  C165  1  0.09043908  0.21987941  0.55061565  1  -0.105526  0  -0.094435  -0.074568  0  4.02115  0
C  C166  1  0.14100999  0.71944698  0.04996865  1  -0.038024  0  -0.094752  -0.074728  0  4.021779  0
C  C167  1  0.90953740  0.78014297  0.44938885  1  -0.066307  0  -0.094464  -0.074639  0  4.021223  0
N  N168  1  0.14354238  0.94850119  0.74555317  1  -1.25342  0  -0.320729  -0.234117  0  3.539079  0
N  N169  1  0.83722681  0.55141790  0.75443611  1  -1.257213  0  -0.320972  -0.233868  0  3.538501  0
N  N170  1  0.85644878  0.05149382  0.25444921  1  -1.253502  0  -0.320699  -0.233942  0  3.539216  0
N  N171  1  0.16277155  0.44858477  0.24556448  1  -1.257281  0  -0.320965  -0.233809  0  3.53867  0
O  O172  1  0.21093193  0.70152722  0.80205183  1  -1.1523  0  -0.315827  -0.522388  0  2.264823  0
O  O173  1  0.71480244  0.79808578  0.69784675  1  -1.149458  0  -0.316176  -0.522017  0  2.26443  0
O  O174  1  0.78906494  0.29846691  0.19794877  1  -1.152416  0  -0.315845  -0.522327  0  2.264978  0
O  O175  1  0.28519633  0.20191261  0.30215328  1  -1.149463  0  -0.316092  -0.521916  0  2.264476  0
O  O176  1  0.96752038  0.74843669  0.77615182  1  -1.180305  0  -0.317894  -0.559861  0  2.338544  0
O  O177  1  0.49219200  0.75127002  0.72381785  1  -1.170881  0  -0.317574  -0.558958  0  2.336198  0
O  O178  1  0.03247042  0.25156861  0.22385264  1  -1.180348  0  -0.317843  -0.559781  0  2.338678  0
O  O179  1  0.50781166  0.24873178  0.27618135  1  -1.171014  0  -0.317578  -0.558954  0  2.336284  0
O  O180  1  0.25988670  0.59822020  0.67993533  1  -1.195001  0  -0.331157  -0.57115  0  2.119062  0
O  O181  1  0.53884537  0.90174902  0.82007158  1  -1.193312  0  -0.331069  -0.571503  0  2.119437  0
O  O182  1  0.74012708  0.40176530  0.32005968  1  -1.195227  0  -0.331172  -0.571106  0  2.119199  0
O  O183  1  0.46113673  0.09825374  0.17993476  1  -1.192492  0  -0.331115  -0.571553  0  2.11946  0
O  O184  1  0.18883200  0.78276036  0.65649749  1  -1.154728  0  -0.336995  -0.566998  0  2.255317  0
O  O185  1  0.62810550  0.71727801  0.84356784  1  -1.162891  0  -0.336185  -0.566073  0  2.255638  0
O  O186  1  0.81118174  0.21722608  0.34350273  1  -1.155049  0  -0.336838  -0.566747  0  2.255095  0
O  O187  1  0.37189034  0.28272725  0.15643395  1  -1.162824  0  -0.336208  -0.566058  0  2.255386  0
