# generated using pymatgen
data_U3H14(C8O13)2
_symmetry_space_group_name_H-M   'P 1'
_cell_length_a   8.66726164
_cell_length_b   8.41038552
_cell_length_c   10.54196716
_cell_angle_alpha   68.08007843
_cell_angle_beta   79.60809491
_cell_angle_gamma   91.49401719
_symmetry_Int_Tables_number   1
_chemical_formula_structural   U3H14(C8O13)2
_chemical_formula_sum   'U3 H14 C16 O26'
_cell_volume   697.52485069
_cell_formula_units_Z   1
loop_
 _symmetry_equiv_pos_site_id
 _symmetry_equiv_pos_as_xyz
  1  'x, y, z'
loop_
 _atom_site_type_symbol
 _atom_site_label
 _atom_site_symmetry_multiplicity
 _atom_site_fract_x
 _atom_site_fract_y
 _atom_site_fract_z
 _atom_site_occupancy
 _atom_site_hle17_bader_spin_density
 _atom_site_hle17_ddec_charge
 _atom_site_hle17_ddec_spin_density
 _atom_site_hle17_ddec_sum_bond_order
 _atom_site_hle17_magmom
 _atom_site_hse06_10hf_bader_spin_density
 _atom_site_hse06_10hf_ddec_charge
 _atom_site_hse06_10hf_ddec_spin_density
 _atom_site_hse06_10hf_ddec_sum_bond_order
 _atom_site_hse06_10hf_magmom
 _atom_site_hse06_bader_spin_density
 _atom_site_hse06_ddec_charge
 _atom_site_hse06_ddec_spin_density
 _atom_site_hse06_ddec_sum_bond_order
 _atom_site_hse06_magmom
 _atom_site_pbe_bader_spin_density
 _atom_site_pbe_cm5_charge
 _atom_site_pbe_ddec_charge
 _atom_site_pbe_ddec_spin_density
 _atom_site_pbe_ddec_sum_bond_order
 _atom_site_pbe_magmom
U  U0  1  0.49998496  0.99998736  0.00000591  1  0  2.445832  0  4.132909  0  0  2.479312  0  4.804761  0  0  2.588758  0  4.765162  0  0  2.184085  2.402107  0  4.832882  0
U  U1  1  0.77091780  0.68529073  0.60897423  1  0  2.535347  0  4.069963  0  0  2.596453  0  4.720578  0  0  2.702348  0  4.68511  0  0  2.205633  2.520414  0  4.747297  0
U  U2  1  0.22909529  0.31474021  0.39102876  1  0  2.535614  0  4.070061  0  0  2.596586  0  4.720935  0  0  2.702638  0  4.685252  0  0  2.20579  2.520688  0  4.747438  0
H  H3  1  0.93185349  0.17058668  0.25853830  1  0  0.435543  0  0.775734  0  0  0.41299  0  0.837247  0  0  0.423514  0  0.825457  0  0  0.350834  0.405531  0  0.845792  0
H  H4  1  0.06816081  0.82941295  0.74144783  1  0  0.43544  0  0.775926  0  0  0.412909  0  0.837396  0  0  0.423428  0  0.825619  0  0  0.350831  0.405454  0  0.845935  0
H  H5  1  0.50993699  0.89496114  0.70400606  1  0  0.457796  0  0.8318  0  0  0.432464  0  0.885474  0  0  0.445838  0  0.866022  0  0  0.31542  0.422835  0  0.89945  0
H  H6  1  0.49005238  0.10504059  0.29600295  1  0  0.457728  0  0.831933  0  0  0.432441  0  0.885545  0  0  0.445817  0  0.866089  0  0  0.315391  0.422816  0  0.899514  0
H  H7  1  0.43417338  0.78098658  0.63426321  1  0  0.447421  0  0.842384  0  0  0.424303  0  0.893113  0  0  0.435007  0  0.877623  0  0  0.317542  0.416717  0  0.904078  0
H  H8  1  0.56583972  0.21902548  0.36573093  1  0  0.446984  0  0.842892  0  0  0.42395  0  0.893519  0  0  0.434618  0  0.878081  0  0  0.317282  0.416391  0  0.904447  0
H  H9  1  0.58799957  0.47076238  0.13943223  1  0  0.090795  0  0.927906  0  0  0.093639  0  0.991437  0  0  0.096661  0  0.988994  0  0  0.127957  0.091497  0  0.99333  0
H  H10  1  0.41202047  0.52923119  0.86056524  1  0  0.090724  0  0.928184  0  0  0.093699  0  0.991582  0  0  0.096722  0  0.98914  0  0  0.127946  0.091554  0  0.993492  0
H  H11  1  0.63017119  0.58654955  0.36058512  1  0  0.107604  0  0.928754  0  0  0.112321  0  0.991774  0  0  0.115343  0  0.988571  0  0  0.132341  0.11041  0  0.994175  0
H  H12  1  0.36982172  0.41345129  0.63942270  1  0  0.107604  0  0.928839  0  0  0.112369  0  0.991743  0  0  0.11539  0  0.988538  0  0  0.132349  0.110454  0  0.994147  0
H  H13  1  0.90965863  0.80749563  0.13077324  1  0  0.119995  0  0.875166  0  0  0.133168  0  0.92179  0  0  0.135211  0  0.921481  0  0  0.130495  0.131789  0  0.922156  0
H  H14  1  0.09034134  0.19250465  0.86923373  1  0  0.119926  0  0.875131  0  0  0.133096  0  0.92177  0  0  0.135138  0  0.921465  0  0  0.130466  0.131716  0  0.922139  0
H  H15  1  0.92542397  0.58873859  0.04063295  1  0  0.124139  0  0.932104  0  0  0.12919  0  0.991734  0  0  0.132569  0  0.989916  0  0  0.118606  0.12689  0  0.992997  0
H  H16  1  0.07457731  0.41127219  0.95936610  1  0  0.124143  0  0.932107  0  0  0.129207  0  0.991699  0  0  0.132584  0  0.98988  0  0  0.118603  0.126895  0  0.992969  0
C  C17  1  0.66764588  0.59088820  0.09505124  1  0  0.061639  0  3.522084  0  0  0.043425  0  3.762464  0  0  0.045725  0  3.767173  0  0  0.022935  0.042003  0  3.758801  0
C  C18  1  0.33236829  0.40911743  0.90495027  1  0  0.06172  0  3.522189  0  0  0.043354  0  3.762631  0  0  0.045647  0  3.767355  0  0  0.022975  0.041924  0  3.758959  0
C  C19  1  0.68064626  0.70114855  0.26632177  1  0  0.030962  0  3.60059  0  0  0.004526  0  3.85177  0  0  0.006624  0  3.857179  0  0  0.014967  0.002943  0  3.847932  0
C  C20  1  0.31934908  0.29884640  0.73367599  1  0  0.030836  0  3.600543  0  0  0.004509  0  3.851506  0  0  0.006612  0  3.8569  0  0  0.015013  0.002926  0  3.847668  0
C  C21  1  0.85271792  0.68201665  0.20947323  1  0  -0.151542  0  3.560028  0  0  -0.170055  0  3.80191  0  0  -0.175157  0  3.811342  0  0  -0.063084  -0.166621  0  3.795544  0
C  C22  1  0.14727853  0.31797951  0.79053162  1  0  -0.151173  0  3.559651  0  0  -0.169752  0  3.801547  0  0  -0.174858  0  3.810982  0  0  -0.062995  -0.166326  0  3.795179  0
C  C23  1  0.83241275  0.55837149  0.13366192  1  0  -0.164699  0  3.548504  0  0  -0.180633  0  3.788185  0  0  -0.185697  0  3.79777  0  0  -0.072293  -0.177064  0  3.781239  0
C  C24  1  0.16759911  0.44163275  0.86633463  1  0  -0.164925  0  3.548102  0  0  -0.180762  0  3.787753  0  0  -0.185829  0  3.797337  0  0  -0.072362  -0.177172  0  3.780777  0
C  C25  1  0.67209685  0.67350323  0.93866178  1  0  0.679306  0  3.822512  0  0  0.640817  0  4.131272  0  0  0.678787  0  4.120311  0  0  0.243627  0.614629  0  4.137447  0
C  C26  1  0.32790431  0.32650097  0.06134580  1  0  0.679174  0  3.822899  0  0  0.640754  0  4.131598  0  0  0.678722  0  4.120654  0  0  0.243532  0.614572  0  4.137765  0
C  C27  1  0.64763900  0.85890638  0.29909660  1  0  0.70081  0  3.790676  0  0  0.662576  0  4.086064  0  0  0.700399  0  4.073703  0  0  0.252603  0.636588  0  4.093497  0
C  C28  1  0.35236218  0.14108399  0.70090353  1  0  0.700997  0  3.790424  0  0  0.66275  0  4.085746  0  0  0.700585  0  4.073367  0  0  0.252713  0.636773  0  4.093165  0
C  C29  1  0.95846899  0.62012769  0.31612756  1  0  0.75559  0  3.753194  0  0  0.72545  0  4.045063  0  0  0.765409  0  4.032602  0  0  0.268997  0.697686  0  4.052659  0
C  C30  1  0.04151572  0.37987620  0.68387867  1  0  0.755476  0  3.753693  0  0  0.725331  0  4.045576  0  0  0.765288  0  4.033113  0  0  0.268918  0.697571  0  4.053171  0
C  C31  1  0.83045668  0.37323978  0.23377294  1  0  0.693137  0  3.735419  0  0  0.636387  0  4.054423  0  0  0.66989  0  4.044673  0  0  0.252236  0.613413  0  4.060691  0
C  C32  1  0.16957432  0.62676954  0.76619571  1  0  0.693502  0  3.735577  0  0  0.636757  0  4.054556  0  0  0.670278  0  4.044758  0  0  0.252529  0.613767  0  4.06084  0
O  O33  1  0.31484426  0.86678670  0.06073072  1  0  -0.667925  0  1.506239  0  0  -0.683351  0  1.776615  0  0  -0.702591  0  1.762322  0  0  -0.76183  -0.672542  0  1.787331  0
O  O34  1  0.68515449  0.13321840  0.93928264  1  0  -0.668104  0  1.50571  0  0  -0.68356  0  1.776045  0  0  -0.702816  0  1.761767  0  0  -0.761557  -0.672738  0  1.78674  0
O  O35  1  0.89624267  0.85534137  0.61620298  1  0  -0.691068  0  1.544095  0  0  -0.704042  0  1.822947  0  0  -0.723773  0  1.80661  0  0  -0.747794  -0.692393  0  1.835431  0
O  O36  1  0.10375150  0.14465726  0.38379581  1  0  -0.691505  0  1.543476  0  0  -0.704497  0  1.822322  0  0  -0.724288  0  1.805962  0  0  -0.74771  -0.692857  0  1.834766  0
O  O37  1  0.63911360  0.52043426  0.60223583  1  0  -0.678288  0  1.553663  0  0  -0.690172  0  1.836445  0  0  -0.712185  0  1.823939  0  0  -0.748876  -0.677195  0  1.846145  0
O  O38  1  0.36086996  0.47956454  0.39776537  1  0  -0.678137  0  1.554543  0  0  -0.689944  0  1.837416  0  0  -0.712022  0  1.824951  0  0  -0.749133  -0.677002  0  1.847103  0
O  O39  1  0.63956635  0.82852798  0.89225299  1  0  -0.633337  0  2.094228  0  0  -0.619522  0  2.363402  0  0  -0.654607  0  2.357413  0  0  -0.347932  -0.593686  0  2.366126  0
O  O40  1  0.36041117  0.17145478  0.10775554  1  0  -0.633346  0  2.094235  0  0  -0.619515  0  2.363334  0  0  -0.654604  0  2.357355  0  0  -0.347853  -0.593667  0  2.366039  0
O  O41  1  0.70525547  0.58379619  0.86628017  1  0  -0.614218  0  1.99434  0  0  -0.606166  0  2.25852  0  0  -0.638345  0  2.251769  0  0  -0.332044  -0.582739  0  2.261734  0
O  O42  1  0.29476330  0.41619327  0.13372435  1  0  -0.614103  0  1.994725  0  0  -0.606082  0  2.258884  0  0  -0.638272  0  2.252125  0  0  -0.331996  -0.582675  0  2.262089  0
O  O43  1  0.56196895  0.96273650  0.22739180  1  0  -0.634637  0  2.077408  0  0  -0.600141  0  2.319073  0  0  -0.632607  0  2.309633  0  0  -0.330031  -0.577073  0  2.324669  0
O  O44  1  0.43801684  0.03724085  0.77261045  1  0  -0.634783  0  2.077551  0  0  -0.60023  0  2.319163  0  0  -0.632697  0  2.309712  0  0  -0.330134  -0.577166  0  2.324759  0
O  O45  1  0.70112958  0.88116253  0.39548049  1  0  -0.638337  0  2.042193  0  0  -0.624131  0  2.300452  0  0  -0.654888  0  2.291543  0  0  -0.345392  -0.601762  0  2.305298  0
O  O46  1  0.29887648  0.11883376  0.60450492  1  0  -0.638404  0  2.041915  0  0  -0.624168  0  2.300124  0  0  -0.654944  0  2.291199  0  0  -0.345434  -0.601826  0  2.304969  0
O  O47  1  0.94384787  0.67124870  0.41601816  1  0  -0.644104  0  2.055668  0  0  -0.639206  0  2.321595  0  0  -0.675178  0  2.314409  0  0  -0.353618  -0.612623  0  2.325037  0
O  O48  1  0.05614397  0.32875986  0.58398192  1  0  -0.644268  0  2.055834  0  0  -0.639351  0  2.321795  0  0  -0.675344  0  2.314599  0  0  -0.353669  -0.612798  0  2.325247  0
O  O49  1  0.05958485  0.52253527  0.29420550  1  0  -0.641034  0  2.078442  0  0  -0.627801  0  2.345858  0  0  -0.663138  0  2.33878  0  0  -0.347706  -0.601821  0  2.34924  0
O  O50  1  0.94040449  0.47745632  0.70580167  1  0  -0.640889  0  2.078899  0  0  -0.627693  0  2.346329  0  0  -0.663022  0  2.339297  0  0  -0.347624  -0.601673  0  2.349668  0
O  O51  1  0.74963836  0.31539422  0.35300907  1  0  -0.542039  0  1.943991  0  0  -0.496588  0  2.152109  0  0  -0.516453  0  2.141027  0  0  -0.259559  -0.482772  0  2.159525  0
O  O52  1  0.25035326  0.68458607  0.64700100  1  0  -0.541819  0  1.945084  0  0  -0.496492  0  2.153352  0  0  -0.516358  0  2.142251  0  0  -0.259571  -0.48268  0  2.160778  0
O  O53  1  0.92161443  0.27805138  0.18029237  1  0  -0.525519  0  2.052193  0  0  -0.474056  0  2.260102  0  0  -0.495144  0  2.244581  0  0  -0.304273  -0.459372  0  2.270555  0
O  O54  1  0.07840466  0.72196779  0.81969510  1  0  -0.525896  0  2.051797  0  0  -0.474444  0  2.259728  0  0  -0.495549  0  2.244202  0  0  -0.304526  -0.459748  0  2.270184  0
O  O55  1  0.60286057  0.70919088  0.15503204  1  0  -0.349175  0  2.347243  0  0  -0.306472  0  2.609242  0  0  -0.325665  0  2.614358  0  0  -0.210375  -0.291993  0  2.60448  0
O  O56  1  0.39713942  0.29080567  0.84497125  1  0  -0.349185  0  2.347064  0  0  -0.306556  0  2.609117  0  0  -0.325754  0  2.614238  0  0  -0.210417  -0.292076  0  2.604354  0
O  O57  1  0.53119492  0.80531458  0.66369497  1  0  -0.886908  0  1.926853  0  0  -0.864859  0  2.12636  0  0  -0.892074  0  2.094705  0  0  -0.621552  -0.844605  0  2.148346  0
O  O58  1  0.46878874  0.19468067  0.33629489  1  0  -0.886415  0  1.927292  0  0  -0.864492  0  2.126605  0  0  -0.89169  0  2.095029  0  0  -0.621275  -0.844286  0  2.148506  0
