# generated using pymatgen
data_ZnH6C8O5
_symmetry_space_group_name_H-M   'P 1'
_cell_length_a   6.61692912
_cell_length_b   12.13046788
_cell_length_c   16.57351868
_cell_angle_alpha   90.00063349
_cell_angle_beta   90.00038924
_cell_angle_gamma   98.16531470
_symmetry_Int_Tables_number   1
_chemical_formula_structural   ZnH6C8O5
_chemical_formula_sum   'Zn4 H24 C32 O20'
_cell_volume   1316.81141284
_cell_formula_units_Z   4
loop_
 _symmetry_equiv_pos_site_id
 _symmetry_equiv_pos_as_xyz
  1  'x, y, z'
loop_
 _atom_site_type_symbol
 _atom_site_label
 _atom_site_symmetry_multiplicity
 _atom_site_fract_x
 _atom_site_fract_y
 _atom_site_fract_z
 _atom_site_occupancy
 _atom_site_hle17_bader_spin_density
 _atom_site_hle17_ddec_charge
 _atom_site_hle17_ddec_spin_density
 _atom_site_hle17_ddec_sum_bond_order
 _atom_site_hle17_magmom
 _atom_site_hse06_10hf_bader_spin_density
 _atom_site_hse06_10hf_ddec_charge
 _atom_site_hse06_10hf_ddec_spin_density
 _atom_site_hse06_10hf_ddec_sum_bond_order
 _atom_site_hse06_10hf_magmom
 _atom_site_hse06_bader_spin_density
 _atom_site_hse06_ddec_charge
 _atom_site_hse06_ddec_spin_density
 _atom_site_hse06_ddec_sum_bond_order
 _atom_site_hse06_magmom
 _atom_site_pbe_bader_spin_density
 _atom_site_pbe_cm5_charge
 _atom_site_pbe_ddec_charge
 _atom_site_pbe_ddec_spin_density
 _atom_site_pbe_ddec_sum_bond_order
 _atom_site_pbe_magmom
Zn  Zn0  1  0.30919608  0.92855690  0.99763482  1  0  1.12106  0  1.778091  0  0  0.954822  0  2.24552  0  0  1.008956  0  2.174643  0  0  0.665464  0.916906  0  2.294195  0
Zn  Zn1  1  0.19080072  0.57143663  0.49763136  1  0  1.120944  0  1.778167  0  0  0.954713  0  2.245589  0  0  1.008851  0  2.174712  0  0  0.665398  0.916789  0  2.294275  0
Zn  Zn2  1  0.69080909  0.07144057  0.00236100  1  0  1.121086  0  1.778144  0  0  0.954906  0  2.245582  0  0  1.009041  0  2.1747  0  0  0.665511  0.916983  0  2.29427  0
Zn  Zn3  1  0.80919311  0.42855858  0.50235842  1  0  1.121036  0  1.77806  0  0  0.954832  0  2.245472  0  0  1.008968  0  2.174593  0  0  0.665495  0.916909  0  2.294157  0
H  H4  1  0.98327086  0.88432342  0.17599107  1  0  0.105444  0  0.95816  0  0  0.112368  0  1.024014  0  0  0.116064  0  1.021431  0  0  0.10451  0.109683  0  1.025945  0
H  H5  1  0.51674292  0.61567253  0.67598578  1  0  0.105409  0  0.958419  0  0  0.11236  0  1.024243  0  0  0.116014  0  1.021715  0  0  0.104484  0.109686  0  1.026164  0
H  H6  1  0.01671924  0.11568780  0.82401199  1  0  0.105482  0  0.958282  0  0  0.112429  0  1.024102  0  0  0.116084  0  1.021571  0  0  0.104521  0.109742  0  1.026032  0
H  H7  1  0.48327376  0.38430959  0.32401910  1  0  0.105432  0  0.958371  0  0  0.112401  0  1.024163  0  0  0.116056  0  1.021641  0  0  0.10449  0.109717  0  1.026099  0
H  H8  1  0.10133200  0.77752997  0.29126915  1  0  0.109986  0  0.933452  0  0  0.119633  0  0.990392  0  0  0.123397  0  0.988193  0  0  0.110614  0.11686  0  0.992131  0
H  H9  1  0.39865610  0.72246104  0.79126574  1  0  0.10993  0  0.93348  0  0  0.119585  0  0.990441  0  0  0.123357  0  0.988239  0  0  0.110587  0.116829  0  0.992161  0
H  H10  1  0.89862124  0.22247956  0.70873633  1  0  0.109826  0  0.933151  0  0  0.119425  0  0.990212  0  0  0.12322  0  0.987981  0  0  0.110465  0.116651  0  0.991942  0
H  H11  1  0.60137216  0.27751495  0.20874819  1  0  0.10992  0  0.933484  0  0  0.119562  0  0.990449  0  0  0.123344  0  0.98823  0  0  0.110551  0.116787  0  0.992185  0
H  H12  1  0.50994018  0.57707459  0.30206863  1  0  0.102209  0  0.954886  0  0  0.111097  0  1.017323  0  0  0.114527  0  1.01521  0  0  0.105612  0.108576  0  1.018972  0
H  H13  1  0.99003891  0.92294274  0.80206830  1  0  0.102225  0  0.954739  0  0  0.111128  0  1.017183  0  0  0.114554  0  1.015075  0  0  0.105617  0.108607  0  1.01883  0
H  H14  1  0.49003840  0.42295198  0.69793503  1  0  0.102314  0  0.954496  0  0  0.111093  0  1.017056  0  0  0.114496  0  1.014971  0  0  0.105638  0.108566  0  1.018702  0
H  H15  1  0.01000124  0.07703717  0.19793959  1  0  0.102237  0  0.954799  0  0  0.111163  0  1.01719  0  0  0.114605  0  1.015065  0  0  0.105678  0.108638  0  1.018844  0
H  H16  1  0.39122033  0.68445545  0.18710358  1  0  0.10945  0  0.932932  0  0  0.118698  0  0.990434  0  0  0.122412  0  0.988282  0  0  0.111006  0.116041  0  0.99203  0
H  H17  1  0.10876171  0.81556325  0.68710016  1  0  0.109566  0  0.932757  0  0  0.118862  0  0.9902  0  0  0.122582  0  0.988039  0  0  0.111016  0.1162  0  0.991805  0
H  H18  1  0.60876954  0.31556416  0.81290491  1  0  0.109463  0  0.932482  0  0  0.118797  0  0.989896  0  0  0.122515  0  0.987741  0  0  0.110979  0.116129  0  0.991501  0
H  H19  1  0.89125147  0.18442649  0.31289988  1  0  0.109653  0  0.932834  0  0  0.118946  0  0.990253  0  0  0.122666  0  0.988089  0  0  0.111074  0.116283  0  0.991858  0
H  H20  1  0.93347256  0.87707880  0.03319752  1  0  0.424775  0  0.870788  0  0  0.395411  0  0.938303  0  0  0.405575  0  0.923776  0  0  0.30006  0.388229  0  0.948559  0
H  H21  1  0.56650804  0.62292885  0.53320328  1  0  0.424727  0  0.870794  0  0  0.395378  0  0.938344  0  0  0.405544  0  0.923813  0  0  0.299999  0.388197  0  0.948598  0
H  H22  1  0.06653139  0.12291954  0.96680192  1  0  0.424735  0  0.870859  0  0  0.395363  0  0.93838  0  0  0.405528  0  0.923851  0  0  0.300019  0.388181  0  0.948635  0
H  H23  1  0.43348684  0.37708310  0.46679677  1  0  0.424791  0  0.870759  0  0  0.395415  0  0.938301  0  0  0.405581  0  0.923769  0  0  0.300065  0.388229  0  0.948562  0
H  H24  1  0.95013245  0.89084212  0.94194487  1  0  0.421714  0  0.864866  0  0  0.392654  0  0.939371  0  0  0.402513  0  0.925206  0  0  0.301572  0.385655  0  0.948009  0
H  H25  1  0.54984690  0.60916923  0.44195160  1  0  0.421809  0  0.864706  0  0  0.392748  0  0.939234  0  0  0.402607  0  0.925067  0  0  0.301608  0.385751  0  0.947851  0
H  H26  1  0.04987361  0.10916706  0.05805698  1  0  0.421801  0  0.864756  0  0  0.392703  0  0.939318  0  0  0.402563  0  0.925149  0  0  0.301589  0.385704  0  0.94797  0
H  H27  1  0.45012540  0.39083401  0.55805327  1  0  0.421749  0  0.864844  0  0  0.392674  0  0.939355  0  0  0.402539  0  0.92518  0  0  0.30156  0.385681  0  0.948004  0
C  C28  1  0.67932030  0.79089614  0.17479681  1  0  -0.060199  0  3.745256  0  0  -0.038681  0  3.978178  0  0  -0.046465  0  4.00189  0  0  -0.014466  -0.033518  0  3.962116  0
C  C29  1  0.82071057  0.70911031  0.67479007  1  0  -0.060044  0  3.745193  0  0  -0.038462  0  3.978129  0  0  -0.046245  0  4.001825  0  0  -0.01433  -0.033304  0  3.962071  0
C  C30  1  0.32068737  0.20910882  0.82520866  1  0  -0.059728  0  3.745495  0  0  -0.038242  0  3.978494  0  0  -0.046024  0  4.00219  0  0  -0.014382  -0.033087  0  3.962429  0
C  C31  1  0.17931367  0.29088087  0.32519911  1  0  -0.059999  0  3.744712  0  0  -0.038459  0  3.977636  0  0  -0.046245  0  4.001351  0  0  -0.014362  -0.033301  0  3.961566  0
C  C32  1  0.88011620  0.81680421  0.20364200  1  0  -0.066521  0  3.71284  0  0  -0.08977  0  3.961894  0  0  -0.090899  0  3.982685  0  0  -0.079492  -0.088889  0  3.947776  0
C  C33  1  0.61987605  0.68318934  0.70363813  1  0  -0.066617  0  3.712996  0  0  -0.089873  0  3.962041  0  0  -0.090975  0  3.982855  0  0  -0.079543  -0.088994  0  3.947926  0
C  C34  1  0.11987329  0.18319613  0.79636408  1  0  -0.066828  0  3.712743  0  0  -0.090071  0  3.961792  0  0  -0.091174  0  3.982608  0  0  -0.079524  -0.089187  0  3.947673  0
C  C35  1  0.38015214  0.31680007  0.29636071  1  0  -0.066499  0  3.712863  0  0  -0.089809  0  3.96194  0  0  -0.090918  0  3.982753  0  0  -0.079472  -0.088929  0  3.947828  0
C  C36  1  0.94663579  0.75747181  0.26781530  1  0  -0.05909  0  3.720235  0  0  -0.082593  0  3.966764  0  0  -0.083644  0  3.987367  0  0  -0.076315  -0.081773  0  3.952795  0
C  C37  1  0.55336737  0.74251506  0.76780329  1  0  -0.059066  0  3.72005  0  0  -0.082612  0  3.966628  0  0  -0.083678  0  3.987228  0  0  -0.07638  -0.081806  0  3.952662  0
C  C38  1  0.05337138  0.24254071  0.73219138  1  0  -0.058939  0  3.719559  0  0  -0.082394  0  3.966145  0  0  -0.08347  0  3.98674  0  0  -0.076234  -0.08158  0  3.952175  0
C  C39  1  0.44665643  0.25747026  0.23219675  1  0  -0.058989  0  3.720014  0  0  -0.08245  0  3.966545  0  0  -0.083513  0  3.987133  0  0  -0.076282  -0.081632  0  3.952578  0
C  C40  1  0.81317021  0.67137482  0.30389100  1  0  -0.061515  0  3.745664  0  0  -0.039529  0  3.978584  0  0  -0.047202  0  4.002222  0  0  -0.01361  -0.034441  0  3.962541  0
C  C41  1  0.68684156  0.82864517  0.80388970  1  0  -0.061953  0  3.745819  0  0  -0.039918  0  3.978706  0  0  -0.047595  0  4.002343  0  0  -0.013655  -0.034832  0  3.962672  0
C  C42  1  0.18681204  0.32864915  0.69609517  1  0  -0.061594  0  3.746319  0  0  -0.039662  0  3.979195  0  0  -0.047343  0  4.002821  0  0  -0.013579  -0.034575  0  3.963165  0
C  C43  1  0.31318412  0.17135939  0.19610853  1  0  -0.061938  0  3.745805  0  0  -0.040011  0  3.97882  0  0  -0.047685  0  4.002453  0  0  -0.013727  -0.034922  0  3.96278  0
C  C44  1  0.61311376  0.64455984  0.27437245  1  0  -0.067362  0  3.718933  0  0  -0.090756  0  3.966958  0  0  -0.091891  0  3.987873  0  0  -0.080377  -0.089851  0  3.95274  0
C  C45  1  0.88686156  0.85545207  0.77437432  1  0  -0.066972  0  3.718906  0  0  -0.090402  0  3.966891  0  0  -0.091527  0  3.987812  0  0  -0.080351  -0.089493  0  3.952661  0
C  C46  1  0.38683642  0.35544054  0.72562578  1  0  -0.067353  0  3.718485  0  0  -0.090623  0  3.966449  0  0  -0.091725  0  3.987363  0  0  -0.080346  -0.089717  0  3.952225  0
C  C47  1  0.11315767  0.14454676  0.22562392  1  0  -0.067135  0  3.719039  0  0  -0.09053  0  3.967006  0  0  -0.091668  0  3.987922  0  0  -0.080506  -0.089629  0  3.952789  0
C  C48  1  0.54636427  0.70400554  0.21024742  1  0  -0.059571  0  3.718674  0  0  -0.082739  0  3.966055  0  0  -0.083659  0  3.986571  0  0  -0.075446  -0.082052  0  3.95211  0
C  C49  1  0.95362123  0.79599918  0.71023691  1  0  -0.059916  0  3.718779  0  0  -0.083145  0  3.966161  0  0  -0.084063  0  3.986674  0  0  -0.075428  -0.082457  0  3.952215  0
C  C50  1  0.45360854  0.29599014  0.78975987  1  0  -0.059795  0  3.718472  0  0  -0.083026  0  3.965799  0  0  -0.083946  0  3.986306  0  0  -0.075399  -0.082338  0  3.951849  0
C  C51  1  0.04636860  0.20398858  0.28975228  1  0  -0.059954  0  3.718662  0  0  -0.083198  0  3.966058  0  0  -0.084119  0  3.98658  0  0  -0.075442  -0.082507  0  3.95211  0
C  C52  1  0.60704086  0.85763786  0.10759219  1  0  0.669824  0  3.859041  0  0  0.617981  0  4.148094  0  0  0.653776  0  4.140246  0  0  0.222519  0.593722  0  4.152573  0
C  C53  1  0.89295676  0.64236733  0.60758992  1  0  0.670022  0  3.859113  0  0  0.618005  0  4.148377  0  0  0.653799  0  4.14053  0  0  0.222417  0.593751  0  4.152845  0
C  C54  1  0.39293884  0.14236940  0.89239518  1  0  0.669911  0  3.85879  0  0  0.617989  0  4.147947  0  0  0.653786  0  4.140093  0  0  0.22244  0.593731  0  4.152421  0
C  C55  1  0.10704969  0.35763849  0.39240228  1  0  0.66979  0  3.858823  0  0  0.617975  0  4.147809  0  0  0.653767  0  4.139968  0  0  0.222496  0.59372  0  4.152277  0
C  C56  1  0.88262707  0.60976256  0.37457830  1  0  0.667979  0  3.861918  0  0  0.615099  0  4.152972  0  0  0.650958  0  4.145137  0  0  0.221531  0.590796  0  4.15743  0
C  C57  1  0.61732954  0.89022466  0.87457913  1  0  0.668488  0  3.861785  0  0  0.615652  0  4.152757  0  0  0.651519  0  4.144903  0  0  0.221734  0.591358  0  4.157217  0
C  C58  1  0.11734925  0.39022549  0.62543320  1  0  0.668544  0  3.862445  0  0  0.61579  0  4.153289  0  0  0.651657  0  4.145424  0  0  0.221696  0.591489  0  4.157761  0
C  C59  1  0.38268381  0.10977011  0.12542876  1  0  0.668373  0  3.860698  0  0  0.615511  0  4.151756  0  0  0.651359  0  4.143943  0  0  0.221683  0.591207  0  4.156217  0
O  O60  1  0.42325511  0.83520260  0.08413938  1  0  -0.599535  0  2.026659  0  0  -0.534374  0  2.275503  0  0  -0.563382  0  2.261652  0  0  -0.300936  -0.514319  0  2.284364  0
O  O61  1  0.07674939  0.66478868  0.58414672  1  0  -0.599571  0  2.026583  0  0  -0.53434  0  2.275478  0  0  -0.563352  0  2.261635  0  0  -0.300838  -0.514281  0  2.284332  0
O  O62  1  0.57674211  0.16478918  0.91585403  1  0  -0.599619  0  2.026415  0  0  -0.534433  0  2.275297  0  0  -0.563446  0  2.261446  0  0  -0.300876  -0.514372  0  2.284154  0
O  O63  1  0.92326323  0.33519940  0.41585997  1  0  -0.599449  0  2.026552  0  0  -0.534295  0  2.275367  0  0  -0.5633  0  2.261516  0  0  -0.300859  -0.51424  0  2.28423  0
O  O64  1  0.73863461  0.93504871  0.07766482  1  0  -0.690398  0  2.143681  0  0  -0.618867  0  2.399367  0  0  -0.648572  0  2.385144  0  0  -0.316693  -0.598176  0  2.408411  0
O  O65  1  0.76137675  0.56496739  0.57765433  1  0  -0.690553  0  2.143775  0  0  -0.618943  0  2.399533  0  0  -0.648643  0  2.3853  0  0  -0.31676  -0.598253  0  2.408569  0
O  O66  1  0.26137228  0.06496297  0.92233704  1  0  -0.690521  0  2.143435  0  0  -0.618943  0  2.399166  0  0  -0.648645  0  2.384935  0  0  -0.31675  -0.598259  0  2.408211  0
O  O67  1  0.23865421  0.43505297  0.42232882  1  0  -0.6904  0  2.143535  0  0  -0.618868  0  2.399225  0  0  -0.648568  0  2.384994  0  0  -0.316701  -0.598178  0  2.408268  0
O  O68  1  0.74970199  0.53529653  0.40681419  1  0  -0.678047  0  2.126689  0  0  -0.60694  0  2.383296  0  0  -0.6367  0  2.369493  0  0  -0.313995  -0.586232  0  2.391955  0
O  O69  1  0.75025398  0.96469630  0.90681658  1  0  -0.678295  0  2.12667  0  0  -0.607167  0  2.383235  0  0  -0.636934  0  2.369427  0  0  -0.314132  -0.586459  0  2.391897  0
O  O70  1  0.25024525  0.46469050  0.59318042  1  0  -0.678409  0  2.12655  0  0  -0.607328  0  2.383095  0  0  -0.63709  0  2.369275  0  0  -0.31416  -0.586623  0  2.391765  0
O  O71  1  0.24976220  0.03529338  0.09318045  1  0  -0.67842  0  2.126219  0  0  -0.607145  0  2.382696  0  0  -0.636909  0  2.368902  0  0  -0.314157  -0.586436  0  2.391358  0
O  O72  1  0.06513105  0.63549117  0.39898916  1  0  -0.609981  0  2.038077  0  0  -0.543667  0  2.290365  0  0  -0.572898  0  2.276093  0  0  -0.30334  -0.523414  0  2.299465  0
O  O73  1  0.43483631  0.86450049  0.89898217  1  0  -0.610034  0  2.037825  0  0  -0.543824  0  2.290161  0  0  -0.573051  0  2.275877  0  0  -0.303339  -0.523581  0  2.299273  0
O  O74  1  0.93485688  0.36452262  0.60101692  1  0  -0.61016  0  2.037932  0  0  -0.543944  0  2.290208  0  0  -0.573179  0  2.275928  0  0  -0.303424  -0.523697  0  2.29932  0
O  O75  1  0.56520339  0.13549621  0.10101727  1  0  -0.609955  0  2.037217  0  0  -0.54379  0  2.28962  0  0  -0.573017  0  2.275359  0  0  -0.303312  -0.52354  0  2.298722  0
O  O76  1  0.01777004  0.85667802  0.98711194  1  0  -0.780176  0  1.880718  0  0  -0.709825  0  2.079606  0  0  -0.732843  0  2.04543  0  0  -0.568213  -0.693758  0  2.102121  0
O  O77  1  0.48221190  0.64333495  0.48711708  1  0  -0.780152  0  1.88062  0  0  -0.709811  0  2.079481  0  0  -0.732831  0  2.04531  0  0  -0.568152  -0.693757  0  2.101983  0
O  O78  1  0.98222901  0.14332378  0.01288630  1  0  -0.780221  0  1.880687  0  0  -0.709831  0  2.079526  0  0  -0.732851  0  2.045349  0  0  -0.568201  -0.693773  0  2.102059  0
O  O79  1  0.51777886  0.35667374  0.51288417  1  0  -0.780232  0  1.880688  0  0  -0.709874  0  2.079563  0  0  -0.732896  0  2.045383  0  0  -0.568211  -0.693818  0  2.102099  0
