# generated using pymatgen
data_CuH16C20N2O5F4
_symmetry_space_group_name_H-M   'P 1'
_cell_length_a   7.47221749
_cell_length_b   11.66303317
_cell_length_c   11.66301556
_cell_angle_alpha   97.41624900
_cell_angle_beta   99.27913574
_cell_angle_gamma   99.28086040
_symmetry_Int_Tables_number   1
_chemical_formula_structural   CuH16C20N2O5F4
_chemical_formula_sum   'Cu2 H32 C40 N4 O10 F8'
_cell_volume   977.35598676
_cell_formula_units_Z   2
loop_
 _symmetry_equiv_pos_site_id
 _symmetry_equiv_pos_as_xyz
  1  'x, y, z'
loop_
 _atom_site_type_symbol
 _atom_site_label
 _atom_site_symmetry_multiplicity
 _atom_site_fract_x
 _atom_site_fract_y
 _atom_site_fract_z
 _atom_site_occupancy
 _atom_site_hle17_ddec_charge
 _atom_site_hle17_ddec_spin_density
 _atom_site_hle17_ddec_sum_bond_order
 _atom_site_hle17_magmom
 _atom_site_hse06_10hf_ddec_charge
 _atom_site_hse06_10hf_ddec_spin_density
 _atom_site_hse06_10hf_ddec_sum_bond_order
 _atom_site_hse06_10hf_magmom
 _atom_site_hse06_ddec_charge
 _atom_site_hse06_ddec_spin_density
 _atom_site_hse06_ddec_sum_bond_order
 _atom_site_hse06_magmom
 _atom_site_pbe_cm5_charge
 _atom_site_pbe_ddec_charge
 _atom_site_pbe_ddec_spin_density
 _atom_site_pbe_ddec_sum_bond_order
 _atom_site_pbe_magmom
Cu  Cu0  1  0.21632214  0.44690225  0.69215179  1  0.849138  0.728663  1.891828  0.498  0.83211  0.803026  2.289867  0.612  0.918871  0.885244  2.222273  0.703  0.758188  0.780604  0.741952  2.337008  0.551
Cu  Cu1  1  0.71631846  0.69214798  0.44690171  1  0.84906  -0.728594  1.89172  -0.498  0.832044  -0.803  2.289764  -0.612  0.918819  -0.885232  2.222166  -0.703  0.758155  0.780557  -0.741933  2.336881  -0.551
H  H2  1  0.98886449  0.42008870  0.12567622  1  0.094589  -0.000367  0.950688  -0.001  0.10264  -1.1e-05  1.014929  0.0  0.105602  -1.4e-05  1.013953  0.0  0.099852  0.100465  -5e-06  1.015847  0.0
H  H3  1  0.48886702  0.12566683  0.42008956  1  0.094473  0.00037  0.95076  0.001  0.10251  1e-05  1.015021  0.0  0.105469  1.4e-05  1.014047  0.0  0.099805  0.100339  5e-06  1.015931  0.0
H  H4  1  0.17808597  0.81704628  0.07650185  1  0.100737  0.000382  0.95255  0.001  0.109411  9.7e-05  1.013735  0.0  0.112297  3.8e-05  1.011071  0.0  0.103914  0.107273  0.000156  1.015719  0.0
H  H5  1  0.67808140  0.07650972  0.81704138  1  0.100887  -0.000381  0.952532  -0.001  0.109509  -9.7e-05  1.013752  0.0  0.112395  -3.8e-05  1.011088  0.0  0.10394  0.107372  -0.000156  1.015736  0.0
H  H6  1  0.09275591  0.82593012  0.52540042  1  0.050493  0.000395  0.941574  0.0  0.05604  0.000395  1.020719  0.0  0.057174  0.000375  1.017226  0.0  0.09852  0.054716  0.000386  1.023839  0.0
H  H7  1  0.59274796  0.52539393  0.82592484  1  0.050464  -0.000394  0.94157  0.0  0.056026  -0.000396  1.020729  0.0  0.05716  -0.000375  1.017231  0.0  0.098502  0.054709  -0.000386  1.023847  0.0
H  H8  1  0.33487210  0.83125918  0.55802682  1  0.06586  -2.7e-05  0.932928  0.0  0.079123  -1.6e-05  0.994741  0.0  0.079537  -1.1e-05  0.995237  0.0  0.103208  0.078714  -1.8e-05  0.994578  0.0
H  H9  1  0.83486255  0.55802207  0.83124551  1  0.065814  2.9e-05  0.93291  0.0  0.079093  1.6e-05  0.994744  0.0  0.079498  1.1e-05  0.995245  0.0  0.103212  0.07869  1.8e-05  0.99458  0.0
H  H10  1  0.86241153  0.22438640  0.17702904  1  0.09822  0.000524  0.954267  0.001  0.102091  0.000175  1.022767  0.0  0.105284  0.000101  1.019881  0.0  0.096585  0.099773  0.000242  1.024871  0.0
H  H11  1  0.36241338  0.17701502  0.22439135  1  0.098226  -0.000526  0.954294  -0.001  0.102093  -0.000175  1.022806  0.0  0.105286  -0.000101  1.01992  0.0  0.096573  0.099775  -0.000242  1.024907  0.0
H  H12  1  0.17273060  0.68911566  0.71178506  1  0.097796  0.000838  0.937029  0.002  0.105345  0.000657  1.00021  0.001  0.108494  0.000496  0.996576  0.001  0.123412  0.102847  0.000773  1.003007  0.002
H  H13  1  0.67272589  0.71178928  0.68912693  1  0.097794  -0.000836  0.937031  -0.002  0.105363  -0.000658  1.000171  -0.001  0.108508  -0.000496  0.996544  -0.001  0.123471  0.102862  -0.000773  1.002971  -0.002
H  H14  1  0.13972149  0.84913870  0.86393755  1  0.116231  0.000371  0.967636  0.0  0.126642  0.00036  1.025868  0.0  0.129574  0.000257  1.025324  0.0  0.108063  0.124549  0.000442  1.026436  0.0
H  H15  1  0.63971958  0.86394776  0.84914214  1  0.116198  -0.000372  0.967703  0.0  0.126615  -0.00036  1.025906  0.0  0.129548  -0.000257  1.025363  0.0  0.108046  0.124519  -0.000442  1.026478  0.0
H  H16  1  0.28144775  0.47146647  0.95801785  1  0.085519  0.000917  0.960484  0.002  0.091272  0.00073  1.026443  0.001  0.094104  0.000498  1.023436  0.001  0.114635  0.089132  0.000928  1.028682  0.002
H  H17  1  0.78145454  0.95801415  0.47146531  1  0.0856  -0.000919  0.96043  -0.002  0.091314  -0.00073  1.026416  -0.001  0.094145  -0.000498  1.02341  -0.001  0.114663  0.089172  -0.000928  1.028648  -0.002
H  H18  1  0.03898165  0.02778369  0.87127601  1  0.069973  -2e-06  0.948941  0.0  0.061572  1.5e-05  1.023227  0.0  0.063375  1.7e-05  1.020746  0.0  0.1112  0.060216  1.4e-05  1.025266  0.0
H  H19  1  0.53898850  0.87127510  0.02777247  1  0.069779  1e-06  0.949067  0.0  0.061469  -1.5e-05  1.023326  0.0  0.063276  -1.7e-05  1.020841  0.0  0.11114  0.060104  -1.4e-05  1.025363  0.0
H  H20  1  0.20195505  0.56998651  0.28272693  1  0.087186  0.000212  0.981747  0.0  0.096306  9.6e-05  1.046886  0.0  0.099531  4.7e-05  1.044401  0.0  0.098859  0.093936  0.00016  1.048644  0.0
H  H21  1  0.70195093  0.28271855  0.56998640  1  0.087084  -0.00021  0.981829  0.0  0.096274  -9.6e-05  1.046899  0.0  0.099503  -4.7e-05  1.044413  0.0  0.098855  0.093902  -0.00016  1.048663  0.0
H  H22  1  0.18160311  0.15266694  0.48383618  1  0.077995  0.007459  0.958111  0.009  0.084169  0.004768  1.02601  0.006  0.085599  0.003405  1.02174  0.004  0.121874  0.082947  0.005757  1.029152  0.007
H  H23  1  0.68160989  0.48382872  0.15266627  1  0.077926  -0.007461  0.958144  -0.009  0.08408  -0.004772  1.026067  -0.006  0.085509  -0.003408  1.021798  -0.004  0.121823  0.082855  -0.005761  1.029212  -0.007
H  H24  1  0.94737519  0.18338127  0.37761787  1  0.10077  -0.000528  0.965536  -0.001  0.108981  1.1e-05  1.028961  0.0  0.111645  -1.7e-05  1.027974  0.0  0.099396  0.107052  4e-05  1.029832  0.0
H  H25  1  0.44736682  0.37760404  0.18338440  1  0.100722  0.000528  0.965688  0.001  0.108909  -1.1e-05  1.029118  0.0  0.111571  1.7e-05  1.028138  0.0  0.099387  0.106978  -4e-05  1.029997  0.0
H  H26  1  0.20341530  0.75383937  0.34341737  1  0.110842  6.3e-05  0.963292  0.0  0.133077  8e-05  1.023769  0.0  0.133945  5.2e-05  1.024692  0.0  0.090851  0.132314  0.000108  1.023302  0.0
H  H27  1  0.70340686  0.34341080  0.75382903  1  0.110928  -6e-05  0.963278  0.0  0.133112  -8e-05  1.023813  0.0  0.133978  -5.2e-05  1.024739  0.0  0.090837  0.132355  -0.000108  1.023346  0.0
H  H28  1  0.36985302  0.88425954  0.36094135  1  0.111939  3.5e-05  0.951594  0.0  0.129694  3e-05  1.015876  0.0  0.131659  2.9e-05  1.015379  0.0  0.085127  0.128267  3e-05  1.016286  0.0
H  H29  1  0.86984446  0.36093970  0.88424690  1  0.112045  -3.8e-05  0.951508  0.0  0.129799  -3e-05  1.015788  0.0  0.131763  -2.9e-05  1.01529  0.0  0.085177  0.128386  -3e-05  1.016176  0.0
H  H30  1  0.13031120  0.89057793  0.32804130  1  0.100614  4.4e-05  0.966637  0.0  0.11593  4.9e-05  1.036122  0.0  0.117583  3.6e-05  1.035264  0.0  0.078333  0.114732  6.2e-05  1.036767  0.0
H  H31  1  0.63030305  0.32803444  0.89056872  1  0.100655  -4e-05  0.96671  0.0  0.116012  -4.9e-05  1.036122  0.0  0.117663  -3.6e-05  1.035265  0.0  0.078385  0.11482  -6.2e-05  1.036769  0.0
H  H32  1  0.25694534  0.62437584  0.12355520  1  0.098841  0.000445  0.958902  0.0  0.114255  0.000434  1.010817  0.0  0.11629  0.000326  1.011719  0.0  0.106602  0.112722  0.000513  1.010427  0.0
H  H33  1  0.75695674  0.12355620  0.62436928  1  0.098873  -0.000442  0.95878  0.0  0.114242  -0.000434  1.010764  0.0  0.116279  -0.000326  1.011658  0.0  0.106563  0.112707  -0.000513  1.010378  0.0
C  C34  1  0.21629555  0.15890411  0.66935967  1  -0.298745  0.003534  3.785303  0.005  -0.29791  0.001148  4.056916  0.003  -0.324291  0.000575  4.0799  0.002  -0.065067  -0.280615  0.001697  4.04154  0.003
C  C35  1  0.71629652  0.66935263  0.15889828  1  -0.298729  -0.003545  3.785103  -0.005  -0.29788  -0.001152  4.056585  -0.003  -0.324264  -0.00058  4.079574  -0.002  -0.06503  -0.28059  -0.001701  4.041209  -0.003
C  C36  1  0.27583333  0.17468474  0.89818325  1  0.383087  0.008665  3.616259  0.01  0.338179  0.006196  3.913643  0.007  0.351502  0.004389  3.903428  0.006  0.196401  0.328283  0.00769  3.921879  0.009
C  C37  1  0.77583677  0.89817505  0.17467180  1  0.382927  -0.008665  3.616274  -0.01  0.338066  -0.006197  3.91355  -0.007  0.351405  -0.004398  3.903334  -0.006  0.196532  0.328175  -0.007693  3.921749  -0.009
C  C38  1  0.02731319  0.40018049  0.21416994  1  -0.078276  0.015918  3.759339  0.014  -0.097759  0.003988  4.02462  0.004  -0.102684  0.003362  4.04692  0.003  -0.097188  -0.094709  0.004713  4.009588  0.004
C  C39  1  0.52730820  0.21415924  0.40018554  1  -0.078099  -0.01594  3.759132  -0.014  -0.097565  -0.003989  4.024417  -0.004  -0.102486  -0.003365  4.046714  -0.003  -0.097124  -0.094516  -0.004715  4.009377  -0.004
C  C40  1  0.19320859  0.74916056  0.00729734  1  -0.010496  -0.007993  3.726069  -0.007  -0.030315  -0.002538  3.976488  -0.002  -0.025834  -0.002765  3.994417  -0.003  -0.070524  -0.033016  -0.00232  3.964208  -0.002
C  C41  1  0.69320657  0.00730314  0.74915655  1  -0.010739  0.007994  3.726025  0.007  -0.030528  0.002538  3.976415  0.002  -0.026044  0.002765  3.994343  0.003  -0.070512  -0.033233  0.002319  3.964144  0.002
C  C42  1  0.19643392  0.46222870  0.41624198  1  -0.148755  0.010808  3.720085  0.01  -0.131433  0.003667  3.950751  0.004  -0.143235  0.003205  3.973963  0.004  -0.021216  -0.124565  0.004057  3.935816  0.004
C  C43  1  0.69643035  0.41623283  0.46222932  1  -0.148526  -0.010819  3.719999  -0.011  -0.131311  -0.003667  3.950665  -0.004  -0.143111  -0.00321  3.973879  -0.004  -0.021154  -0.124445  -0.004058  3.935737  -0.004
C  C44  1  0.13024423  0.35061281  0.44363500  1  0.205334  -0.006843  3.778114  -0.008  0.203315  -0.00017  4.021983  -0.001  0.212529  -0.001432  4.046657  -0.003  0.091679  0.197804  0.000989  4.005255  0.0
C  C45  1  0.63024018  0.44362776  0.35061190  1  0.20521  0.006847  3.777993  0.008  0.203172  0.000171  4.02192  0.001  0.212381  0.001438  4.046601  0.003  0.091639  0.197664  -0.000988  4.005191  0.0
C  C46  1  0.21128819  0.03036794  0.65030346  1  0.594096  -0.000862  3.869306  -0.001  0.538553  -0.000339  4.178131  0.0  0.573401  -0.000293  4.173093  0.0  0.219241  0.514987  -0.000354  4.180998  0.0
C  C47  1  0.71128797  0.65030072  0.03036139  1  0.59413  0.000869  3.869394  0.001  0.538577  0.00034  4.178196  0.0  0.573427  0.000295  4.173154  0.0  0.219209  0.51502  0.000354  4.181068  0.0
C  C48  1  0.22599104  0.86647059  0.50661191  1  0.159187  8.6e-05  3.571071  0.0  0.103717  0.000158  3.843108  0.0  0.113674  0.00016  3.847621  0.0  -0.069127  0.097024  0.000148  3.840321  0.0
C  C49  1  0.72598406  0.50660570  0.86646197  1  0.159324  -9e-05  3.570898  0.0  0.103789  -0.000159  3.843004  0.0  0.113768  -0.00016  3.84748  0.0  -0.069136  0.097099  -0.000148  3.840231  0.0
C  C50  1  0.95767417  0.29094463  0.24250806  1  -0.028515  -0.009485  3.743243  -0.009  -0.048707  -0.00132  4.006815  -0.001  -0.046986  -0.001683  4.026853  -0.002  -0.08419  -0.049528  -0.00101  3.99308  -0.001
C  C51  1  0.45767194  0.24249900  0.29094639  1  -0.028664  0.009501  3.743265  0.009  -0.048867  0.001319  4.006825  0.001  -0.047146  0.001686  4.026863  0.002  -0.084213  -0.049688  0.001011  3.993086  0.001
C  C52  1  0.19105258  0.67881422  0.80409156  1  0.14883  -0.006984  3.649123  -0.007  0.11944  -0.001207  3.899309  -0.002  0.130544  -0.00213  3.913822  -0.003  0.057343  0.112312  -0.000456  3.889897  -0.001
C  C53  1  0.69105036  0.80409489  0.67881723  1  0.148879  0.006984  3.649097  0.007  0.119495  0.001206  3.899276  0.002  0.130598  0.00213  3.913786  0.003  0.057291  0.11236  0.000456  3.889873  0.001
C  C54  1  0.17140388  0.76760484  0.89047985  1  -0.114812  0.008963  3.697529  0.009  -0.123576  0.003487  3.939337  0.004  -0.131585  0.003264  3.959532  0.004  -0.077944  -0.118428  0.003624  3.925728  0.004
C  C55  1  0.67139776  0.89048689  0.76760565  1  -0.114768  -0.008966  3.697438  -0.009  -0.123509  -0.003488  3.939188  -0.004  -0.131517  -0.003265  3.95938  -0.004  -0.077918  -0.118363  -0.003624  3.92559  -0.004
C  C56  1  0.25189810  0.55717802  0.94251637  1  0.123885  -0.005331  3.689881  -0.006  0.096216  1e-05  3.942398  -0.001  0.104304  -0.001136  3.962161  -0.002  0.045315  0.091325  0.000926  3.929096  0.0
C  C57  1  0.75190275  0.94251586  0.55717780  1  0.123673  0.005342  3.690026  0.006  0.096077  -1e-05  3.942517  0.001  0.104161  0.001136  3.962281  0.002  0.045261  0.091191  -0.000927  3.9292  0.0
C  C58  1  0.10955270  0.10390599  0.93728976  1  0.342679  -5.6e-05  3.636333  0.0  0.270029  -9e-05  3.959709  0.0  0.28872  -0.00013  3.943857  0.0  0.123777  0.256625  -4.4e-05  3.971754  0.0
C  C59  1  0.60956265  0.93728607  0.10389479  1  0.343079  5.5e-05  3.636002  0.0  0.270176  9e-05  3.959763  0.0  0.288856  0.000132  3.943912  0.0  0.123764  0.256803  4.4e-05  3.971752  0.0
C  C60  1  0.14432574  0.48393158  0.30111765  1  -0.057771  -0.007091  3.757782  -0.007  -0.084094  -0.001273  4.012892  -0.002  -0.083223  -0.00173  4.03444  -0.002  -0.086469  -0.084208  -0.000821  3.998292  -0.001
C  C61  1  0.64431967  0.30111020  0.48393091  1  -0.057764  0.00709  3.757803  0.007  -0.084117  0.001272  4.012905  0.002  -0.083251  0.001732  4.034453  0.002  -0.086505  -0.08423  0.000821  3.998311  0.001
C  C62  1  0.22839691  0.22418868  0.78166917  1  0.290272  -0.009788  3.758758  -0.011  0.272045  -0.001197  4.020346  -0.003  0.299199  -0.001943  4.02736  -0.003  0.1181  0.253628  -0.000238  4.015655  -0.003
C  C63  1  0.72839681  0.78166661  0.22418796  1  0.290177  0.009778  3.759106  0.011  0.272101  0.001198  4.020429  0.003  0.299248  0.001944  4.027441  0.003  0.118094  0.253686  0.000237  4.015731  0.003
C  C64  1  0.19245308  0.21249107  0.56593250  1  0.19647  -0.017669  3.696382  -0.017  0.152785  -0.00372  3.96705  -0.005  0.17706  -0.005064  3.975931  -0.006  0.066497  0.136824  -0.002317  3.961351  -0.003
C  C65  1  0.69245399  0.56592568  0.21249499  1  0.19663  0.01765  3.696572  0.017  0.152968  0.003717  3.967178  0.005  0.177244  0.005064  3.976057  0.006  0.066557  0.137011  0.002316  3.961482  0.003
C  C66  1  0.32730239  0.55957744  0.49997306  1  0.656229  -0.005117  3.87989  -0.009  0.619057  -1.1e-05  4.176937  -0.003  0.659758  -0.000201  4.16784  -0.002  0.206909  0.591358  0.000226  4.182111  -0.003
C  C67  1  0.82729036  0.49997544  0.55956767  1  0.656008  0.005129  3.879621  0.009  0.619094  1.4e-05  4.176343  0.003  0.659792  0.000203  4.167256  0.002  0.206913  0.591398  -0.000223  4.18152  0.003
C  C68  1  0.00803861  0.26710457  0.35579202  1  -0.149107  0.019094  3.716307  0.018  -0.169743  0.006084  3.970691  0.006  -0.176782  0.005088  3.993691  0.005  -0.091302  -0.165181  0.006887  3.954937  0.007
C  C69  1  0.50803305  0.35577956  0.26710591  1  -0.148866  -0.019099  3.716429  -0.018  -0.16945  -0.006083  3.970799  -0.006  -0.176487  -0.005092  3.993799  -0.005  -0.091221  -0.164892  -0.006886  3.955054  -0.007
C  C70  1  0.23261302  0.84847073  0.37685621  1  -0.320492  0.000184  3.698882  0.0  -0.3981  0.000189  3.947141  0.0  -0.401359  0.000136  3.956205  0.0  -0.255834  -0.395634  0.000243  3.940979  0.0
C  C71  1  0.73260480  0.37685110  0.84846037  1  -0.320782  -0.000189  3.698884  0.0  -0.398378  -0.000189  3.947168  0.0  -0.401641  -0.000135  3.956234  0.0  -0.255931  -0.395907  -0.000243  3.941011  0.0
C  C72  1  0.23579434  0.64229943  0.03353394  1  -0.12195  0.009362  3.744839  0.01  -0.132813  0.003804  3.991255  0.005  -0.141475  0.003474  4.014983  0.004  -0.086247  -0.127162  0.004022  3.975099  0.005
C  C73  1  0.73579648  0.03353490  0.64229595  1  -0.121786  -0.009373  3.744842  -0.01  -0.132619  -0.003804  3.991234  -0.005  -0.141279  -0.003474  4.014961  -0.004  -0.086201  -0.126975  -0.004021  3.975084  -0.005
N  N74  1  0.18128035  0.32221299  0.55730213  1  -0.361113  0.103989  3.307001  0.124  -0.323511  0.064407  3.614008  0.083  -0.359683  0.053468  3.631342  0.073  -0.365507  -0.302509  0.069499  3.604532  0.086
N  N75  1  0.68128010  0.55729649  0.32220733  1  -0.361208  -0.103987  3.307233  -0.124  -0.323614  -0.064412  3.614242  -0.083  -0.35979  -0.053472  3.631569  -0.073  -0.365521  -0.302616  -0.069501  3.604776  -0.086
N  N76  1  0.22921843  0.57498958  0.82969490  1  -0.298794  0.067529  3.312485  0.079  -0.245776  0.047769  3.599857  0.061  -0.274056  0.041085  3.619217  0.055  -0.344607  -0.229223  0.050676  3.588773  0.062
N  N77  1  0.72921709  0.82969369  0.57499277  1  -0.298794  -0.067531  3.312542  -0.079  -0.245833  -0.047769  3.599954  -0.061  -0.274112  -0.041086  3.619304  -0.055  -0.344602  -0.229279  -0.050673  3.588865  -0.062
O  O78  1  0.25404489  0.99336764  0.54490422  1  -0.343783  0.00077  2.288933  0.001  -0.266468  0.000509  2.528489  0.001  -0.289695  0.000327  2.528349  0.0  -0.174264  -0.250414  0.000678  2.528128  0.001
O  O79  1  0.75404204  0.54489763  0.99335985  1  -0.34388  -0.000771  2.288721  -0.001  -0.266565  -0.000507  2.528306  -0.001  -0.28979  -0.000328  2.52815  0.0  -0.174272  -0.250536  -0.000678  2.527969  -0.001
O  O80  1  0.16592869  0.96233946  0.71735200  1  -0.548144  -6e-06  1.993515  0.0  -0.510815  -0.000241  2.225412  0.0  -0.532451  -0.000216  2.220479  0.0  -0.290618  -0.495985  -0.000229  2.228495  0.0
O  O81  1  0.66593222  0.71734233  0.96233854  1  -0.548106  2e-06  1.993859  0.0  -0.510813  0.000237  2.225805  0.0  -0.532449  0.000214  2.220866  0.0  -0.290585  -0.495979  0.000229  2.228886  0.0
O  O82  1  0.20958658  0.33095910  0.80089889  1  -0.476275  0.054801  2.200341  0.07  -0.448521  0.04485  2.480267  0.064  -0.483221  0.034894  2.472056  0.052  -0.288919  -0.425888  0.051882  2.486243  0.071
O  O83  1  0.70958786  0.80089648  0.33094958  1  -0.476201  -0.054794  2.200591  -0.07  -0.448557  -0.044849  2.480527  -0.064  -0.483254  -0.034885  2.472301  -0.052  -0.288955  -0.425925  -0.051877  2.486503  -0.071
O  O84  1  0.34830070  0.56081395  0.61235154  1  -0.591453  0.113842  2.07102  0.145  -0.580756  0.067182  2.369474  0.096  -0.625419  0.049777  2.358783  0.075  -0.328197  -0.551005  0.07841  2.376596  0.107
O  O85  1  0.84829307  0.61234356  0.56081096  1  -0.591272  -0.113826  2.071367  -0.145  -0.580655  -0.067179  2.369689  -0.096  -0.625296  -0.049773  2.358965  -0.075  -0.328169  -0.550915  -0.078399  2.376824  -0.107
O  O86  1  0.41245533  0.64096600  0.45733378  1  -0.614661  0.022058  2.03718  0.026  -0.58791  0.009259  2.300881  0.012  -0.620026  0.004902  2.290504  0.006  -0.319127  -0.564614  0.014344  2.307108  0.018
O  O87  1  0.91246168  0.45732671  0.64096761  1  -0.614668  -0.022108  2.036211  -0.026  -0.588059  -0.009273  2.29985  -0.012  -0.620185  -0.004907  2.289488  -0.006  -0.319169  -0.564757  -0.014364  2.306076  -0.018
F  F88  1  0.40939024  0.10682322  0.89287914  1  -0.210984  0.001008  1.222025  0.001  -0.17654  0.001294  1.396489  0.002  -0.185423  0.000828  1.384477  0.001  -0.09709  -0.170013  0.001784  1.404955  0.002
F  F89  1  0.90938757  0.89286579  0.10680630  1  -0.210958  -0.001007  1.222055  -0.001  -0.17651  -0.001294  1.396497  -0.002  -0.185401  -0.000828  1.384487  -0.001  -0.09714  -0.169989  -0.001784  1.404958  -0.002
F  F90  1  0.35142332  0.26873367  0.98701587  1  -0.224073  -9e-05  1.196049  0.0  -0.176171  -3e-06  1.358244  0.0  -0.183982  -4e-05  1.344875  0.0  -0.099303  -0.170383  5.3e-05  1.367619  0.0
F  F91  1  0.85143538  0.98701081  0.26871558  1  -0.223989  9.3e-05  1.196005  0.0  -0.176118  2e-06  1.358207  0.0  -0.183936  4.1e-05  1.344837  0.0  -0.099311  -0.170339  -5.3e-05  1.367578  0.0
F  F92  1  0.98833449  0.17837633  0.95770606  1  -0.212113  -3e-06  1.180012  0.0  -0.166282  1.4e-05  1.345514  0.0  -0.176427  1.1e-05  1.332471  0.0  -0.104553  -0.158878  2.4e-05  1.35457  0.0
F  F93  1  0.48834588  0.95770738  0.17836577  1  -0.212085  3e-06  1.179822  0.0  -0.166228  -1.6e-05  1.345447  0.0  -0.176372  -1.1e-05  1.332408  0.0  -0.104509  -0.158836  -2.4e-05  1.354489  0.0
F  F94  1  0.17061220  0.06700795  0.04156984  1  -0.206525  0.00014  1.187075  0.0  -0.164773  6.7e-05  1.354992  0.0  -0.173402  2.6e-05  1.339746  0.0  -0.106599  -0.158455  0.000101  1.365666  0.0
F  F95  1  0.67063602  0.04156480  0.06699801  1  -0.206657  -0.000138  1.187009  0.0  -0.164825  -6.7e-05  1.355018  0.0  -0.173452  -2.7e-05  1.339771  0.0  -0.106602  -0.15852  -0.000101  1.365684  0.0
