# generated using pymatgen
data_MoH11C9(NO)3
_symmetry_space_group_name_H-M   'P 1'
_cell_length_a   10.34392301
_cell_length_b   10.34391717
_cell_length_c   10.48299244
_cell_angle_alpha   90.00002356
_cell_angle_beta   89.99997846
_cell_angle_gamma   106.74487826
_symmetry_Int_Tables_number   1
_chemical_formula_structural   MoH11C9(NO)3
_chemical_formula_sum   'Mo4 H44 C36 N12 O12'
_cell_volume   1074.08441971
_cell_formula_units_Z   4
loop_
 _symmetry_equiv_pos_site_id
 _symmetry_equiv_pos_as_xyz
  1  'x, y, z'
loop_
 _atom_site_type_symbol
 _atom_site_label
 _atom_site_symmetry_multiplicity
 _atom_site_fract_x
 _atom_site_fract_y
 _atom_site_fract_z
 _atom_site_occupancy
 _atom_site_hle17_bader_spin_density
 _atom_site_hle17_ddec_charge
 _atom_site_hle17_ddec_spin_density
 _atom_site_hle17_ddec_sum_bond_order
 _atom_site_hle17_magmom
 _atom_site_hse06_10hf_bader_spin_density
 _atom_site_hse06_10hf_ddec_charge
 _atom_site_hse06_10hf_ddec_spin_density
 _atom_site_hse06_10hf_ddec_sum_bond_order
 _atom_site_hse06_10hf_magmom
 _atom_site_hse06_bader_spin_density
 _atom_site_hse06_ddec_charge
 _atom_site_hse06_ddec_spin_density
 _atom_site_hse06_ddec_sum_bond_order
 _atom_site_hse06_magmom
 _atom_site_pbe_bader_spin_density
 _atom_site_pbe_cm5_charge
 _atom_site_pbe_ddec_charge
 _atom_site_pbe_ddec_spin_density
 _atom_site_pbe_ddec_sum_bond_order
 _atom_site_pbe_magmom
Mo  Mo0  1  0.10157405  0.60157482  0.64049470  1  0  2.095182  0  4.237391  0  0  2.083542  0  4.803723  0  0  2.184698  0  4.771362  0  0  1.539367  2.008756  0  4.83366  0
Mo  Mo1  1  0.39842605  0.89842556  0.64049470  1  0  2.0952  0  4.237386  0  0  2.083552  0  4.803717  0  0  2.184712  0  4.771353  0  0  1.539376  2.008769  0  4.83367  0
Mo  Mo2  1  0.89842571  0.39842632  0.35950509  1  0  2.095161  0  4.23741  0  0  2.083512  0  4.803745  0  0  2.18467  0  4.771382  0  0  1.539353  2.008733  0  4.833665  0
Mo  Mo3  1  0.60157439  0.10157457  0.35950508  1  0  2.095192  0  4.237415  0  0  2.083555  0  4.803729  0  0  2.184712  0  4.771375  0  0  1.539367  2.008772  0  4.833654  0
H  H4  1  0.94671467  0.70966569  0.36097037  1  0  0.126233  0  0.973418  0  0  0.134792  0  1.036135  0  0  0.138719  0  1.031083  0  0  0.143641  0.132131  0  1.039352  0
H  H5  1  0.55328300  0.79033538  0.36096951  1  0  0.12625  0  0.973395  0  0  0.134799  0  1.03611  0  0  0.138727  0  1.031057  0  0  0.14365  0.132137  0  1.039325  0
H  H6  1  0.79033509  0.55328239  0.63903028  1  0  0.126233  0  0.973349  0  0  0.134787  0  1.03607  0  0  0.138717  0  1.031015  0  0  0.143648  0.132127  0  1.039283  0
H  H7  1  0.70966481  0.94671676  0.63903038  1  0  0.126252  0  0.973403  0  0  0.134798  0  1.036128  0  0  0.138729  0  1.031073  0  0  0.143649  0.13214  0  1.039341  0
H  H8  1  0.05328287  0.29033444  0.63903037  1  0  0.126264  0  0.973368  0  0  0.134819  0  1.036083  0  0  0.138748  0  1.031028  0  0  0.14366  0.13216  0  1.039298  0
H  H9  1  0.44671743  0.20966475  0.63903028  1  0  0.126255  0  0.973384  0  0  0.134811  0  1.036104  0  0  0.13874  0  1.03105  0  0  0.143654  0.132152  0  1.039319  0
H  H10  1  0.20966534  0.44671774  0.36096950  1  0  0.126258  0  0.973383  0  0  0.134809  0  1.036099  0  0  0.138737  0  1.031046  0  0  0.143659  0.13215  0  1.039316  0
H  H11  1  0.29033504  0.05328135  0.36096941  1  0  0.12626  0  0.97333  0  0  0.134814  0  1.036044  0  0  0.138744  0  1.030988  0  0  0.143653  0.132154  0  1.03926  0
H  H12  1  0.09224369  0.76326648  0.10445409  1  0  0.087631  0  0.92152  0  0  0.105985  0  0.979984  0  0  0.10741  0  0.97959  0  0  0.097558  0.104992  0  0.980123  0
H  H13  1  0.40775655  0.73673372  0.10445403  1  0  0.08764  0  0.921526  0  0  0.106001  0  0.979984  0  0  0.107409  0  0.979601  0  0  0.097568  0.104994  0  0.980137  0
H  H14  1  0.73673425  0.40775674  0.89554671  1  0  0.087717  0  0.921471  0  0  0.106026  0  0.979984  0  0  0.107442  0  0.979594  0  0  0.097577  0.105018  0  0.980137  0
H  H15  1  0.76326637  0.09224332  0.89554664  1  0  0.087637  0  0.92153  0  0  0.105999  0  0.979989  0  0  0.107408  0  0.979605  0  0  0.097566  0.104991  0  0.980141  0
H  H16  1  0.90775674  0.23673364  0.89554569  1  0  0.087624  0  0.921542  0  0  0.105988  0  0.979997  0  0  0.107398  0  0.979612  0  0  0.097561  0.104979  0  0.980152  0
H  H17  1  0.59224388  0.26326641  0.89554671  1  0  0.087629  0  0.921541  0  0  0.105996  0  0.979988  0  0  0.107396  0  0.979616  0  0  0.09756  0.104983  0  0.980148  0
H  H18  1  0.26326618  0.59224339  0.10445307  1  0  0.087631  0  0.921538  0  0  0.105991  0  0.979997  0  0  0.107405  0  0.979608  0  0  0.097564  0.104986  0  0.98015  0
H  H19  1  0.23673310  0.90775681  0.10445409  1  0  0.08762  0  0.921555  0  0  0.105991  0  0.979997  0  0  0.107407  0  0.979611  0  0  0.097567  0.104984  0  0.980153  0
H  H20  1  0.13229379  0.86770552  0.88736033  1  0  0.078579  0  0.90914  0  0  0.093459  0  0.961961  0  0  0.09453  0  0.962607  0  0  0.102371  0.092496  0  0.961917  0
H  H21  1  0.36770595  0.63229393  0.88736023  1  0  0.078585  0  0.909134  0  0  0.093466  0  0.961957  0  0  0.094537  0  0.962604  0  0  0.102373  0.092503  0  0.961913  0
H  H22  1  0.63229449  0.36770619  0.11263955  1  0  0.07858  0  0.909134  0  0  0.093456  0  0.961951  0  0  0.094529  0  0.962597  0  0  0.102372  0.092494  0  0.961909  0
H  H23  1  0.86770568  0.13229461  0.11263946  1  0  0.078588  0  0.909127  0  0  0.093458  0  0.961962  0  0  0.094529  0  0.96261  0  0  0.102354  0.092495  0  0.96192  0
H  H24  1  0.85886129  0.93436119  0.25975315  1  0  0.098705  0  0.935643  0  0  0.112901  0  1.000699  0  0  0.11478  0  0.999729  0  0  0.094014  0.111543  0  1.001355  0
H  H25  1  0.64113805  0.56563884  0.25975312  1  0  0.098686  0  0.935656  0  0  0.112873  0  1.00072  0  0  0.11475  0  0.999753  0  0  0.094011  0.11152  0  1.001379  0
H  H26  1  0.56563884  0.64113743  0.74024667  1  0  0.09868  0  0.93567  0  0  0.112871  0  1.000723  0  0  0.114747  0  0.999757  0  0  0.094009  0.111516  0  1.001382  0
H  H27  1  0.93436104  0.85886174  0.74024665  1  0  0.098696  0  0.935655  0  0  0.112878  0  1.000715  0  0  0.114755  0  0.999749  0  0  0.094014  0.111523  0  1.001372  0
H  H28  1  0.14113818  0.06563894  0.74024663  1  0  0.098685  0  0.935661  0  0  0.112873  0  1.000724  0  0  0.114755  0  0.999751  0  0  0.09401  0.111522  0  1.001381  0
H  H29  1  0.35886238  0.43436129  0.74024667  1  0  0.098681  0  0.935662  0  0  0.112871  0  1.000725  0  0  0.11475  0  0.999756  0  0  0.094013  0.111518  0  1.001382  0
H  H30  1  0.43436160  0.35886269  0.25975311  1  0  0.098682  0  0.935662  0  0  0.112877  0  1.000719  0  0  0.114754  0  0.999753  0  0  0.094013  0.111523  0  1.001375  0
H  H31  1  0.06563842  0.14113838  0.25975314  1  0  0.098693  0  0.935658  0  0  0.112885  0  1.000718  0  0  0.114763  0  0.999752  0  0  0.094014  0.111531  0  1.001374  0
H  H32  1  0.87138282  0.77960327  0.19368038  1  0  0.086359  0  0.94965  0  0  0.103017  0  1.01507  0  0  0.103792  0  1.015361  0  0  0.095655  0.102276  0  1.01534  0
H  H33  1  0.62861780  0.72039775  0.19368137  1  0  0.086354  0  0.949639  0  0  0.103011  0  1.015068  0  0  0.103785  0  1.015357  0  0  0.095655  0.10227  0  1.015337  0
H  H34  1  0.72039792  0.62861694  0.80631842  1  0  0.086357  0  0.949623  0  0  0.103015  0  1.015049  0  0  0.103792  0  1.015337  0  0  0.095647  0.102274  0  1.015318  0
H  H35  1  0.77960194  0.87138226  0.80631846  1  0  0.086352  0  0.949641  0  0  0.103026  0  1.015035  0  0  0.103805  0  1.015322  0  0  0.095652  0.102285  0  1.015305  0
H  H36  1  0.12861762  0.22039686  0.80631940  1  0  0.086361  0  0.949649  0  0  0.103018  0  1.015078  0  0  0.103793  0  1.015367  0  0  0.095657  0.102279  0  1.015348  0
H  H37  1  0.37138264  0.27960238  0.80631842  1  0  0.08635  0  0.94962  0  0  0.103031  0  1.015022  0  0  0.103807  0  1.01531  0  0  0.095647  0.10229  0  1.015295  0
H  H38  1  0.27960348  0.37138319  0.19368136  1  0  0.086363  0  0.949618  0  0  0.103023  0  1.01504  0  0  0.103799  0  1.015329  0  0  0.095659  0.102283  0  1.015313  0
H  H39  1  0.22039753  0.12861787  0.19368132  1  0  0.086351  0  0.949634  0  0  0.103032  0  1.015033  0  0  0.103808  0  1.015322  0  0  0.095657  0.102291  0  1.015306  0
H  H40  1  0.89638645  0.75604887  0.95465869  1  0  0.056126  0  0.929848  0  0  0.070776  0  0.988343  0  0  0.071597  0  0.988464  0  0  0.095638  0.070037  0  0.988593  0
H  H41  1  0.60361337  0.74395039  0.95465779  1  0  0.056151  0  0.929853  0  0  0.070792  0  0.988356  0  0  0.071616  0  0.988473  0  0  0.095663  0.070054  0  0.988604  0
H  H42  1  0.74395128  0.60361354  0.04534200  1  0  0.056147  0  0.929842  0  0  0.070798  0  0.988334  0  0  0.071615  0  0.988456  0  0  0.095659  0.070061  0  0.988583  0
H  H43  1  0.75604909  0.89638642  0.04534110  1  0  0.056141  0  0.929836  0  0  0.070791  0  0.988326  0  0  0.071613  0  0.988445  0  0  0.095648  0.070052  0  0.988576  0
H  H44  1  0.10361272  0.24395025  0.04534109  1  0  0.056139  0  0.929844  0  0  0.070774  0  0.988359  0  0  0.071596  0  0.988479  0  0  0.095652  0.070037  0  0.988609  0
H  H45  1  0.39638610  0.25604974  0.04534199  1  0  0.056154  0  0.929848  0  0  0.070795  0  0.988351  0  0  0.071623  0  0.988467  0  0  0.095666  0.070058  0  0.988601  0
H  H46  1  0.25604886  0.39638558  0.95465874  1  0  0.05614  0  0.929838  0  0  0.070788  0  0.988331  0  0  0.071607  0  0.988452  0  0  0.095649  0.07005  0  0.988582  0
H  H47  1  0.24395038  0.10361371  0.95465868  1  0  0.056142  0  0.929841  0  0  0.070775  0  0.988364  0  0  0.071597  0  0.988484  0  0  0.095657  0.070037  0  0.988612  0
C  C48  1  0.03703882  0.78665357  0.39146280  1  0  0.186716  0  3.587565  0  0  0.127962  0  3.84979  0  0  0.143686  0  3.857495  0  0  0.16668  0.11765  0  3.843894  0
C  C49  1  0.46296038  0.71334673  0.39146271  1  0  0.186676  0  3.587526  0  0  0.127968  0  3.849711  0  0  0.143693  0  3.857414  0  0  0.166699  0.117659  0  3.843811  0
C  C50  1  0.71334670  0.46295949  0.60853708  1  0  0.186738  0  3.587448  0  0  0.128001  0  3.849669  0  0  0.143721  0  3.857373  0  0  0.166719  0.117689  0  3.84377  0
C  C51  1  0.78665275  0.03703946  0.60853698  1  0  0.186695  0  3.587499  0  0  0.127971  0  3.849707  0  0  0.143692  0  3.85741  0  0  0.166704  0.11766  0  3.843809  0
C  C52  1  0.96295968  0.21334655  0.60853794  1  0  0.186678  0  3.587496  0  0  0.127945  0  3.849705  0  0  0.143666  0  3.857411  0  0  0.166697  0.117634  0  3.84381  0
C  C53  1  0.53704006  0.28665340  0.60853803  1  0  0.186713  0  3.587476  0  0  0.127966  0  3.849711  0  0  0.143687  0  3.857417  0  0  0.16672  0.117653  0  3.843816  0
C  C54  1  0.28665248  0.53703963  0.39146080  1  0  0.186683  0  3.587466  0  0  0.127955  0  3.849678  0  0  0.143679  0  3.857381  0  0  0.166702  0.117642  0  3.843784  0
C  C55  1  0.21334614  0.96295865  0.39146185  1  0  0.186679  0  3.587451  0  0  0.127958  0  3.849647  0  0  0.14368  0  3.857347  0  0  0.166695  0.117645  0  3.843748  0
C  C56  1  0.06061506  0.93938564  0.19733601  1  0  0.232843  0  3.55835  0  0  0.237714  0  3.800057  0  0  0.242276  0  3.817123  0  0  0.089659  0.234746  0  3.788364  0
C  C57  1  0.43938545  0.56061560  0.19733586  1  0  0.232835  0  3.558369  0  0  0.237784  0  3.799966  0  0  0.242344  0  3.817027  0  0  0.089672  0.234817  0  3.788272  0
C  C58  1  0.56061527  0.43938554  0.80266488  1  0  0.232854  0  3.558367  0  0  0.237793  0  3.799979  0  0  0.242356  0  3.817036  0  0  0.089662  0.234825  0  3.788281  0
C  C59  1  0.93938538  0.06061449  0.80266473  1  0  0.232851  0  3.558338  0  0  0.237783  0  3.799943  0  0  0.242347  0  3.817005  0  0  0.089652  0.234814  0  3.788248  0
C  C60  1  0.12615715  0.87384267  0.09335518  1  0  -0.201973  0  3.624995  0  0  -0.257851  0  3.884187  0  0  -0.259867  0  3.89718  0  0  -0.155624  -0.256365  0  3.875326  0
C  C61  1  0.37384281  0.62615652  0.09335508  1  0  -0.201984  0  3.625012  0  0  -0.25788  0  3.884202  0  0  -0.259879  0  3.897191  0  0  -0.155622  -0.256382  0  3.87534  0
C  C62  1  0.62615763  0.37384361  0.90664470  1  0  -0.202064  0  3.624979  0  0  -0.257939  0  3.884164  0  0  -0.25993  0  3.897152  0  0  -0.155644  -0.256433  0  3.875297  0
C  C63  1  0.87384328  0.12615746  0.90664461  1  0  -0.201984  0  3.62496  0  0  -0.257883  0  3.88415  0  0  -0.259883  0  3.897142  0  0  -0.155626  -0.256378  0  3.87528  0
C  C64  1  0.08561120  0.91438798  0.96204703  1  0  -0.019906  0  3.571532  0  0  -0.022484  0  3.800671  0  0  -0.023605  0  3.817645  0  0  -0.083958  -0.021559  0  3.789153  0
C  C65  1  0.41438851  0.58561150  0.96204691  1  0  -0.019917  0  3.571578  0  0  -0.0225  0  3.800733  0  0  -0.023623  0  3.817704  0  0  -0.08396  -0.021576  0  3.789213  0
C  C66  1  0.58561163  0.41438761  0.03795383  1  0  -0.019927  0  3.571566  0  0  -0.022471  0  3.800669  0  0  -0.023581  0  3.817625  0  0  -0.083953  -0.021547  0  3.789149  0
C  C67  1  0.91438797  0.08561114  0.03795370  1  0  -0.019919  0  3.571528  0  0  -0.022493  0  3.800665  0  0  -0.023619  0  3.817634  0  0  -0.083925  -0.021568  0  3.789144  0
C  C68  1  0.90676510  0.89016377  0.18433192  1  0  -0.217222  0  3.633213  0  0  -0.270182  0  3.885328  0  0  -0.272371  0  3.898605  0  0  -0.162899  -0.268663  0  3.876592  0
C  C69  1  0.59323329  0.60983623  0.18433288  1  0  -0.217239  0  3.633177  0  0  -0.270216  0  3.885301  0  0  -0.272402  0  3.898574  0  0  -0.162936  -0.268704  0  3.876572  0
C  C70  1  0.60983595  0.59323332  0.81566691  1  0  -0.217249  0  3.633142  0  0  -0.270216  0  3.885255  0  0  -0.272408  0  3.89853  0  0  -0.162931  -0.268703  0  3.876522  0
C  C71  1  0.89016197  0.90676588  0.81566692  1  0  -0.21724  0  3.633225  0  0  -0.270197  0  3.8853  0  0  -0.272391  0  3.898579  0  0  -0.162922  -0.268689  0  3.876576  0
C  C72  1  0.09323311  0.10983535  0.81566786  1  0  -0.217229  0  3.633242  0  0  -0.270203  0  3.885345  0  0  -0.272395  0  3.898625  0  0  -0.162917  -0.268687  0  3.876606  0
C  C73  1  0.40676588  0.39016288  0.81566691  1  0  -0.217202  0  3.6332  0  0  -0.270183  0  3.885294  0  0  -0.272375  0  3.898576  0  0  -0.162909  -0.268669  0  3.87656  0
C  C74  1  0.39016419  0.40676580  0.18433287  1  0  -0.217223  0  3.633144  0  0  -0.270196  0  3.885257  0  0  -0.272385  0  3.898533  0  0  -0.162928  -0.268679  0  3.876526  0
C  C75  1  0.10983750  0.09323425  0.18433286  1  0  -0.217236  0  3.633165  0  0  -0.2702  0  3.885264  0  0  -0.272398  0  3.898552  0  0  -0.162935  -0.268683  0  3.876532  0
C  C76  1  0.93095466  0.86682453  0.94676783  1  0  -0.016105  0  3.586821  0  0  -0.022801  0  3.820894  0  0  -0.023618  0  3.838077  0  0  -0.087308  -0.022253  0  3.809585  0
C  C77  1  0.56904449  0.63317572  0.94676881  1  0  -0.016124  0  3.586822  0  0  -0.022805  0  3.820906  0  0  -0.023623  0  3.838082  0  0  -0.087329  -0.022258  0  3.809596  0
C  C78  1  0.63317556  0.56904418  0.05323194  1  0  -0.016111  0  3.586833  0  0  -0.022808  0  3.820911  0  0  -0.023628  0  3.838097  0  0  -0.08733  -0.02226  0  3.8096  0
C  C79  1  0.86682481  0.93095578  0.05323197  1  0  -0.01614  0  3.586903  0  0  -0.022822  0  3.820975  0  0  -0.023638  0  3.838152  0  0  -0.087344  -0.022276  0  3.809668  0
C  C80  1  0.06904481  0.13317560  0.05323195  1  0  -0.01612  0  3.58677  0  0  -0.022806  0  3.820857  0  0  -0.023619  0  3.838033  0  0  -0.08733  -0.022258  0  3.809551  0
C  C81  1  0.43095595  0.36682440  0.05323193  1  0  -0.016138  0  3.586834  0  0  -0.022831  0  3.820921  0  0  -0.023658  0  3.838104  0  0  -0.087338  -0.022284  0  3.809614  0
C  C82  1  0.36682487  0.43095594  0.94676785  1  0  -0.016136  0  3.586864  0  0  -0.022818  0  3.820943  0  0  -0.023633  0  3.838126  0  0  -0.08733  -0.022269  0  3.809637  0
C  C83  1  0.13317466  0.06904435  0.94676782  1  0  -0.016142  0  3.586892  0  0  -0.022821  0  3.82097  0  0  -0.023637  0  3.838145  0  0  -0.087344  -0.022276  0  3.809668  0
N  N84  1  0.10855469  0.78057570  0.49442862  1  0  -0.276999  0  3.22214  0  0  -0.244508  0  3.513693  0  0  -0.259271  0  3.533531  0  0  -0.253499  -0.234218  0  3.499812  0
N  N85  1  0.39144351  0.71942464  0.49442855  1  0  -0.276922  0  3.222096  0  0  -0.244459  0  3.51365  0  0  -0.25922  0  3.533487  0  0  -0.253508  -0.234169  0  3.499766  0
N  N86  1  0.71942453  0.39144368  0.50557123  1  0  -0.276965  0  3.222108  0  0  -0.244488  0  3.513667  0  0  -0.259247  0  3.533504  0  0  -0.253518  -0.234196  0  3.499784  0
N  N87  1  0.78057620  0.10855624  0.50557021  1  0  -0.276969  0  3.222106  0  0  -0.244508  0  3.513669  0  0  -0.259267  0  3.533507  0  0  -0.253526  -0.234217  0  3.499788  0
N  N88  1  0.89144352  0.21942342  0.50557117  1  0  -0.276917  0  3.222076  0  0  -0.244439  0  3.513624  0  0  -0.259203  0  3.533467  0  0  -0.25347  -0.234149  0  3.499746  0
N  N89  1  0.60855692  0.28057549  0.50557123  1  0  -0.276924  0  3.222077  0  0  -0.244453  0  3.513638  0  0  -0.259215  0  3.533478  0  0  -0.253502  -0.234163  0  3.499759  0
N  N90  1  0.28057590  0.60855645  0.49442950  1  0  -0.276921  0  3.222035  0  0  -0.244453  0  3.513593  0  0  -0.259214  0  3.533431  0  0  -0.253484  -0.234162  0  3.499713  0
N  N91  1  0.21942394  0.89144288  0.49442862  1  0  -0.276882  0  3.222041  0  0  -0.244421  0  3.51359  0  0  -0.25918  0  3.533425  0  0  -0.253477  -0.23413  0  3.499707  0
N  N92  1  0.09975350  0.90024500  0.32432550  1  0  -0.121369  0  3.464021  0  0  -0.032713  0  3.683251  0  0  -0.049357  0  3.704708  0  0  -0.215274  -0.021784  0  3.668442  0
N  N93  1  0.40024542  0.59975426  0.32432538  1  0  -0.121366  0  3.463961  0  0  -0.032737  0  3.683172  0  0  -0.049381  0  3.704628  0  0  -0.215293  -0.021808  0  3.668363  0
N  N94  1  0.59975472  0.40024486  0.67567441  1  0  -0.121406  0  3.463943  0  0  -0.032754  0  3.683159  0  0  -0.049398  0  3.704617  0  0  -0.215301  -0.021824  0  3.66835  0
N  N95  1  0.90024567  0.09975411  0.67567429  1  0  -0.121349  0  3.463946  0  0  -0.032707  0  3.683151  0  0  -0.04935  0  3.704609  0  0  -0.215276  -0.021774  0  3.668341  0
O  O96  1  0.99999978  0.49999995  0.50000028  1  0  -0.964078  0  1.855321  0  0  -0.964465  0  2.178164  0  0  -1.012737  0  2.178202  0  0  -0.603248  -0.926968  0  2.176761  0
O  O97  1  0.50000045  0.00000016  0.49999952  1  0  -0.964076  0  1.855312  0  0  -0.964462  0  2.178156  0  0  -1.012736  0  2.17819  0  0  -0.603247  -0.926969  0  2.176756  0
O  O98  1  0.25000004  0.75000020  0.69717317  1  0  -0.884538  0  1.791959  0  0  -0.892282  0  2.099967  0  0  -0.936023  0  2.094931  0  0  -0.586249  -0.859113  0  2.10287  0
O  O99  1  0.75000136  0.24999993  0.30282661  1  0  -0.884543  0  1.791961  0  0  -0.892281  0  2.099953  0  0  -0.936017  0  2.094921  0  0  -0.586252  -0.859109  0  2.102852  0
O  O100  1  0.13693579  0.47103601  0.72330976  1  0  -0.700985  0  1.463812  0  0  -0.704622  0  1.715261  0  0  -0.731897  0  1.705004  0  0  -0.53038  -0.68515  0  1.723098  0
O  O101  1  0.36306381  0.02896421  0.72330963  1  0  -0.700977  0  1.463818  0  0  -0.70461  0  1.71527  0  0  -0.731892  0  1.705009  0  0  -0.530377  -0.685142  0  1.72311  0
O  O102  1  0.02896468  0.36306624  0.27669015  1  0  -0.700975  0  1.463815  0  0  -0.704604  0  1.715264  0  0  -0.731885  0  1.705004  0  0  -0.53038  -0.685136  0  1.723095  0
O  O103  1  0.47103592  0.13693686  0.27669002  1  0  -0.700987  0  1.463833  0  0  -0.704627  0  1.715284  0  0  -0.731909  0  1.705027  0  0  -0.530368  -0.685154  0  1.723113  0
O  O104  1  0.86306465  0.52896412  0.27669003  1  0  -0.700989  0  1.46384  0  0  -0.704621  0  1.71529  0  0  -0.731901  0  1.705034  0  0  -0.53038  -0.685148  0  1.723115  0
O  O105  1  0.63693401  0.97103693  0.27668825  1  0  -0.701002  0  1.463847  0  0  -0.704635  0  1.715291  0  0  -0.731911  0  1.705038  0  0  -0.530381  -0.685159  0  1.723118  0
O  O106  1  0.97103633  0.63693591  0.72331059  1  0  -0.70098  0  1.463837  0  0  -0.704617  0  1.715288  0  0  -0.731899  0  1.705029  0  0  -0.530378  -0.685145  0  1.723118  0
O  O107  1  0.52896442  0.86306630  0.72331072  1  0  -0.701003  0  1.463847  0  0  -0.704627  0  1.715291  0  0  -0.731905  0  1.70503  0  0  -0.530379  -0.685156  0  1.723132  0
