# generated using pymatgen
data_GdH10C9S3N3O8
_symmetry_space_group_name_H-M   'P 1'
_cell_length_a   8.51954037
_cell_length_b   8.69348566
_cell_length_c   11.35943933
_cell_angle_alpha   104.87921207
_cell_angle_beta   96.72389849
_cell_angle_gamma   94.47508572
_symmetry_Int_Tables_number   1
_chemical_formula_structural   GdH10C9S3N3O8
_chemical_formula_sum   'Gd2 H20 C18 S6 N6 O16'
_cell_volume   802.39108612
_cell_formula_units_Z   2
loop_
 _symmetry_equiv_pos_site_id
 _symmetry_equiv_pos_as_xyz
  1  'x, y, z'
loop_
 _atom_site_type_symbol
 _atom_site_label
 _atom_site_symmetry_multiplicity
 _atom_site_fract_x
 _atom_site_fract_y
 _atom_site_fract_z
 _atom_site_occupancy
 _atom_site_hle17_bader_spin_density
 _atom_site_hle17_ddec_charge
 _atom_site_hle17_ddec_spin_density
 _atom_site_hle17_ddec_sum_bond_order
 _atom_site_hle17_magmom
 _atom_site_hse06_10hf_bader_spin_density
 _atom_site_hse06_10hf_ddec_charge
 _atom_site_hse06_10hf_ddec_spin_density
 _atom_site_hse06_10hf_ddec_sum_bond_order
 _atom_site_hse06_10hf_magmom
 _atom_site_hse06_bader_spin_density
 _atom_site_hse06_ddec_charge
 _atom_site_hse06_ddec_spin_density
 _atom_site_hse06_ddec_sum_bond_order
 _atom_site_hse06_magmom
 _atom_site_pbe_bader_spin_density
 _atom_site_pbe_cm5_charge
 _atom_site_pbe_ddec_charge
 _atom_site_pbe_ddec_spin_density
 _atom_site_pbe_ddec_sum_bond_order
 _atom_site_pbe_magmom
Gd  Gd0  1  0.95674238  0.83632956  0.58748028  1  0  2.174641  0  1.784479  0  0  2.086781  0  2.139206  0  0  2.141271  0  2.08391  0  0  1.464494  2.045028  0  2.182638  0
Gd  Gd1  1  0.04325625  0.16366432  0.41252084  1  0  2.17457  0  1.784559  0  0  2.086626  0  2.139365  0  0  2.14113  0  2.084046  0  0  1.464513  2.044868  0  2.182818  0
H  H2  1  0.13316885  0.27762644  0.06333922  1  0  0.122727  0  0.965142  0  0  0.126369  0  1.043935  0  0  0.128548  0  1.043699  0  0  0.102424  0.124748  0  1.044405  0
H  H3  1  0.86681185  0.72237627  0.93666491  1  0  0.122634  0  0.965144  0  0  0.126335  0  1.043897  0  0  0.128499  0  1.043667  0  0  0.102343  0.124713  0  1.044367  0
H  H4  1  0.09468945  0.07104729  0.98272104  1  0  0.139623  0  0.956491  0  0  0.15646  0  1.008608  0  0  0.158909  0  1.007733  0  0  0.112521  0.154618  0  1.009595  0
H  H5  1  0.90530543  0.92895520  0.01728369  1  0  0.139607  0  0.956505  0  0  0.156463  0  1.008632  0  0  0.158905  0  1.007758  0  0  0.112524  0.154621  0  1.009621  0
H  H6  1  0.51894674  0.91780371  0.22592339  1  0  0.132745  0  0.941373  0  0  0.136328  0  1.015403  0  0  0.138852  0  1.014194  0  0  0.105471  0.134716  0  1.016095  0
H  H7  1  0.48105326  0.08220089  0.77407870  1  0  0.132737  0  0.941289  0  0  0.13636  0  1.015291  0  0  0.138883  0  1.014084  0  0  0.105491  0.134755  0  1.015986  0
H  H8  1  0.44426701  0.01215104  0.36144866  1  0  0.163764  0  0.917371  0  0  0.178844  0  0.968516  0  0  0.18234  0  0.966366  0  0  0.121867  0.176314  0  0.970258  0
H  H9  1  0.55573965  0.98785941  0.63855419  1  0  0.163777  0  0.917207  0  0  0.178886  0  0.968355  0  0  0.182379  0  0.966207  0  0  0.12191  0.176364  0  0.970096  0
H  H10  1  0.06755593  0.74240703  0.15948152  1  0  0.143621  0  0.917266  0  0  0.153604  0  0.979337  0  0  0.156171  0  0.978485  0  0  0.116055  0.151723  0  0.98022  0
H  H11  1  0.93244006  0.25758939  0.84050296  1  0  0.143572  0  0.917153  0  0  0.1536  0  0.979187  0  0  0.156167  0  0.978329  0  0  0.116052  0.151718  0  0.980072  0
H  H12  1  0.87041349  0.79516205  0.16749898  1  0  0.150157  0  0.931274  0  0  0.15706  0  1.000078  0  0  0.159707  0  0.999182  0  0  0.120213  0.155074  0  1.001055  0
H  H13  1  0.12959322  0.20483711  0.83249414  1  0  0.15019  0  0.931054  0  0  0.157084  0  0.999904  0  0  0.159694  0  0.999051  0  0  0.120226  0.155097  0  1.000882  0
H  H14  1  0.80014498  0.49135778  0.54419453  1  0  0.447193  0  0.839016  0  0  0.418668  0  0.897854  0  0  0.429293  0  0.882252  0  0  0.306921  0.411058  0  0.90903  0
H  H15  1  0.19984875  0.50864152  0.45579723  1  0  0.447222  0  0.838948  0  0  0.418675  0  0.897824  0  0  0.4293  0  0.882224  0  0  0.3069  0.411049  0  0.909019  0
H  H16  1  0.73840506  0.58803954  0.66829751  1  0  0.430494  0  0.860387  0  0  0.394275  0  0.933682  0  0  0.40487  0  0.917966  0  0  0.299374  0.386646  0  0.94501  0
H  H17  1  0.26160026  0.41195860  0.33169795  1  0  0.430394  0  0.860709  0  0  0.394178  0  0.933851  0  0  0.404771  0  0.918137  0  0  0.299318  0.386554  0  0.945172  0
H  H18  1  0.12999589  0.55521071  0.63835470  1  0  0.451488  0  0.841424  0  0  0.417471  0  0.909712  0  0  0.428221  0  0.89411  0  0  0.30951  0.409844  0  0.92076  0
H  H19  1  0.87000748  0.44477998  0.36163495  1  0  0.451437  0  0.841487  0  0  0.417392  0  0.909825  0  0  0.428148  0  0.894215  0  0  0.309456  0.409765  0  0.920866  0
H  H20  1  0.24439824  0.72057553  0.65728541  1  0  0.45302  0  0.798995  0  0  0.430435  0  0.857384  0  0  0.439644  0  0.846765  0  0  0.328335  0.423844  0  0.864983  0
H  H21  1  0.75561350  0.27941323  0.34269513  1  0  0.452873  0  0.799156  0  0  0.430297  0  0.857511  0  0  0.439502  0  0.846903  0  0  0.328296  0.42371  0  0.865106  0
C  C22  1  0.16412740  0.15727686  0.06358446  1  0  -0.308534  0  3.648458  0  0  -0.337832  0  3.893892  0  0  -0.342366  0  3.899323  0  0  -0.154117  -0.334978  0  3.89068  0
C  C23  1  0.83586822  0.84273007  0.93641576  1  0  -0.308374  0  3.648682  0  0  -0.337771  0  3.894065  0  0  -0.342319  0  3.899594  0  0  -0.154024  -0.334917  0  3.890854  0
C  C24  1  0.51214824  0.91398671  0.32095569  1  0  -0.311083  0  3.600105  0  0  -0.342433  0  3.851347  0  0  -0.346794  0  3.854667  0  0  -0.146681  -0.339639  0  3.849161  0
C  C25  1  0.48785480  0.08602395  0.67904945  1  0  -0.311005  0  3.600202  0  0  -0.342447  0  3.851549  0  0  -0.346796  0  3.854819  0  0  -0.146661  -0.339703  0  3.849451  0
C  C26  1  0.11936181  0.12182034  0.17947895  1  0  0.682473  0  3.905064  0  0  0.642087  0  4.203364  0  0  0.67393  0  4.198124  0  0  0.179105  0.620681  0  4.205771  0
C  C27  1  0.88063862  0.87817826  0.82052223  1  0  0.682424  0  3.905279  0  0  0.642172  0  4.203445  0  0  0.674011  0  4.198195  0  0  0.179119  0.620766  0  4.205851  0
C  C28  1  0.67971764  0.94353734  0.39214506  1  0  0.766931  0  3.814312  0  0  0.720371  0  4.119781  0  0  0.754792  0  4.110271  0  0  0.226975  0.696938  0  4.125488  0
C  C29  1  0.32031082  0.05646813  0.60786020  1  0  0.767249  0  3.813464  0  0  0.720697  0  4.118911  0  0  0.755136  0  4.109376  0  0  0.22699  0.697266  0  4.12464  0
C  C30  1  0.48104136  0.58592887  0.23022678  1  0  0.387064  0  3.793053  0  0  0.367232  0  4.083421  0  0  0.389279  0  4.090877  0  0  0.249593  0.352471  0  4.078224  0
C  C31  1  0.51895345  0.41407534  0.76978615  1  0  0.387364  0  3.792936  0  0  0.367532  0  4.083332  0  0  0.389576  0  4.090794  0  0  0.249777  0.352773  0  4.078131  0
C  C32  1  0.97870220  0.74368925  0.32776360  1  0  0.753518  0  3.828584  0  0  0.704285  0  4.131652  0  0  0.738557  0  4.122648  0  0  0.222986  0.681084  0  4.136634  0
C  C33  1  0.02130197  0.25631039  0.67223638  1  0  0.753738  0  3.828237  0  0  0.704492  0  4.131329  0  0  0.738765  0  4.122322  0  0  0.223112  0.681291  0  4.136307  0
C  C34  1  0.46313856  0.32762216  0.11704623  1  0  0.386978  0  3.809084  0  0  0.36598  0  4.103165  0  0  0.387807  0  4.110884  0  0  0.244162  0.351407  0  4.097639  0
C  C35  1  0.53685383  0.67239833  0.88296109  1  0  0.387177  0  3.808816  0  0  0.36613  0  4.102985  0  0  0.387959  0  4.110692  0  0  0.244183  0.351556  0  4.097464  0
C  C36  1  0.95360420  0.71280675  0.18955000  1  0  -0.318486  0  3.640867  0  0  -0.349499  0  3.891828  0  0  -0.354369  0  3.896602  0  0  -0.142959  -0.34647  0  3.889152  0
C  C37  1  0.04639807  0.28720141  0.81043438  1  0  -0.318429  0  3.640914  0  0  -0.349508  0  3.891988  0  0  -0.354346  0  3.896769  0  0  -0.14283  -0.34648  0  3.88932  0
C  C38  1  0.68682390  0.49456675  0.13645843  1  0  0.386422  0  3.823408  0  0  0.36687  0  4.116012  0  0  0.388621  0  4.1237  0  0  0.248484  0.352305  0  4.110674  0
C  C39  1  0.31318196  0.50544252  0.86356266  1  0  0.386733  0  3.823161  0  0  0.367142  0  4.115796  0  0  0.388897  0  4.12349  0  0  0.248558  0.352576  0  4.11046  0
S  S40  1  0.88225217  0.51036106  0.10488621  1  0  0.056925  0  2.433731  0  0  0.049865  0  2.784399  0  0  0.04659  0  2.779391  0  0  0.060202  0.052162  0  2.788154  0
S  S41  1  0.11773982  0.48963496  0.89510925  1  0  0.056863  0  2.433941  0  0  0.049849  0  2.784627  0  0  0.046564  0  2.779605  0  0  0.060196  0.052145  0  2.788381  0
S  S42  1  0.38769098  0.73592595  0.31909371  1  0  0.085314  0  2.351965  0  0  0.079209  0  2.679395  0  0  0.075471  0  2.674864  0  0  0.069664  0.081804  0  2.682688  0
S  S43  1  0.61229321  0.26407683  0.68091257  1  0  0.085183  0  2.352025  0  0  0.079097  0  2.679524  0  0  0.075361  0  2.674985  0  0  0.069578  0.081705  0  2.682834  0
S  S44  1  0.36573307  0.14026748  0.03746780  1  0  0.094241  0  2.410232  0  0  0.083932  0  2.753962  0  0  0.080583  0  2.748479  0  0  0.074122  0.086296  0  2.757687  0
S  S45  1  0.63426986  0.85974998  0.96253223  1  0  0.094262  0  2.410277  0  0  0.083985  0  2.754078  0  0  0.080637  0  2.748597  0  0  0.074153  0.086348  0  2.757806  0
N  N46  1  0.61073254  0.34731419  0.08786002  1  0  -0.466362  0  2.997734  0  0  -0.435511  0  3.269206  0  0  -0.45297  0  3.2746  0  0  -0.339432  -0.424084  0  3.26565  0
N  N47  1  0.38926982  0.65269346  0.91215338  1  0  -0.466505  0  2.997864  0  0  -0.43562  0  3.269353  0  0  -0.453077  0  3.274742  0  0  -0.339452  -0.424196  0  3.265804  0
N  N48  1  0.62559670  0.62142510  0.20190311  1  0  -0.449277  0  3.028395  0  0  -0.412471  0  3.296971  0  0  -0.432379  0  3.308648  0  0  -0.320035  -0.399366  0  3.28901  0
N  N49  1  0.37440858  0.37857778  0.79811073  1  0  -0.449682  0  3.028467  0  0  -0.412867  0  3.297101  0  0  -0.432754  0  3.308726  0  0  -0.320245  -0.399761  0  3.289139  0
N  N50  1  0.39592950  0.43875790  0.19550968  1  0  -0.49706  0  3.018468  0  0  -0.449737  0  3.27622  0  0  -0.469378  0  3.283472  0  0  -0.323051  -0.436763  0  3.271405  0
N  N51  1  0.60406615  0.56125205  0.80450073  1  0  -0.497291  0  3.018149  0  0  -0.449959  0  3.275946  0  0  -0.469609  0  3.283221  0  0  -0.323131  -0.436981  0  3.271129  0
O  O52  1  0.22280285  0.09690610  0.26033930  1  0  -0.665669  0  1.980167  0  0  -0.623715  0  2.213931  0  0  -0.649082  0  2.207694  0  0  -0.372296  -0.605711  0  2.217697  0
O  O53  1  0.77719652  0.90308418  0.73966132  1  0  -0.665725  0  1.980387  0  0  -0.623807  0  2.214075  0  0  -0.649168  0  2.207837  0  0  -0.372293  -0.605805  0  2.217838  0
O  O54  1  0.97263403  0.12493475  0.19401974  1  0  -0.695693  0  1.938919  0  0  -0.660485  0  2.177601  0  0  -0.685077  0  2.168962  0  0  -0.393548  -0.642896  0  2.182964  0
O  O55  1  0.02736978  0.87506575  0.80599356  1  0  -0.695598  0  1.938809  0  0  -0.660472  0  2.177481  0  0  -0.685061  0  2.168848  0  0  -0.393537  -0.642884  0  2.182834  0
O  O56  1  0.71750828  0.86755379  0.47052787  1  0  -0.713236  0  2.037012  0  0  -0.675325  0  2.289842  0  0  -0.701089  0  2.279942  0  0  -0.384603  -0.657003  0  2.29619  0
O  O57  1  0.28247001  0.13244102  0.52948180  1  0  -0.713322  0  2.036867  0  0  -0.675325  0  2.289633  0  0  -0.701099  0  2.279729  0  0  -0.384615  -0.657  0  2.295984  0
O  O58  1  0.76932792  0.05072734  0.36597468  1  0  -0.726534  0  2.026031  0  0  -0.679896  0  2.273274  0  0  -0.707242  0  2.263386  0  0  -0.383267  -0.66023  0  2.279404  0
O  O59  1  0.23067086  0.94924697  0.63401717  1  0  -0.726867  0  2.025302  0  0  -0.680278  0  2.272628  0  0  -0.70763  0  2.262707  0  0  -0.38333  -0.660592  0  2.278732  0
O  O60  1  0.94279389  0.63849972  0.38175403  1  0  -0.671777  0  2.066355  0  0  -0.616577  0  2.300133  0  0  -0.643547  0  2.292579  0  0  -0.336292  -0.59734  0  2.304693  0
O  O61  1  0.05720410  0.36150404  0.61823448  1  0  -0.671952  0  2.066084  0  0  -0.616734  0  2.299866  0  0  -0.6437  0  2.292304  0  0  -0.336365  -0.597497  0  2.304428  0
O  O62  1  0.03483684  0.88560959  0.39120754  1  0  -0.802893  0  2.186103  0  0  -0.76245  0  2.452479  0  0  -0.790338  0  2.443325  0  0  -0.431024  -0.74211  0  2.458183  0
O  O63  1  0.96517787  0.11438052  0.60879470  1  0  -0.803002  0  2.186113  0  0  -0.76252  0  2.452427  0  0  -0.79041  0  2.443274  0  0  -0.43119  -0.74218  0  2.458129  0
O  O64  1  0.15909403  0.64499403  0.60253497  1  0  -0.879749  0  1.888159  0  0  -0.831349  0  2.075646  0  0  -0.851296  0  2.047094  0  0  -0.599003  -0.816961  0  2.095799  0
O  O65  1  0.84089603  0.35499447  0.39745380  1  0  -0.87954  0  1.888245  0  0  -0.831121  0  2.075739  0  0  -0.851074  0  2.047185  0  0  -0.598886  -0.816731  0  2.095897  0
O  O66  1  0.80480396  0.59661052  0.60429616  1  0  -0.902877  0  1.888904  0  0  -0.85875  0  2.073022  0  0  -0.877429  0  2.040515  0  0  -0.636192  -0.845117  0  2.096107  0
O  O67  1  0.19521000  0.40338010  0.39569549  1  0  -0.902824  0  1.889074  0  0  -0.858658  0  2.073086  0  0  -0.877343  0  2.040589  0  0  -0.636112  -0.845003  0  2.096194  0
