# generated using pymatgen
data_CdH16C26S(NO)4
_symmetry_space_group_name_H-M   'P 1'
_cell_length_a   8.72161083
_cell_length_b   10.85981378
_cell_length_c   13.26540000
_cell_angle_alpha   83.44963573
_cell_angle_beta   74.96190330
_cell_angle_gamma   69.83112305
_symmetry_Int_Tables_number   1
_chemical_formula_structural   CdH16C26S(NO)4
_chemical_formula_sum   'Cd2 H32 C52 S2 N8 O8'
_cell_volume   1138.57938980
_cell_formula_units_Z   2
loop_
 _symmetry_equiv_pos_site_id
 _symmetry_equiv_pos_as_xyz
  1  'x, y, z'
loop_
 _atom_site_type_symbol
 _atom_site_label
 _atom_site_symmetry_multiplicity
 _atom_site_fract_x
 _atom_site_fract_y
 _atom_site_fract_z
 _atom_site_occupancy
 _atom_site_pbe_bader_charge
 _atom_site_pbe_bader_spin_density
 _atom_site_pbe_cm5_charge
 _atom_site_pbe_ddec_charge
 _atom_site_pbe_ddec_spin_density
 _atom_site_pbe_ddec_sum_bond_order
 _atom_site_pbe_magmom
Cd  Cd0  1  0.65794830  0.75760032  0.74914458  1  1.248245  0  0.784113  0.809241  0  2.237305  0
Cd  Cd1  1  0.34205237  0.24240109  0.25085518  1  1.248234  0  0.784099  0.809238  0  2.23731  0
H  H2  1  0.99810661  0.66969864  0.83539422  1  0.151262  0  0.110606  0.074346  0  1.054461  0
H  H3  1  0.00189328  0.33030179  0.16460576  1  0.15127  0  0.110616  0.074356  0  1.05445  0
H  H4  1  0.54029111  0.83569447  0.36507790  1  0.138783  0  0.103282  0.113867  0  1.067881  0
H  H5  1  0.45971120  0.16430301  0.63492194  1  0.138762  0  0.103281  0.113856  0  1.067862  0
H  H6  1  0.30919156  0.57002284  0.77071264  1  0.09065  0  0.110206  0.118214  0  1.00389  0
H  H7  1  0.69080838  0.42997465  0.22928836  1  0.090671  0  0.110201  0.1182  0  1.003928  0
H  H8  1  0.06351640  0.64879019  0.36886213  1  0.116929  0  0.102567  0.113012  0  1.074547  0
H  H9  1  0.93648581  0.35121319  0.63113793  1  0.116948  0  0.102558  0.11299  0  1.074597  0
H  H10  1  0.42835317  0.52672508  0.58050475  1  0.054691  0  0.107313  0.107229  0  1.005294  0
H  H11  1  0.57164677  0.47327241  0.41949550  1  0.054794  0  0.107343  0.10725  0  1.005286  0
H  H12  1  0.07123599  0.55781790  0.23099235  1  0.059075  0  0.102042  0.106006  0  1.056757  0
H  H13  1  0.92876865  0.44218254  0.76900682  1  0.059114  0  0.102046  0.106018  0  1.056753  0
H  H14  1  0.23411049  0.58417868  0.45995574  1  0.156312  0  0.102234  0.123235  0  1.065219  0
H  H15  1  0.76589136  0.41582273  0.54004456  1  0.156318  0  0.102248  0.123283  0  1.065172  0
H  H16  1  0.01624940  0.99854118  0.57683795  1  0.101644  0  0.108231  0.106401  0  1.004093  0
H  H17  1  0.98375168  0.00145925  0.42316182  1  0.101691  0  0.108222  0.106387  0  1.004101  0
H  H18  1  0.30053260  0.92088470  0.45552194  1  0.163249  0  0.104255  0.128302  0  1.059764  0
H  H19  1  0.69946806  0.07911671  0.54447781  1  0.163245  0  0.104259  0.128311  0  1.059767  0
H  H20  1  0.99044863  0.97684470  0.76941592  1  0.11011  0  0.110285  0.117647  0  1.005787  0
H  H21  1  0.00955286  0.02315475  0.23058388  1  0.110084  0  0.110272  0.117632  0  1.005786  0
H  H22  1  0.64938000  0.90444527  0.20673881  1  0.067157  0  0.100389  0.104317  0  1.053946  0
H  H23  1  0.35061994  0.09555221  0.79326144  1  0.067135  0  0.100388  0.104299  0  1.054001  0
H  H24  1  0.56423683  0.12839967  0.99588247  1  0.134792  0  0.107139  0.128324  0  1.028377  0
H  H25  1  0.43575511  0.87160273  0.00411718  1  0.134769  0  0.107169  0.128361  0  1.028314  0
H  H26  1  0.25319695  0.87456638  0.83461630  1  0.114261  0  0.122136  0.091896  0  0.970979  0
H  H27  1  0.74680455  0.12543307  0.16538350  1  0.114259  0  0.122137  0.091909  0  0.970957  0
H  H28  1  0.54160313  0.37855237  0.99177604  1  0.177559  0  0.105911  0.133766  0  1.041163  0
H  H29  1  0.45839160  0.62144904  0.00822398  1  0.177587  0  0.105894  0.133741  0  1.041219  0
H  H30  1  0.73292139  0.87625821  0.01450126  1  0.115791  0  0.107965  0.08482  0  1.02608  0
H  H31  1  0.26707773  0.12374124  0.98549894  1  0.115726  0  0.107957  0.084823  0  1.026075  0
H  H32  1  0.14334763  0.54744316  0.03858503  1  0.081064  0  0.112099  0.084727  0  0.983164  0
H  H33  1  0.85665505  0.45255629  0.96141457  1  0.081095  0  0.112102  0.084746  0  0.983162  0
C  C34  1  0.65648885  0.00629825  0.79157852  1  1.553165  0  0.180623  0.547298  0  4.310688  0
C  C35  1  0.34350944  0.99370316  0.20842089  1  1.553163  0  0.180658  0.547314  0  4.310642  0
C  C36  1  0.88693869  0.70413979  0.51772921  1  0.506064  0  0.126893  0.19126  0  3.968521  0
C  C37  1  0.11306435  0.29586162  0.48227089  1  0.506081  0  0.1269  0.191323  0  3.968547  0
C  C38  1  0.62616361  0.50061748  0.78213185  1  1.525853  0  0.181544  0.544563  0  4.321596  0
C  C39  1  0.37384779  0.49938099  0.21786785  1  1.525558  0  0.181525  0.544627  0  4.321491  0
C  C40  1  0.60296443  0.80204232  0.51606809  1  0.499813  0  0.129141  0.190927  0  3.970466  0
C  C41  1  0.39703783  0.19795811  0.48392998  1  0.499858  0  0.129124  0.190902  0  3.970356  0
C  C42  1  0.05465230  0.64941138  0.75243136  1  0.438986  0  0.049264  0.094999  0  3.960043  0
C  C43  1  0.94534759  0.35058905  0.24756937  1  0.438947  0  0.049285  0.095049  0  3.960033  0
C  C44  1  0.64012186  0.79778919  0.40688817  1  -0.023866  0  -0.076347  -0.1963  0  3.867613  0
C  C45  1  0.35987844  0.20221026  0.59311183  1  -0.02384  0  -0.076334  -0.196258  0  3.867539  0
C  C46  1  0.42842504  0.85412406  0.58228450  1  0.499223  0  0.122972  0.177497  0  3.946042  0
C  C47  1  0.57157764  0.14587539  0.41771509  1  0.499144  0  0.122951  0.17757  0  3.945972  0
C  C48  1  0.22810796  0.59417757  0.71624399  1  -0.001237  0  -0.078419  -0.111059  0  3.94236  0
C  C49  1  0.77189276  0.40582090  0.28375678  1  -0.001187  0  -0.078467  -0.111116  0  3.942455  0
C  C50  1  0.80778706  0.74187335  0.35197979  1  -0.032113  0  0.013232  0.119409  0  3.957096  0
C  C51  1  0.19221485  0.25812512  0.64802003  1  -0.032017  0  0.01318  0.119326  0  3.957162  0
C  C52  1  0.93250445  0.69349813  0.40903228  1  0.009596  0  -0.075254  -0.197388  0  3.873149  0
C  C53  1  0.06749740  0.30650328  0.59096651  1  0.009493  0  -0.075216  -0.197353  0  3.873242  0
C  C54  1  0.29306720  0.57048112  0.61009181  1  0.009208  0  -0.068183  -0.022698  0  3.950383  0
C  C55  1  0.70693429  0.42951833  0.38990950  1  0.008561  0  -0.068175  -0.022655  0  3.950282  0
C  C56  1  0.99427361  0.63232721  0.18622807  1  -0.010576  0  -0.090593  -0.176618  0  3.954583  0
C  C57  1  0.00572984  0.36767322  0.81377130  1  -0.010628  0  -0.090594  -0.176615  0  3.954628  0
C  C58  1  0.18436031  0.60404790  0.54300380  1  -0.037141  0  -0.082625  -0.160857  0  3.91265  0
C  C59  1  0.81564356  0.39595155  0.45699634  1  -0.036597  0  -0.082653  -0.160945  0  3.912703  0
C  C60  1  0.12850614  0.95478612  0.60716707  1  -0.076509  0  -0.065139  -0.015861  0  3.941613  0
C  C61  1  0.87149654  0.04521333  0.39283177  1  -0.076555  0  -0.065101  -0.015804  0  3.941516  0
C  C62  1  0.28739657  0.90995551  0.53981758  1  -0.020308  0  -0.080628  -0.160211  0  3.902109  0
C  C63  1  0.71260409  0.09004591  0.46018292  1  -0.020304  0  -0.080626  -0.160231  0  3.902018  0
C  C64  1  0.11256802  0.94310129  0.71475165  1  -0.012531  0  -0.076698  -0.113299  0  3.955995  0
C  C65  1  0.88743466  0.05689816  0.28524794  1  -0.012403  0  -0.076728  -0.113348  0  3.95596  0
C  C66  1  0.01143185  0.66076844  0.58447146  1  0.493676  0  0.121483  0.174842  0  3.945396  0
C  C67  1  0.98856804  0.33923199  0.41552852  1  0.49365  0  0.121452  0.174786  0  3.945512  0
C  C68  1  0.64065522  0.13562921  0.82618197  1  -0.273127  0  -0.030822  -0.133364  0  4.011307  0
C  C69  1  0.35934147  0.86437319  0.17381913  1  -0.273164  0  -0.030892  -0.13342  0  4.011376  0
C  C70  1  0.75879153  0.82266422  0.17309979  1  0.052847  0  -0.090746  -0.179588  0  3.955551  0
C  C71  1  0.24120960  0.17733326  0.82690026  1  0.052817  0  -0.090692  -0.179492  0  3.955396  0
C  C72  1  0.59313744  0.18614963  0.92521868  1  0.02899  0  -0.093591  -0.102548  0  3.960513  0
C  C73  1  0.40685450  0.81385276  0.07478171  1  0.029014  0  -0.093595  -0.102579  0  3.960513  0
C  C74  1  0.25835756  0.88682627  0.75106463  1  0.4812  0  0.051617  0.091489  0  3.98582  0
C  C75  1  0.74164435  0.11317219  0.24893519  1  0.481035  0  0.05164  0.091542  0  3.985798  0
C  C76  1  0.57925925  0.32013019  0.92252019  1  -0.058132  0  -0.095557  -0.103767  0  3.954143  0
C  C77  1  0.42073625  0.67987221  0.07747960  1  -0.058129  0  -0.095547  -0.103755  0  3.954282  0
C  C78  1  0.80699605  0.80829935  0.06506482  1  0.438167  0  0.037314  0.091534  0  3.973528  0
C  C79  1  0.19300229  0.19169912  0.93493485  1  0.438225  0  0.037285  0.09146  0  3.973535  0
C  C80  1  0.61553797  0.36996171  0.82143620  1  -0.19052  0  -0.029765  -0.130214  0  4.004364  0
C  C81  1  0.38446507  0.63003970  0.17856390  1  -0.190504  0  -0.029707  -0.130098  0  4.004163  0
C  C82  1  0.85335289  0.73271841  0.23677631  1  -0.063658  0  0.002227  0.091141  0  3.979678  0
C  C83  1  0.14664901  0.26728005  0.76322275  1  -0.06363  0  0.002208  0.09114  0  3.979595  0
C  C84  1  0.03351145  0.62595045  0.07781051  1  0.515224  0  0.041387  0.094737  0  3.990481  0
C  C85  1  0.96649165  0.37404802  0.92218835  1  0.515242  0  0.04138  0.094658  0  3.990536  0
S  S86  1  0.66711969  0.25255601  0.73033474  1  0.231289  0  0.091981  0.137125  0  3.010399  0
S  S87  1  0.33288335  0.74744540  0.26966536  1  0.23126  0  0.092006  0.137139  0  3.010365  0
N  N88  1  0.72565743  0.75681623  0.56744037  1  -1.236552  0  -0.321441  -0.27997  0  3.514788  0
N  N89  1  0.27434442  0.24318518  0.43255918  1  -1.236549  0  -0.321448  -0.28001  0  3.514777  0
N  N90  1  0.95001069  0.68041685  0.68825421  1  -1.224829  0  -0.326107  -0.268301  0  3.494233  0
N  N91  1  0.04999116  0.31958456  0.31174610  1  -1.224825  0  -0.326084  -0.268287  0  3.494184  0
N  N92  1  0.41121180  0.84438327  0.68693416  1  -1.267427  0  -0.324574  -0.273386  0  3.504863  0
N  N93  1  0.58879010  0.15561520  0.31306566  1  -1.267405  0  -0.324551  -0.273472  0  3.504922  0
N  N94  1  0.94234430  0.71172458  0.01681896  1  -1.201956  0  -0.321531  -0.271795  0  3.317295  0
N  N95  1  0.05765719  0.28827487  0.98318084  1  -1.201957  0  -0.321532  -0.271738  0  3.317303  0
O  O96  1  0.66825260  0.51887435  0.68426737  1  -1.165771  0  -0.330555  -0.562204  0  2.190319  0
O  O97  1  0.33177702  0.48112314  0.31573309  1  -1.165772  0  -0.330525  -0.562244  0  2.190333  0
O  O98  1  0.62452212  0.91923703  0.86055073  1  -1.157694  0  -0.328416  -0.533399  0  2.185608  0
O  O99  1  0.37547736  0.08076438  0.13944923  1  -1.157715  0  -0.328445  -0.533433  0  2.185584  0
O  O100  1  0.59693466  0.58769385  0.84945498  1  -1.1461  0  -0.330191  -0.533085  0  2.211313  0
O  O101  1  0.40305924  0.41230953  0.15054499  1  -1.145782  0  -0.330221  -0.533159  0  2.211294  0
O  O102  1  0.69679014  0.98866201  0.69393051  1  -1.164812  0  -0.333262  -0.566246  0  2.209156  0
O  O103  1  0.30320934  0.01133940  0.30606945  1  -1.164806  0  -0.333265  -0.566234  0  2.20911  0
