# generated using pymatgen
data_Sc2H3(C5O4)3
_symmetry_space_group_name_H-M   'P 1'
_cell_length_a   9.93860524
_cell_length_b   9.93865537
_cell_length_c   9.93861903
_cell_angle_alpha   107.58481946
_cell_angle_beta   107.58502105
_cell_angle_gamma   107.58520315
_symmetry_Int_Tables_number   1
_chemical_formula_structural   Sc2H3(C5O4)3
_chemical_formula_sum   'Sc4 H6 C30 O24'
_cell_volume   804.16586111
_cell_formula_units_Z   2
loop_
 _symmetry_equiv_pos_site_id
 _symmetry_equiv_pos_as_xyz
  1  'x, y, z'
loop_
 _atom_site_type_symbol
 _atom_site_label
 _atom_site_symmetry_multiplicity
 _atom_site_fract_x
 _atom_site_fract_y
 _atom_site_fract_z
 _atom_site_occupancy
 _atom_site_pbe_bader_spin_density
 _atom_site_pbe_cm5_charge
 _atom_site_pbe_ddec_charge
 _atom_site_pbe_ddec_spin_density
 _atom_site_pbe_ddec_sum_bond_order
 _atom_site_pbe_magmom
Sc  Sc0  1  0.00000156  0.50000401  0.50000040  1  0  1.287177  1.862639  0  2.256812  0
Sc  Sc1  1  0.50000253  0.00000194  0.50000656  1  0  1.287242  1.862623  0  2.256667  0
Sc  Sc2  1  0.50000278  0.50000293  0.00000153  1  0  1.287105  1.862559  0  2.257193  0
Sc  Sc3  1  0.49999853  0.49999800  0.49999881  1  0  1.234651  1.83633  0  1.999272  0
H  H4  1  0.67073457  0.13194710  0.89718297  1  0  0.119094  0.123779  0  0.998309  0
H  H5  1  0.89718310  0.67073311  0.13194824  1  0  0.11911  0.123818  0  0.998282  0
H  H6  1  0.13194768  0.89718020  0.67073515  1  0  0.119088  0.123783  0  0.998287  0
H  H7  1  0.32927090  0.86805125  0.10282494  1  0  0.119107  0.123792  0  0.998323  0
H  H8  1  0.10282288  0.32926641  0.86805011  1  0  0.119109  0.123823  0  0.998229  0
H  H9  1  0.86805087  0.10282166  0.32926670  1  0  0.119092  0.12378  0  0.998307  0
C  C10  1  0.69412946  0.33524363  0.16351893  1  0  0.263241  0.697291  0  4.115481  0
C  C11  1  0.16352232  0.69413129  0.33524973  1  0  0.263186  0.697134  0  4.115748  0
C  C12  1  0.33525192  0.16350344  0.69411688  1  0  0.263166  0.697034  0  4.115513  0
C  C13  1  0.30587336  0.66475589  0.83648450  1  0  0.263185  0.697168  0  4.115667  0
C  C14  1  0.83648467  0.30587057  0.66474864  1  0  0.263205  0.697178  0  4.115723  0
C  C15  1  0.66474663  0.83649842  0.30588799  1  0  0.26319  0.696974  0  4.115722  0
C  C16  1  0.58709338  0.16303765  0.07593548  1  0  0.00901  -0.035611  0  3.912661  0
C  C17  1  0.07593233  0.58709558  0.16303898  1  0  0.009038  -0.035522  0  3.912604  0
C  C18  1  0.16303604  0.07593245  0.58709581  1  0  0.008997  -0.035493  0  3.912625  0
C  C19  1  0.41290994  0.83696304  0.92407148  1  0  0.009015  -0.035508  0  3.912646  0
C  C20  1  0.92407255  0.41290628  0.83696277  1  0  0.008965  -0.035497  0  3.912482  0
C  C21  1  0.83696352  0.92407175  0.41290906  1  0  0.00897  -0.035497  0  3.912636  0
C  C22  1  0.49065674  0.08879984  0.13493747  1  0  0.001626  -0.055156  0  3.9083  0
C  C23  1  0.13493752  0.49065398  0.08879835  1  0  0.001666  -0.05522  0  3.908482  0
C  C24  1  0.08879827  0.13493610  0.49065728  1  0  0.001606  -0.055287  0  3.90835  0
C  C25  1  0.50934763  0.91120085  0.86506880  1  0  0.001668  -0.055269  0  3.908367  0
C  C26  1  0.86506947  0.50934788  0.91120404  1  0  0.001661  -0.055234  0  3.908392  0
C  C27  1  0.91120129  0.86506810  0.50934961  1  0  0.001672  -0.0553  0  3.908404  0
C  C28  1  0.59569683  0.07443393  0.94249521  1  0  -0.066498  -0.096111  0  3.916687  0
C  C29  1  0.94249520  0.59569406  0.07443176  1  0  -0.066494  -0.096146  0  3.916885  0
C  C30  1  0.07443216  0.94249266  0.59569696  1  0  -0.066498  -0.096147  0  3.916786  0
C  C31  1  0.40430598  0.92556560  0.05751124  1  0  -0.066514  -0.096269  0  3.916773  0
C  C32  1  0.05751183  0.40430546  0.92556893  1  0  -0.066496  -0.096229  0  3.916886  0
C  C33  1  0.92556689  0.05751037  0.40430540  1  0  -0.066502  -0.096171  0  3.916799  0
C  C34  1  0.48106006  0.17880913  0.28084717  1  0  0.262389  0.668842  0  4.092451  0
C  C35  1  0.28084212  0.48106492  0.17882106  1  0  0.262319  0.668835  0  4.092514  0
C  C36  1  0.17881819  0.28084299  0.48106232  1  0  0.262368  0.668907  0  4.092434  0
C  C37  1  0.51894064  0.82119039  0.71915764  1  0  0.262339  0.668889  0  4.092475  0
C  C38  1  0.71916437  0.51893578  0.82117880  1  0  0.262306  0.668842  0  4.092406  0
C  C39  1  0.82118247  0.71915887  0.51893816  1  0  0.262371  0.668981  0  4.092341  0
O  O40  1  0.51408666  0.32367210  0.32334724  1  0  -0.337667  -0.609601  0  2.260521  0
O  O41  1  0.32334469  0.51408334  0.32366675  1  0  -0.337582  -0.609502  0  2.260891  0
O  O42  1  0.32367169  0.32334454  0.51408903  1  0  -0.337618  -0.609596  0  2.260758  0
O  O43  1  0.48590826  0.67632625  0.67665144  1  0  -0.337614  -0.609591  0  2.260492  0
O  O44  1  0.67665559  0.48591032  0.67633114  1  0  -0.337574  -0.609523  0  2.260889  0
O  O45  1  0.67633062  0.67665381  0.48591390  1  0  -0.337604  -0.609554  0  2.260734  0
O  O46  1  0.43835855  0.10426795  0.35547817  1  0  -0.372656  -0.64442  0  2.334722  0
O  O47  1  0.35548707  0.43835898  0.10426509  1  0  -0.372719  -0.644538  0  2.334459  0
O  O48  1  0.10426635  0.35547849  0.43835623  1  0  -0.372681  -0.6445  0  2.33457  0
O  O49  1  0.56164528  0.89573391  0.64452930  1  0  -0.372671  -0.64446  0  2.334772  0
O  O50  1  0.64452511  0.56164757  0.89574029  1  0  -0.372728  -0.644582  0  2.33434  0
O  O51  1  0.89573637  0.64452572  0.56164558  1  0  -0.372732  -0.644618  0  2.334523  0
O  O52  1  0.82162404  0.37133966  0.27557225  1  0  -0.373514  -0.64776  0  2.308899  0
O  O53  1  0.27557451  0.82162213  0.37133482  1  0  -0.37351  -0.647719  0  2.308905  0
O  O54  1  0.37134354  0.27558525  0.82163658  1  0  -0.373592  -0.64781  0  2.308168  0
O  O55  1  0.17838025  0.62866572  0.72442736  1  0  -0.373445  -0.647635  0  2.30892  0
O  O56  1  0.72443147  0.17837739  0.62865951  1  0  -0.373438  -0.647673  0  2.308968  0
O  O57  1  0.62865703  0.72442130  0.17836428  1  0  -0.373555  -0.647761  0  2.308278  0
O  O58  1  0.66046481  0.43284980  0.12129395  1  0  -0.354395  -0.63852  0  2.341628  0
O  O59  1  0.12129885  0.66047103  0.43284930  1  0  -0.354367  -0.638472  0  2.341893  0
O  O60  1  0.43284071  0.12129897  0.66047369  1  0  -0.354233  -0.638273  0  2.342392  0
O  O61  1  0.33953488  0.56714738  0.87870381  1  0  -0.354385  -0.638498  0  2.341809  0
O  O62  1  0.87870544  0.33953435  0.56714931  1  0  -0.354399  -0.638525  0  2.341875  0
O  O63  1  0.56715687  0.87869821  0.33953350  1  0  -0.354249  -0.6382  0  2.342426  0
