# generated using pymatgen
data_Al4H28(C19O7)3
_symmetry_space_group_name_H-M   'P 1'
_cell_length_a   6.67695609
_cell_length_b   22.62685262
_cell_length_c   25.04863175
_cell_angle_alpha   72.27754361
_cell_angle_beta   89.80840702
_cell_angle_gamma   89.52950800
_symmetry_Int_Tables_number   1
_chemical_formula_structural   Al4H28(C19O7)3
_chemical_formula_sum   'Al4 H28 C57 O21'
_cell_volume   3604.59195446
_cell_formula_units_Z   1
loop_
 _symmetry_equiv_pos_site_id
 _symmetry_equiv_pos_as_xyz
  1  'x, y, z'
loop_
 _atom_site_type_symbol
 _atom_site_label
 _atom_site_symmetry_multiplicity
 _atom_site_fract_x
 _atom_site_fract_y
 _atom_site_fract_z
 _atom_site_occupancy
 _atom_site_pbe_bader_charge
 _atom_site_pbe_bader_spin_density
 _atom_site_pbe_cm5_charge
 _atom_site_pbe_ddec_charge
 _atom_site_pbe_ddec_spin_density
 _atom_site_pbe_ddec_sum_bond_order
 _atom_site_pbe_magmom
Al  Al0  1  0.86753285  0.49986333  0.50007783  1  2.5023  0  0.403977  1.650604  0  2.577309  0
Al  Al1  1  0.36758871  0.50038782  0.50013018  1  2.504444  0  0.40378  1.650384  0  2.580204  0
Al  Al2  1  0.32194322  0.00045690  0.99943241  1  2.501696  0  0.403004  1.64998  0  2.577353  0
Al  Al3  1  0.82224072  0.99975168  0.00005905  1  2.502097  0  0.404224  1.648168  0  2.578749  0
H  H4  1  0.39685798  0.90528466  0.88687648  1  0.073915  0  0.109216  0.11303  0  1.003518  0
H  H5  1  0.40513011  0.84244976  0.82084294  1  0.050919  0  0.097808  0.093314  0  1.027418  0
H  H6  1  0.76412001  0.82220549  0.83540260  1  0.046185  0  0.097368  0.092437  0  1.029161  0
H  H7  1  0.75778580  0.88787162  0.89905435  1  0.100689  0  0.108401  0.111308  0  1.006468  0
H  H8  1  0.80197363  0.81889494  0.74761374  1  0.053975  0  0.10213  0.100996  0  1.005204  0
H  H9  1  0.81129023  0.75359223  0.68542607  1  0.066761  0  0.101808  0.100601  0  1.006016  0
H  H10  1  0.38904799  0.68157331  0.75196548  1  0.054883  0  0.101717  0.100545  0  1.005817  0
H  H11  1  0.37970816  0.74683319  0.81421035  1  0.066626  0  0.101525  0.100225  0  1.006931  0
H  H12  1  0.42637693  0.67789051  0.66405275  1  0.045445  0  0.097395  0.092161  0  1.029381  0
H  H13  1  0.43101157  0.61205998  0.60053924  1  0.103034  0  0.10811  0.111271  0  1.006201  0
H  H14  1  0.79230542  0.59443568  0.61379573  1  0.076675  0  0.10907  0.112564  0  1.004285  0
H  H15  1  0.78545008  0.65771198  0.67947874  1  0.056678  0  0.09763  0.09285  0  1.027931  0
H  H16  1  0.86694587  0.13227411  0.07765557  1  0.098981  0  0.112108  0.115568  0  0.988621  0
H  H17  1  0.88440919  0.19964030  0.13900845  1  0.063649  0  0.105405  0.101358  0  0.998538  0
H  H18  1  0.29633005  0.13767643  0.20288898  1  0.105726  0  0.105079  0.106024  0  1.019719  0
H  H19  1  0.28673444  0.24410561  0.19904166  1  0.062179  0  0.100719  0.099122  0  1.009268  0
H  H20  1  0.29683802  0.30917742  0.26151562  1  0.049433  0  0.099249  0.095014  0  1.018848  0
H  H21  1  0.91657597  0.25837279  0.29884261  1  0.059227  0  0.099616  0.096682  0  1.015693  0
H  H22  1  0.90751877  0.19488452  0.23479081  1  0.068244  0  0.103505  0.103673  0  1.006141  0
H  H23  1  0.92659153  0.34944257  0.31187774  1  0.073667  0  0.098357  0.093958  0  1.023308  0
H  H24  1  0.93255067  0.41123720  0.37848333  1  0.102396  0  0.109266  0.113487  0  0.998318  0
H  H25  1  0.30305512  0.38069070  0.40894818  1  0.112834  0  0.108781  0.111816  0  1.002484  0
H  H26  1  0.29727659  0.31479465  0.34593264  1  0.056065  0  0.098595  0.094337  0  1.023069  0
H  H27  1  0.24279220  0.02015053  0.12997536  1  0.090131  0  0.108988  0.054846  0  0.993426  0
H  H28  1  0.61691703  0.58160375  0.47752879  1  0.624465  0  0.361174  0.441237  0  0.835941  0
H  H29  1  0.12059603  0.41854053  0.52013068  1  0.624115  0  0.361792  0.441406  0  0.835242  0
H  H30  1  0.57282949  0.91884511  0.02402017  1  0.636283  0  0.361131  0.441705  0  0.835328  0
H  H31  1  0.06881955  0.08128164  0.97446730  1  0.62918  0  0.360455  0.439854  0  0.839246  0
C  C32  1  0.61696897  0.41470863  0.58650149  1  1.693374  0  0.277465  0.698465  0  4.181641  0
C  C33  1  0.62094538  0.43703251  0.43751025  1  1.554937  0  0.266878  0.642236  0  4.101233  0
C  C34  1  0.11713907  0.58572713  0.41367716  1  1.697194  0  0.277975  0.702201  0  4.178342  0
C  C35  1  0.11362952  0.56273633  0.56303277  1  1.565428  0  0.26817  0.643212  0  4.099455  0
C  C36  1  0.25933376  0.88681549  0.87512330  1  0.024798  0  -0.079624  -0.080399  0  3.977871  0
C  C37  1  0.26287325  0.85119253  0.83869476  1  -0.043712  0  -0.090903  -0.135334  0  3.983803  0
C  C38  1  0.08529562  0.82723978  0.82350454  1  -0.04677  0  -0.000319  0.079814  0  3.99552  0
C  C39  1  0.90321701  0.84125102  0.84565695  1  -0.056407  0  -0.091055  -0.135439  0  3.985378  0
C  C40  1  0.89868419  0.87740485  0.88166663  1  -0.028913  0  -0.079719  -0.079985  0  3.979553  0
C  C41  1  0.07701460  0.90015786  0.89707584  1  -0.009152  0  -0.018008  -0.051104  0  3.981153  0
C  C42  1  0.93019131  0.78814279  0.74950690  1  -0.045315  0  -0.090469  -0.125029  0  3.991502  0
C  C43  1  0.93536254  0.75107404  0.71427522  1  -0.018066  0  -0.090773  -0.126448  0  3.991845  0
C  C44  1  0.10076578  0.71229629  0.71372550  1  -0.050274  0  -0.007875  0.06436  0  4.004898  0
C  C45  1  0.26102912  0.71240759  0.75004265  1  -0.048111  0  -0.090478  -0.125016  0  3.992735  0
C  C46  1  0.25578828  0.74943965  0.78529674  1  -0.03695  0  -0.091019  -0.127106  0  3.993568  0
C  C47  1  0.09035896  0.78820980  0.78585272  1  -0.038189  0  -0.008846  0.064041  0  4.005019  0
C  C48  1  0.28697758  0.65877362  0.65407829  1  -0.05118  0  -0.09099  -0.134977  0  3.984687  0
C  C49  1  0.29054292  0.62254601  0.61812232  1  -0.038375  0  -0.07907  -0.079182  0  3.977396  0
C  C50  1  0.11178583  0.59974975  0.60299756  1  -0.006356  0  -0.017415  -0.051399  0  3.979566  0
C  C51  1  0.93004778  0.61305509  0.62524597  1  -0.08586  0  -0.079434  -0.079758  0  3.977772  0
C  C52  1  0.92733812  0.64889740  0.66148579  1  0.054204  0  -0.090928  -0.134758  0  3.983578  0
C  C53  1  0.10530635  0.67297258  0.67631886  1  -0.040083  0  -0.001251  0.078223  0  3.996762  0
C  C54  1  0.07773006  0.86408139  0.13772460  1  0.097481  0  0.000661  -0.139593  0  3.827776  0
C  C55  1  0.08446759  0.82030397  0.18102122  1  -0.173822  0  -0.004651  0.034523  0  4.249341  0
C  C56  1  0.09220951  0.77229096  0.22822312  1  0.099681  0  0.00302  -0.001434  0  4.18042  0
C  C57  1  0.09977029  0.72798677  0.27154593  1  -0.161815  0  0.004878  0.002743  0  4.181506  0
C  C58  1  0.10725132  0.68003200  0.31880593  1  -0.195493  0  -0.006504  0.029208  0  4.254254  0
C  C59  1  0.11361160  0.63629993  0.36213828  1  0.149304  0  0.001878  -0.135809  0  3.823991  0
C  C60  1  0.61622293  0.36400354  0.63793755  1  0.147747  0  0.002603  -0.13264  0  3.824019  0
C  C61  1  0.60977133  0.32024832  0.68121853  1  -0.256086  0  -0.007342  0.026209  0  4.256482  0
C  C62  1  0.60143175  0.27227359  0.72839141  1  -0.107772  0  0.003978  0.003935  0  4.184762  0
C  C63  1  0.59183843  0.22796665  0.77164781  1  0.095318  0  0.00091  -0.00485  0  4.186254  0
C  C64  1  0.58234433  0.17993752  0.81876221  1  -0.220883  0  -0.006164  0.032567  0  4.258222  0
C  C65  1  0.57394999  0.13619693  0.86202178  1  0.144692  0  -0.001087  -0.142307  0  3.830062  0
C  C66  1  0.74146961  0.13459992  0.10480099  1  0.010476  0  -0.072781  -0.06637  0  3.971678  0
C  C67  1  0.75052598  0.17225912  0.13937184  1  0.000683  0  -0.072912  -0.100671  0  3.94473  0
C  C68  1  0.58894180  0.17556939  0.17451602  1  -0.023571  0  0.00138  0.076715  0  4.001651  0
C  C69  1  0.42077985  0.13909033  0.17418793  1  -0.034525  0  -0.074993  -0.142198  0  3.918101  0
C  C70  1  0.40966694  0.10051598  0.13997846  1  -0.008621  0  -0.013335  0.006645  0  3.968516  0
C  C71  1  0.57186584  0.09889520  0.10389569  1  -0.065557  0  -0.004396  -0.070106  0  3.922009  0
C  C72  1  0.42515215  0.24676148  0.22121922  1  -0.016833  0  -0.089672  -0.124709  0  3.992268  0
C  C73  1  0.43084941  0.28333754  0.25681027  1  -0.099021  0  -0.090934  -0.123975  0  3.993172  0
C  C74  1  0.60744929  0.28902683  0.28535951  1  0.003436  0  -0.008619  0.061977  0  4.000168  0
C  C75  1  0.77875642  0.25678917  0.27607751  1  -0.023163  0  -0.090022  -0.123406  0  3.988032  0
C  C76  1  0.77396514  0.22077309  0.23989906  1  -0.070724  0  -0.087766  -0.124759  0  3.984547  0
C  C77  1  0.59665066  0.21477690  0.21193722  1  -0.024796  0  -0.007105  0.067647  0  4.00445  0
C  C78  1  0.78992182  0.35477044  0.33400740  1  -0.090903  0  -0.091163  -0.135554  0  3.981973  0
C  C79  1  0.79399920  0.39003324  0.37076556  1  -0.024632  0  -0.079713  -0.082001  0  3.97952  0
C  C80  1  0.61822324  0.39975492  0.39780210  1  -0.032453  0  -0.017502  -0.049511  0  3.981463  0
C  C81  1  0.43898546  0.37318249  0.38760351  1  -0.019022  0  -0.080505  -0.081808  0  3.980928  0
C  C82  1  0.43648855  0.33699245  0.35167575  1  -0.072187  0  -0.091394  -0.135024  0  3.981539  0
C  C83  1  0.61151393  0.32716455  0.32383774  1  0.008612  0  -0.001067  0.079841  0  3.988959  0
C  C84  1  0.57101488  0.06248057  0.06320650  1  1.567392  0  0.269191  0.643039  0  4.097413  0
C  C85  1  0.57089195  0.08555025  0.91338755  1  1.698714  0  0.277631  0.703786  0  4.175294  0
C  C86  1  0.07374806  0.93717515  0.93703188  1  1.564039  0  0.267629  0.642719  0  4.101641  0
C  C87  1  0.07468367  0.91477069  0.08640606  1  1.688032  0  0.277763  0.701198  0  4.181266  0
C  C88  1  0.23368363  0.05856202  0.14865682  1  0.941931  0  0.099822  0.274047  0  3.932159  0
O  O89  1  0.45175154  0.44970271  0.45541901  1  -1.261006  0  -0.239685  -0.604712  0  2.357687  0
O  O90  1  0.78728594  0.43284909  0.56510326  1  -1.227869  0  -0.223123  -0.572102  0  2.281283  0
O  O91  1  0.94437009  0.54695216  0.54846189  1  -1.258282  0  -0.238271  -0.599246  0  2.350833  0
O  O92  1  0.79134885  0.45268743  0.45150799  1  -1.259078  0  -0.238197  -0.599219  0  2.345086  0
O  O93  1  0.94729566  0.56689011  0.43505800  1  -1.235608  0  -0.222655  -0.573591  0  2.285514  0
O  O94  1  0.44589850  0.43572724  0.56733195  1  -1.228257  0  -0.22147  -0.568307  0  2.283003  0
O  O95  1  0.61693464  0.53699722  0.49438875  1  -1.424781  0  -0.447535  -0.998943  0  2.205235  0
O  O96  1  0.28881097  0.56542377  0.43297965  1  -1.22367  0  -0.223189  -0.572093  0  2.276889  0
O  O97  1  0.28388665  0.55053314  0.54545413  1  -1.260797  0  -0.238512  -0.600362  0  2.349609  0
O  O98  1  0.11875097  0.46338406  0.50567863  1  -1.424481  0  -0.447725  -0.999911  0  2.209653  0
O  O99  1  0.74098922  0.06618560  0.93470578  1  -1.232651  0  -0.222627  -0.5748  0  2.285547  0
O  O100  1  0.40183128  0.05077107  0.04522859  1  -1.252553  0  -0.237811  -0.606617  0  2.371989  0
O  O101  1  0.24479695  0.93583458  0.06664570  1  -1.23518  0  -0.224772  -0.580735  0  2.291857  0
O  O102  1  0.39967483  0.06552597  0.93280763  1  -1.232574  0  -0.223255  -0.572908  0  2.280126  0
O  O103  1  0.24273383  0.95089095  0.95361397  1  -1.264536  0  -0.239757  -0.603386  0  2.352865  0
O  O104  1  0.74129547  0.04761787  0.04788685  1  -1.25256  0  -0.233936  -0.589434  0  2.349506  0
O  O105  1  0.57255512  0.96324092  0.00584084  1  -1.436175  0  -0.447279  -0.998155  0  2.202987  0
O  O106  1  0.90278500  0.95152191  0.95256135  1  -1.254127  0  -0.238489  -0.599895  0  2.348691  0
O  O107  1  0.90367379  0.93332785  0.06543271  1  -1.230567  0  -0.222035  -0.57101  0  2.281259  0
O  O108  1  0.07088478  0.03718148  0.99403474  1  -1.429014  0  -0.447529  -0.996021  0  2.20282  0
O  O109  1  0.08700464  0.06460880  0.17630711  1  -1.081011  0  -0.267564  -0.365772  0  2.139596  0
