# generated using pymatgen
data_ZnH23C24(N2O3)2
_symmetry_space_group_name_H-M   'P 1'
_cell_length_a   14.65694488
_cell_length_b   16.06705416
_cell_length_c   19.19307348
_cell_angle_alpha   90.02543635
_cell_angle_beta   90.14889631
_cell_angle_gamma   89.98279589
_symmetry_Int_Tables_number   1
_chemical_formula_structural   ZnH23C24(N2O3)2
_chemical_formula_sum   'Zn2 H46 C48 N8 O12'
_cell_volume   4519.83633872
_cell_formula_units_Z   2
loop_
 _symmetry_equiv_pos_site_id
 _symmetry_equiv_pos_as_xyz
  1  'x, y, z'
loop_
 _atom_site_type_symbol
 _atom_site_label
 _atom_site_symmetry_multiplicity
 _atom_site_fract_x
 _atom_site_fract_y
 _atom_site_fract_z
 _atom_site_occupancy
 _atom_site_pbe_bader_charge
 _atom_site_pbe_bader_spin_density
 _atom_site_pbe_cm5_charge
 _atom_site_pbe_ddec_charge
 _atom_site_pbe_ddec_spin_density
 _atom_site_pbe_ddec_sum_bond_order
 _atom_site_pbe_magmom
Zn  Zn0  1  0.40321146  0.49970243  0.50008588  1  1.334149  0  0.683201  0.889167  0  2.43496  0
Zn  Zn1  1  0.59567238  0.49814088  0.50027773  1  1.303279  0  0.680829  0.891251  0  2.425243  0
H  H2  1  0.35365883  0.50403843  0.27735677  1  0.127665  0  0.10521  0.109971  0  1.018955  0
H  H3  1  0.64500608  0.52613289  0.28118958  1  0.094099  0  0.103462  0.106722  0  1.008262  0
H  H4  1  0.35302630  0.52945216  0.14838946  1  0.112256  0  0.104068  0.102089  0  1.015944  0
H  H5  1  0.64560800  0.55214249  0.15210122  1  0.092976  0  0.104382  0.102426  0  1.01564  0
H  H6  1  0.35281957  0.53929187  0.84954224  1  0.074877  0  0.104313  0.102352  0  1.016913  0
H  H7  1  0.64645899  0.54210588  0.85074387  1  0.12602  0  0.104136  0.102649  0  1.015667  0
H  H8  1  0.35423945  0.51435452  0.72029985  1  0.08896  0  0.104897  0.110775  0  0.996988  0
H  H9  1  0.64656895  0.51710422  0.72150187  1  0.116414  0  0.104849  0.11159  0  0.997078  0
H  H10  1  0.43140171  0.92360980  0.60595335  1  0.018334  0  0.100768  0.11653  0  0.998896  0
H  H11  1  0.59358236  0.93548749  0.59276157  1  0.013606  0  0.100725  0.111778  0  0.989155  0
H  H12  1  0.64902545  0.92120519  0.51234969  1  0.107987  0  0.107935  0.127201  0  0.999682  0
H  H13  1  0.35660281  0.92997391  0.53360539  1  0.120728  0  0.107877  0.125203  0  1.000373  0
H  H14  1  0.41105667  0.06715281  0.41684574  1  0.073327  0  0.101938  0.110255  0  0.996206  0
H  H15  1  0.52641194  0.07459614  0.39495129  1  0.075949  0  0.102876  0.113909  0  0.999679  0
H  H16  1  0.42366876  0.92316990  0.41011168  1  0.04207  0  0.102184  0.109771  0  0.965852  0
H  H17  1  0.54331463  0.92928745  0.39953476  1  0.037023  0  0.098101  0.102699  0  0.96624  0
H  H18  1  0.07316391  0.40516914  0.56999790  1  0.047725  0  0.105559  0.108591  0  0.961581  0
H  H19  1  0.91629334  0.38515656  0.55332649  1  0.08155  0  0.106602  0.110158  0  0.962467  0
H  H20  1  0.91451029  0.61997206  0.55031682  1  0.060001  0  0.107723  0.111101  0  0.969833  0
H  H21  1  0.06984052  0.63099255  0.52360837  1  0.06985  0  0.103792  0.105755  0  0.977944  0
H  H22  1  0.93199540  0.53198144  0.60379612  1  0.043904  0  0.104123  0.105496  0  0.963387  0
H  H23  1  0.08810369  0.56196063  0.59380781  1  0.04475  0  0.106854  0.110031  0  0.962846  0
H  H24  1  0.91289354  0.49071551  0.38341372  1  0.033595  0  0.103505  0.076798  0  0.963633  0
H  H25  1  0.06188921  0.46332390  0.38660658  1  0.034674  0  0.102655  0.07751  0  0.962849  0
H  H26  1  0.92860540  0.37282497  0.46233125  1  0.062645  0  0.107041  0.110352  0  0.962777  0
H  H27  1  0.08609717  0.36660076  0.48438157  1  0.055705  0  0.110415  0.116291  0  0.958553  0
H  H28  1  0.93654694  0.61852305  0.29345811  1  0.03272  0  0.087231  0.111559  0  1.015049  0
H  H29  1  0.82365658  0.58972942  0.31579592  1  0.018141  0  0.091123  0.120204  0  0.999943  0
H  H30  1  0.85678976  0.69589979  0.31884710  1  0.044692  0  0.095641  0.127849  0  0.986479  0
H  H31  1  0.84598488  0.63288104  0.43749058  1  0.025436  0  0.096353  0.090165  0  0.98708  0
H  H32  1  0.95692036  0.66893872  0.42126737  1  0.024938  0  0.093653  0.085921  0  0.990433  0
H  H33  1  0.23304815  0.52381658  0.36293839  1  0.077206  0  0.087445  0.120998  0  1.035661  0
H  H34  1  0.15497154  0.51888021  0.29191219  1  0.05793  0  0.085117  0.110583  0  1.001086  0
H  H35  1  0.21709300  0.61157168  0.30906176  1  0.044109  0  0.094695  0.130385  0  0.983587  0
H  H36  1  0.05700445  0.62697661  0.34673737  1  0.0376  0  0.095291  0.09346  0  1.010224  0
H  H37  1  0.13059997  0.63541561  0.41815656  1  0.012263  0  0.092194  0.081837  0  0.990555  0
H  H38  1  0.41630018  0.97724599  0.70428489  1  0.013358  0  0.090859  0.118548  0  0.99966  0
H  H39  1  0.53033727  0.00249249  0.68250156  1  0.02967  0  0.085196  0.106891  0  1.039674  0
H  H40  1  0.46791922  0.06714494  0.73973900  1  0.019962  0  0.095958  0.128853  0  0.982724  0
H  H41  1  0.46222428  0.14331702  0.63103328  1  0.032969  0  0.097945  0.10106  0  0.998459  0
H  H42  1  0.35582145  0.10067353  0.64645476  1  0.056036  0  0.10441  0.109902  0  0.976282  0
H  H43  1  0.76166922  0.15643254  0.54800138  1  0.03032  0  0.085993  0.114793  0  1.007685  0
H  H44  1  0.66034153  0.21680393  0.55564078  1  0.082559  0  0.089059  0.132559  0  1.033872  0
H  H45  1  0.72438505  0.19006438  0.63108164  1  0.03672  0  0.089477  0.121741  0  0.990406  0
H  H46  1  0.59340222  0.09916181  0.63017860  1  0.052441  0  0.100549  0.10804  0  1.017939  0
H  H47  1  0.69183904  0.03973347  0.61356728  1  0.037114  0  0.097735  0.098846  0  0.972337  0
C  C48  1  0.49735530  0.33708833  0.50177955  1  1.662635  0  0.221418  0.669608  0  4.240336  0
C  C49  1  0.49879748  0.50344902  0.36432374  1  1.565812  0  0.216073  0.591697  0  4.174184  0
C  C50  1  0.50037370  0.66168061  0.50134302  1  1.628551  0  0.215379  0.673566  0  4.242856  0
C  C51  1  0.50073070  0.50430041  0.63593574  1  1.584097  0  0.214447  0.589014  0  4.181134  0
C  C52  1  0.41700202  0.51444913  0.24918301  1  -0.073917  0  -0.081707  -0.090694  0  3.968238  0
C  C53  1  0.58173814  0.52688092  0.25126488  1  -0.001359  0  -0.081763  -0.08792  0  3.972046  0
C  C54  1  0.41672146  0.52845605  0.17776748  1  -0.006404  0  -0.083091  -0.109036  0  3.97251  0
C  C55  1  0.58203263  0.54114933  0.17986690  1  -0.055005  0  -0.083232  -0.108965  0  3.968946  0
C  C56  1  0.49929388  0.54282801  0.14254794  1  -0.078934  0  -0.00665  0.016683  0  4.007299  0
C  C57  1  0.49928507  0.51427155  0.28661902  1  -0.008475  0  -0.007652  -0.011786  0  3.934974  0
C  C58  1  0.49902413  0.55892474  0.93293513  1  0.950003  0  0.237835  0.247787  0  3.997069  0
C  C59  1  0.49890732  0.55910726  0.06748599  1  0.947419  0  0.23834  0.247796  0  3.995811  0
C  C60  1  0.41685283  0.53399917  0.82119461  1  0.014936  0  -0.083962  -0.109723  0  3.973642  0
C  C61  1  0.58276285  0.53560947  0.82188908  1  -0.045573  0  -0.084021  -0.109904  0  3.973578  0
C  C62  1  0.41755726  0.52026874  0.74972693  1  -0.092027  0  -0.08211  -0.08753  0  3.971953  0
C  C63  1  0.58290099  0.52184410  0.75040556  1  -0.082474  0  -0.083243  -0.091174  0  3.97516  0
C  C64  1  0.50043622  0.51484773  0.71366936  1  0.039134  0  -0.009264  -0.014109  0  3.939552  0
C  C65  1  0.49957727  0.54267359  0.85784202  1  -0.0417  0  -0.007073  0.015012  0  4.009141  0
C  C66  1  0.42421543  0.04613766  0.55832609  1  0.201616  0  0.091287  0.121942  0  3.511023  0
C  C67  1  0.59826191  0.04579551  0.52792877  1  0.191837  0  0.087578  0.112371  0  3.574185  0
C  C68  1  0.59023129  0.95112361  0.53708063  1  -0.029688  0  -0.159331  -0.292699  0  3.866905  0
C  C69  1  0.42264997  0.95067219  0.55400571  1  -0.060634  0  -0.161057  -0.282669  0  3.83906  0
C  C70  1  0.50055693  0.75178461  0.50409709  1  0.141203  0  -0.057802  -0.202771  0  3.986692  0
C  C71  1  0.50160202  0.08156452  0.50613486  1  0.148335  0  0.017973  0.06748  0  3.780815  0
C  C72  1  0.49978243  0.91773251  0.50690350  1  0.171576  0  0.001161  0.201058  0  3.90241  0
C  C73  1  0.48609865  0.95071537  0.43177824  1  0.005999  0  -0.154083  -0.190527  0  3.842032  0
C  C74  1  0.47932374  0.04650953  0.43218120  1  -0.065506  0  -0.164188  -0.20995  0  3.86231  0
C  C75  1  0.50006327  0.82735460  0.50631678  1  -0.451636  0  -0.033973  -0.052298  0  4.026247  0
C  C76  1  0.49995717  0.17164703  0.50539317  1  -0.490227  0  -0.036494  -0.05395  0  4.087323  0
C  C77  1  0.49656449  0.24705920  0.50368061  1  0.206494  0  -0.036881  -0.159633  0  3.922793  0
C  C78  1  0.94843573  0.41190777  0.50682678  1  -0.079079  0  -0.14338  -0.18694  0  3.863602  0
C  C79  1  0.05297595  0.41527919  0.51548818  1  0.000578  0  -0.143583  -0.189171  0  3.858992  0
C  C80  1  0.94867042  0.55931060  0.55293931  1  -0.039561  0  -0.144801  -0.182062  0  3.85136  0
C  C81  1  0.05253625  0.56903639  0.54374625  1  -0.023908  0  -0.144689  -0.188002  0  3.851555  0
C  C82  1  0.91220217  0.50135343  0.49467307  1  0.199316  0  0.012908  0.074053  0  3.901104  0
C  C83  1  0.08713909  0.50210367  0.49183640  1  0.186873  0  0.013642  0.076196  0  3.880895  0
C  C84  1  0.05045985  0.52074126  0.41669695  1  0.015003  0  -0.069109  -0.044806  0  3.709286  0
C  C85  1  0.94397330  0.53318794  0.42176125  1  0.010746  0  -0.071491  -0.051134  0  3.727436  0
C  C86  1  0.18589090  0.50174196  0.49429858  1  0.863281  0  0.248772  0.307593  0  3.866  0
C  C87  1  0.81339779  0.49968581  0.49681073  1  0.787875  0  0.245317  0.299943  0  3.880847  0
C  C88  1  0.90712091  0.62116473  0.40571749  1  -0.024236  0  -0.164174  -0.138356  0  3.944539  0
C  C89  1  0.87996703  0.63209965  0.32920304  1  -0.060258  0  -0.239187  -0.352844  0  3.964082  0
C  C90  1  0.10366787  0.59082776  0.37960039  1  -0.025393  0  -0.165634  -0.137888  0  3.941511  0
C  C91  1  0.18158035  0.55910892  0.33369512  1  -0.139633  0  -0.246078  -0.365204  0  3.963797  0
C  C92  1  0.42605336  0.08348277  0.63306878  1  -0.007204  0  -0.165358  -0.180691  0  3.917101  0
C  C93  1  0.46259261  0.02900390  0.69235027  1  -0.045919  0  -0.24307  -0.350697  0  3.975889  0
C  C94  1  0.64631966  0.08734522  0.59130662  1  -0.023109  0  -0.159374  -0.174466  0  3.914687  0
C  C95  1  0.70084981  0.16744674  0.58006570  1  -0.093515  0  -0.251921  -0.363157  0  3.957286  0
N  N96  1  0.57925891  0.57269758  0.03465728  1  -0.471832  0  -0.160055  -0.153919  0  3.225211  0
N  N97  1  0.41777110  0.56841032  0.03428350  1  -0.463787  0  -0.160879  -0.155441  0  3.223315  0
N  N98  1  0.57934953  0.57281561  0.96611687  1  -0.625478  0  -0.160378  -0.154901  0  3.223957  0
N  N99  1  0.41788105  0.56808832  0.96574963  1  -0.655423  0  -0.160462  -0.154738  0  3.226081  0
N  N100  1  0.26463412  0.50064621  0.49950076  1  -1.224282  0  -0.286908  -0.302254  0  3.119723  0
N  N101  1  0.73445447  0.49757249  0.49887355  1  -1.144729  0  -0.287448  -0.302835  0  3.126492  0
N  N102  1  0.66886093  0.06246346  0.46725098  1  0.467963  0  0.053506  0.495507  0  4.087552  0
N  N103  1  0.33144850  0.07969335  0.52573285  1  0.478453  0  0.05067  0.480155  0  4.101236  0
O  O104  1  0.42014154  0.37288944  0.49860222  1  -1.138354  0  -0.313144  -0.54133  0  2.260022  0
O  O105  1  0.57584790  0.37109283  0.50368756  1  -1.136372  0  -0.312207  -0.545457  0  2.249404  0
O  O106  1  0.42113125  0.50199686  0.39388235  1  -1.1543  0  -0.314324  -0.550294  0  2.325055  0
O  O107  1  0.57608264  0.49801892  0.39449296  1  -1.162852  0  -0.31828  -0.553607  0  2.320634  0
O  O108  1  0.42232137  0.62692737  0.50147804  1  -1.152143  0  -0.318017  -0.550107  0  2.252593  0
O  O109  1  0.57800899  0.62624923  0.49911343  1  -1.13456  0  -0.318094  -0.552  0  2.246399  0
O  O110  1  0.42332884  0.49954063  0.60594773  1  -1.162684  0  -0.317906  -0.552415  0  2.323329  0
O  O111  1  0.57832215  0.50225787  0.60625819  1  -1.169003  0  -0.318819  -0.552726  0  2.320894  0
O  O112  1  0.65981378  0.12581746  0.43180085  1  -0.437362  0  -0.110272  -0.305006  0  1.967357  0
O  O113  1  0.73446891  0.01424687  0.46342864  1  -0.456988  0  -0.138991  -0.33664  0  1.908238  0
O  O114  1  0.30950799  0.15144913  0.54087378  1  -0.432073  0  -0.118766  -0.312336  0  1.954823  0
O  O115  1  0.28734133  0.03362623  0.48636485  1  -0.462451  0  -0.137873  -0.333314  0  1.941593  0
