# generated using pymatgen
data_GaH8C4Cl3O2
_symmetry_space_group_name_H-M   'P 1'
_cell_length_a   6.33917201
_cell_length_b   6.46337402
_cell_length_c   12.48931616
_cell_angle_alpha   103.15518484
_cell_angle_beta   90.00114799
_cell_angle_gamma   119.36777285
_symmetry_Int_Tables_number   1
_chemical_formula_structural   GaH8C4Cl3O2
_chemical_formula_sum   'Ga2 H16 C8 Cl6 O4'
_cell_volume   430.47998536
_cell_formula_units_Z   2
loop_
 _symmetry_equiv_pos_site_id
 _symmetry_equiv_pos_as_xyz
  1  'x, y, z'
loop_
 _atom_site_type_symbol
 _atom_site_label
 _atom_site_symmetry_multiplicity
 _atom_site_fract_x
 _atom_site_fract_y
 _atom_site_fract_z
 _atom_site_occupancy
 _atom_site_hle17_bader_spin_density
 _atom_site_hle17_ddec_charge
 _atom_site_hle17_ddec_spin_density
 _atom_site_hle17_ddec_sum_bond_order
 _atom_site_hle17_magmom
 _atom_site_hse06_10hf_bader_spin_density
 _atom_site_hse06_10hf_ddec_charge
 _atom_site_hse06_10hf_ddec_spin_density
 _atom_site_hse06_10hf_ddec_sum_bond_order
 _atom_site_hse06_10hf_magmom
 _atom_site_hse06_bader_spin_density
 _atom_site_hse06_ddec_charge
 _atom_site_hse06_ddec_spin_density
 _atom_site_hse06_ddec_sum_bond_order
 _atom_site_hse06_magmom
 _atom_site_pbe_bader_spin_density
 _atom_site_pbe_cm5_charge
 _atom_site_pbe_ddec_charge
 _atom_site_pbe_ddec_spin_density
 _atom_site_pbe_ddec_sum_bond_order
 _atom_site_pbe_magmom
Ga  Ga0  1  0.78467615  0.00000122  0.75000312  1  0  1.162418  0  2.632308  0  0  1.021378  0  3.071476  0  0  1.070519  0  3.036612  0  0  0.357358  0.98767  0  3.094864  0
Ga  Ga1  1  0.21533484  0.00000007  0.24999812  1  0  1.162345  0  2.632136  0  0  1.021204  0  3.071359  0  0  1.07035  0  3.0365  0  0  0.35738  0.987505  0  3.094737  0
H  H2  1  0.93190607  0.78754093  0.53261302  1  0  0.077109  0  0.949817  0  0  0.089319  0  1.017775  0  0  0.089474  0  1.017806  0  0  0.104146  0.089146  0  1.017858  0
H  H3  1  0.85564766  0.78755469  0.03259283  1  0  0.077253  0  0.949469  0  0  0.089397  0  1.017592  0  0  0.089547  0  1.017628  0  0  0.104202  0.08923  0  1.017646  0
H  H4  1  0.06806549  0.21244211  0.46738797  1  0  0.077164  0  0.949362  0  0  0.089362  0  1.01744  0  0  0.089514  0  1.017474  0  0  0.104199  0.089189  0  1.017522  0
H  H5  1  0.14434149  0.21245405  0.96741290  1  0  0.077138  0  0.949836  0  0  0.08929  0  1.017952  0  0  0.08944  0  1.017995  0  0  0.104148  0.089122  0  1.018008  0
H  H6  1  0.69938132  0.81418591  0.46461292  1  0  0.070389  0  0.943932  0  0  0.076822  0  1.02092  0  0  0.078011  0  1.019606  0  0  0.094974  0.075917  0  1.021976  0
H  H7  1  0.11479566  0.81415820  0.96460522  1  0  0.070327  0  0.944035  0  0  0.07677  0  1.021085  0  0  0.077953  0  1.019782  0  0  0.094953  0.075852  0  1.022133  0
H  H8  1  0.30060986  0.18581741  0.53538815  1  0  0.070202  0  0.943902  0  0  0.076747  0  1.020841  0  0  0.077931  0  1.019534  0  0  0.094951  0.075842  0  1.021894  0
H  H9  1  0.88519285  0.18585242  0.03539914  1  0  0.070347  0  0.944062  0  0  0.076777  0  1.021147  0  0  0.077966  0  1.019843  0  0  0.094954  0.075854  0  1.022203  0
H  H10  1  0.31142074  0.66804034  0.53484488  1  0  0.072342  0  0.938388  0  0  0.083302  0  1.006684  0  0  0.084305  0  1.005586  0  0  0.094034  0.082525  0  1.007564  0
H  H11  1  0.35662822  0.66803934  0.03486187  1  0  0.072394  0  0.938494  0  0  0.083358  0  1.006784  0  0  0.084358  0  1.005695  0  0  0.094079  0.082568  0  1.007672  0
H  H12  1  0.68856858  0.33196873  0.46514648  1  0  0.072372  0  0.938618  0  0  0.083309  0  1.006898  0  0  0.084313  0  1.0058  0  0  0.094104  0.082536  0  1.007776  0
H  H13  1  0.64335811  0.33195114  0.96513603  1  0  0.072296  0  0.938283  0  0  0.083211  0  1.006587  0  0  0.084208  0  1.0055  0  0  0.094006  0.082424  0  1.007475  0
H  H14  1  0.26897364  0.53328828  0.64973904  1  0  0.083697  0  0.956245  0  0  0.092092  0  1.027946  0  0  0.092666  0  1.02757  0  0  0.101866  0.0916  0  1.028336  0
H  H15  1  0.26429790  0.53329726  0.14975543  1  0  0.083626  0  0.956185  0  0  0.092048  0  1.027849  0  0  0.092623  0  1.027472  0  0  0.101828  0.091561  0  1.028225  0
H  H16  1  0.73101437  0.46671502  0.35026282  1  0  0.083537  0  0.956385  0  0  0.091985  0  1.028  0  0  0.092557  0  1.027626  0  0  0.101819  0.091494  0  1.028394  0
H  H17  1  0.73571504  0.46671172  0.85023993  1  0  0.08372  0  0.956009  0  0  0.092087  0  1.027652  0  0  0.092665  0  1.027266  0  0  0.101834  0.091601  0  1.028028  0
C  C18  1  0.73606913  0.69819941  0.50491161  1  0  0.040684  0  3.610119  0  0  -0.022187  0  3.875476  0  0  -0.015296  0  3.881021  0  0  -0.077011  -0.026839  0  3.87167  0
C  C19  1  0.96217442  0.69823384  0.00492493  1  0  0.040972  0  3.61153  0  0  -0.02229  0  3.877146  0  0  -0.015398  0  3.882683  0  0  -0.076992  -0.026918  0  3.873327  0
C  C20  1  0.26394377  0.30179688  0.49507419  1  0  0.040999  0  3.610971  0  0  -0.022091  0  3.876639  0  0  -0.015198  0  3.882172  0  0  -0.076966  -0.026747  0  3.872845  0
C  C21  1  0.03783528  0.30176551  0.99508847  1  0  0.040981  0  3.610713  0  0  -0.022165  0  3.876484  0  0  -0.015285  0  3.882042  0  0  -0.077007  -0.026804  0  3.87265  0
C  C22  1  0.35244846  0.55210486  0.57315602  1  0  0.044752  0  3.592216  0  0  -0.016484  0  3.855209  0  0  -0.009609  0  3.860178  0  0  -0.077647  -0.021136  0  3.851891  0
C  C23  1  0.19967572  0.55215098  0.07317948  1  0  0.045127  0  3.591126  0  0  -0.01635  0  3.854058  0  0  -0.009472  0  3.859023  0  0  -0.077456  -0.020975  0  3.85071  0
C  C24  1  0.64750806  0.44781969  0.42682182  1  0  0.045233  0  3.59204  0  0  -0.016046  0  3.854906  0  0  -0.009176  0  3.859879  0  0  -0.077444  -0.020702  0  3.851608  0
C  C25  1  0.80034991  0.44790549  0.92683609  1  0  0.044922  0  3.590869  0  0  -0.01622  0  3.85362  0  0  -0.009338  0  3.85857  0  0  -0.077458  -0.02087  0  3.850285  0
Cl  Cl26  1  0.73053050  0.21592960  0.65280155  1  0  -0.415647  0  1.054748  0  0  -0.373269  0  1.316045  0  0  -0.38575  0  1.298538  0  0  -0.14229  -0.364776  0  1.328067  0
Cl  Cl27  1  0.48543980  0.21595379  0.15280751  1  0  -0.415642  0  1.054746  0  0  -0.373266  0  1.316039  0  0  -0.385755  0  1.298563  0  0  -0.14228  -0.364722  0  1.327996  0
Cl  Cl28  1  0.26948610  0.78406462  0.34719440  1  0  -0.415632  0  1.054784  0  0  -0.373252  0  1.316087  0  0  -0.385729  0  1.298579  0  0  -0.142271  -0.364756  0  1.328103  0
Cl  Cl29  1  0.51458358  0.78404767  0.84719414  1  0  -0.415711  0  1.054797  0  0  -0.373325  0  1.316055  0  0  -0.385805  0  1.298562  0  0  -0.142306  -0.364782  0  1.328013  0
Cl  Cl30  1  0.12789887  0.00001252  0.75000396  1  0  -0.433456  0  1.041406  0  0  -0.396379  0  1.298515  0  0  -0.410029  0  1.282538  0  0  -0.154069  -0.387041  0  1.309405  0
Cl  Cl31  1  0.87210696  0.99998540  0.24999084  1  0  -0.433448  0  1.041423  0  0  -0.396388  0  1.298583  0  0  -0.410037  0  1.282608  0  0  -0.154044  -0.387049  0  1.309469  0
O  O32  1  0.61527175  0.67500780  0.60418126  1  0  -0.338099  0  2.363984  0  0  -0.24238  0  2.600373  0  0  -0.264327  0  2.606015  0  0  -0.199825  -0.227045  0  2.596203  0
O  O33  1  0.05970543  0.67502622  0.10414028  1  0  -0.338448  0  2.365211  0  0  -0.241952  0  2.601174  0  0  -0.263896  0  2.606812  0  0  -0.199924  -0.226683  0  2.596938  0
O  O34  1  0.38473627  0.32500397  0.39585367  1  0  -0.337965  0  2.365103  0  0  -0.242186  0  2.601563  0  0  -0.264124  0  2.607208  0  0  -0.199946  -0.226858  0  2.597389  0
O  O35  1  0.94029107  0.32497199  0.89584255  1  0  -0.338296  0  2.364065  0  0  -0.242227  0  2.600206  0  0  -0.264176  0  2.605837  0  0  -0.199898  -0.22693  0  2.595961  0
