# generated using pymatgen
data_ZnH16C18(NO)3
_symmetry_space_group_name_H-M   'P 1'
_cell_length_a   16.34131432
_cell_length_b   16.76968887
_cell_length_c   19.59550394
_cell_angle_alpha   80.18725179
_cell_angle_beta   65.35717941
_cell_angle_gamma   60.84651971
_symmetry_Int_Tables_number   1
_chemical_formula_structural   ZnH16C18(NO)3
_chemical_formula_sum   'Zn8 H128 C144 N24 O24'
_cell_volume   4258.92536038
_cell_formula_units_Z   8
loop_
 _symmetry_equiv_pos_site_id
 _symmetry_equiv_pos_as_xyz
  1  'x, y, z'
loop_
 _atom_site_type_symbol
 _atom_site_label
 _atom_site_symmetry_multiplicity
 _atom_site_fract_x
 _atom_site_fract_y
 _atom_site_fract_z
 _atom_site_occupancy
 _atom_site_pbe_bader_charge
 _atom_site_pbe_bader_spin_density
 _atom_site_pbe_cm5_charge
 _atom_site_pbe_ddec_charge
 _atom_site_pbe_ddec_spin_density
 _atom_site_pbe_ddec_sum_bond_order
 _atom_site_pbe_magmom
Zn  Zn0  1  0.65592756  0.58193471  0.37248865  1  1.257454  0  0.715055  0.764941  0  2.463213  0
Zn  Zn1  1  0.11024463  0.91803488  0.12748354  1  1.251088  0  0.715866  0.764853  0  2.465187  0
Zn  Zn2  1  0.34407119  0.41806604  0.62751226  1  1.257421  0  0.715036  0.764902  0  2.463266  0
Zn  Zn3  1  0.88975301  0.08196518  0.87251812  1  1.251093  0  0.715877  0.764911  0  2.465135  0
Zn  Zn4  1  0.82576076  0.62084656  0.40939194  1  1.254879  0  0.720947  0.765253  0  2.507795  0
Zn  Zn5  1  0.35592253  0.87901101  0.09064840  1  1.253848  0  0.721649  0.766618  0  2.506646  0
Zn  Zn6  1  0.17424122  0.37915076  0.59060807  1  1.254707  0  0.720922  0.765153  0  2.507867  0
Zn  Zn7  1  0.64407615  0.12098564  0.90935118  1  1.253888  0  0.721645  0.766622  0  2.506577  0
H  H8  1  0.59872332  0.31804338  0.76510235  1  0.127172  0  0.105246  0.118344  0  1.014343  0
H  H9  1  0.18194895  0.18163918  0.73472619  1  0.12087  0  0.105647  0.118735  0  1.014436  0
H  H10  1  0.40127833  0.68195462  0.23489297  1  0.127004  0  0.10529  0.118419  0  1.014296  0
H  H11  1  0.81804965  0.81836225  0.26527721  1  0.120834  0  0.105662  0.118758  0  1.014541  0
H  H12  1  0.59348956  0.41886208  0.65675226  1  0.055663  0  0.100666  0.106115  0  1.013188  0
H  H13  1  0.16932569  0.08073134  0.84302447  1  0.069007  0  0.100586  0.105469  0  1.013812  0
H  H14  1  0.40651502  0.58113592  0.34324150  1  0.056007  0  0.10069  0.106117  0  1.013284  0
H  H15  1  0.83067335  0.91927010  0.15697916  1  0.069099  0  0.100596  0.105492  0  1.013816  0
H  H16  1  0.92144880  0.28491722  0.55710296  1  0.051883  0  0.09922  0.105422  0  1.036631  0
H  H17  1  0.26321073  0.21497612  0.94285674  1  0.084614  0  0.100185  0.106861  0  1.035036  0
H  H18  1  0.07855533  0.71507806  0.44289522  1  0.051924  0  0.099177  0.105396  0  1.036515  0
H  H19  1  0.73678988  0.78502326  0.05714632  1  0.084505  0  0.100142  0.106785  0  1.035019  0
H  H20  1  0.92629783  0.18222894  0.66426172  1  0.102422  0  0.107845  0.118194  0  1.001394  0
H  H21  1  0.27242718  0.31774513  0.83573422  1  0.108914  0  0.107697  0.117716  0  1.001399  0
H  H22  1  0.07370311  0.81776771  0.33573830  1  0.102478  0  0.107817  0.118173  0  1.001417  0
H  H23  1  0.72757352  0.68225494  0.16426909  1  0.108924  0  0.107689  0.117678  0  1.001457  0
H  H24  1  0.61618008  0.43216107  0.43847281  1  0.081327  0  0.095693  0.142275  0  1.014579  0
H  H25  1  0.98678545  0.06790116  0.06145500  1  0.043386  0  0.095948  0.14261  0  1.01534  0
H  H26  1  0.38381777  0.56784173  0.56152667  1  0.081437  0  0.095723  0.142316  0  1.014508  0
H  H27  1  0.01321046  0.93210096  0.93854872  1  0.043637  0  0.095961  0.142636  0  1.015313  0
H  H28  1  0.55907366  0.43729202  0.53850921  1  0.055268  0  0.091831  0.130834  0  1.021456  0
H  H29  1  0.03490740  0.06276081  0.96139342  1  0.054804  0  0.092493  0.1319  0  1.020503  0
H  H30  1  0.44092375  0.56271077  0.46149003  1  0.055486  0  0.091823  0.130843  0  1.021466  0
H  H31  1  0.96509163  0.93723994  0.03860921  1  0.054716  0  0.09247  0.131861  0  1.020518  0
H  H32  1  0.66840338  0.33687084  0.49042172  1  0.056785  0  0.093961  0.13752  0  1.012004  0
H  H33  1  0.99596948  0.16310414  0.00948090  1  0.058449  0  0.094232  0.138007  0  1.011601  0
H  H34  1  0.33159291  0.66313059  0.50957728  1  0.056751  0  0.093953  0.137535  0  1.012025  0
H  H35  1  0.00402703  0.83689798  0.99052157  1  0.058497  0  0.094232  0.137998  0  1.01165  0
H  H36  1  0.86840687  0.54867459  0.53877906  1  0.077448  0  0.093833  0.137904  0  1.024628  0
H  H37  1  0.45595161  0.95104204  0.96116505  1  0.07459  0  0.094496  0.138796  0  1.025585  0
H  H38  1  0.13159344  0.45132341  0.46122026  1  0.077426  0  0.093848  0.137947  0  1.024625  0
H  H39  1  0.54404725  0.04895666  0.03883606  1  0.074596  0  0.094496  0.138813  0  1.025505  0
H  H40  1  0.95484950  0.43092572  0.51281353  1  0.031939  0  0.094892  0.138433  0  0.994895  0
H  H41  1  0.39867548  0.06876613  0.98715090  1  0.03011  0  0.094836  0.138674  0  0.99531  0
H  H42  1  0.04515212  0.56907229  0.48718650  1  0.03195  0  0.094888  0.138464  0  0.994908  0
H  H43  1  0.60132405  0.93123324  0.01284921  1  0.030102  0  0.094865  0.13869  0  0.995228  0
H  H44  1  0.85547143  0.46243329  0.60269287  1  0.058735  0  0.094024  0.136035  0  1.016538  0
H  H45  1  0.42082606  0.03727448  0.89722372  1  0.028428  0  0.094005  0.136659  0  1.015238  0
H  H46  1  0.14452766  0.53756540  0.39730600  1  0.058692  0  0.094008  0.136044  0  1.016515  0
H  H47  1  0.57917027  0.96272558  0.10277723  1  0.02839  0  0.093998  0.136664  0  1.015216  0
H  H48  1  0.62656017  0.59993469  0.11561034  1  0.103337  0  0.101889  0.11017  0  1.029123  0
H  H49  1  0.84191332  0.90016307  0.38439150  1  0.151694  0  0.101971  0.10985  0  1.029272  0
H  H50  1  0.37344448  0.40006538  0.88439040  1  0.103316  0  0.101885  0.110213  0  1.029087  0
H  H51  1  0.15808888  0.09983904  0.61560934  1  0.151773  0  0.101977  0.10988  0  1.029266  0
H  H52  1  0.71333203  0.49612790  0.00288888  1  0.063098  0  0.096763  0.099505  0  1.02769  0
H  H53  1  0.71210622  0.00402610  0.49705391  1  0.066461  0  0.096552  0.098713  0  1.028243  0
H  H54  1  0.28666799  0.50387421  0.99711077  1  0.063218  0  0.09679  0.099561  0  1.027647  0
H  H55  1  0.28789496  0.99597602  0.50294795  1  0.066153  0  0.096578  0.098753  0  1.028263  0
H  H56  1  0.79049791  0.26284403  0.14031668  1  0.064391  0  0.099581  0.102696  0  1.004889  0
H  H57  1  0.69378007  0.23723897  0.35958727  1  0.071957  0  0.09933  0.102271  0  1.005618  0
H  H58  1  0.20949984  0.73715671  0.85968053  1  0.06437  0  0.099577  0.102677  0  1.004884  0
H  H59  1  0.30621589  0.76276520  0.64041476  1  0.072025  0  0.099335  0.102218  0  1.005631  0
H  H60  1  0.70561271  0.36752058  0.25230259  1  0.10235  0  0.100267  0.104869  0  1.01198  0
H  H61  1  0.82569816  0.13248628  0.24766391  1  0.07294  0  0.099874  0.10479  0  1.011557  0
H  H62  1  0.29438828  0.63247811  0.74769574  1  0.102323  0  0.100245  0.104837  0  1.011983  0
H  H63  1  0.17429779  0.86751720  0.75233711  1  0.072946  0  0.099865  0.104794  0  1.011571  0
H  H64  1  0.65807590  0.22532651  0.01029187  1  0.062003  0  0.099969  0.148073  0  1.006121  0
H  H65  1  0.39339810  0.27473638  0.48982181  1  0.065304  0  0.098999  0.146266  0  1.007925  0
H  H66  1  0.34192304  0.77467287  0.98970949  1  0.062242  0  0.09995  0.148048  0  1.006153  0
H  H67  1  0.60660180  0.72526369  0.51018029  1  0.065292  0  0.098968  0.146204  0  1.008008  0
H  H68  1  0.65782674  0.26681005  0.08811065  1  0.073936  0  0.097042  0.139571  0  0.998451  0
H  H69  1  0.51239929  0.23329746  0.41192879  1  0.075071  0  0.097048  0.140231  0  0.997566  0
H  H70  1  0.34217236  0.73319002  0.91189023  1  0.073956  0  0.097053  0.139596  0  0.998443  0
H  H71  1  0.48759974  0.76670329  0.58807384  1  0.075016  0  0.097039  0.140199  0  0.997546  0
H  H72  1  0.73533664  0.14927812  0.05875838  1  0.07991  0  0.098331  0.14405  0  0.988362  0
H  H73  1  0.44301602  0.35084014  0.44132495  1  0.060849  0  0.098554  0.144445  0  0.988072  0
H  H74  1  0.26466247  0.85072194  0.94124250  1  0.079919  0  0.098341  0.144072  0  0.988328  0
H  H75  1  0.55698273  0.64916061  0.55867595  1  0.060668  0  0.098556  0.144447  0  0.988129  0
H  H76  1  0.96975843  0.37762644  0.85547286  1  0.07755  0  0.09495  0.138164  0  1.015432  0
H  H77  1  0.70279547  0.12251137  0.64439014  1  0.080423  0  0.094227  0.137965  0  1.015158  0
H  H78  1  0.03024134  0.62237430  0.14452702  1  0.077562  0  0.094965  0.138169  0  1.015435  0
H  H79  1  0.29720597  0.87748870  0.35561043  1  0.080429  0  0.094244  0.137975  0  1.015153  0
H  H80  1  0.03188019  0.30793986  0.91529992  1  0.080248  0  0.09312  0.137636  0  1.027374  0
H  H81  1  0.75499658  0.19220286  0.58450680  1  0.066096  0  0.093702  0.137964  0  1.025946  0
H  H82  1  0.96811804  0.69206020  0.08470049  1  0.080206  0  0.093101  0.137611  0  1.027362  0
H  H83  1  0.24500312  0.80779789  0.41549383  1  0.06614  0  0.093697  0.13796  0  1.025986  0
H  H84  1  0.91674872  0.41106095  0.95202605  1  0.060963  0  0.097418  0.142231  0  1.001421  0
H  H85  1  0.77968697  0.08905889  0.54782989  1  0.07909  0  0.097837  0.142031  0  1.001661  0
H  H86  1  0.08325019  0.58893980  0.04797336  1  0.060967  0  0.09741  0.142213  0  1.001394  0
H  H87  1  0.22031229  0.91094186  0.45217051  1  0.079076  0  0.09782  0.142003  0  1.001662  0
H  H88  1  0.45181049  0.29712478  0.09339292  1  0.118985  0  0.105166  0.110694  0  1.005168  0
H  H89  1  0.34214067  0.20286071  0.40648209  1  0.093725  0  0.105724  0.110773  0  1.004094  0
H  H90  1  0.54819174  0.70287460  0.90660787  1  0.119034  0  0.105192  0.110715  0  1.005164  0
H  H91  1  0.65786108  0.79713935  0.59351550  1  0.093733  0  0.105723  0.110757  0  1.004125  0
H  H92  1  0.31622125  0.40547306  0.20247888  1  0.071434  0  0.10394  0.108376  0  0.992325  0
H  H93  1  0.42384553  0.09437546  0.29753342  1  0.064443  0  0.10439  0.108295  0  0.993216  0
H  H94  1  0.68378100  0.59452427  0.79752286  1  0.071512  0  0.103956  0.108396  0  0.992341  0
H  H95  1  0.57615610  0.90562596  0.70246295  1  0.064527  0  0.104392  0.108297  0  0.993211  0
H  H96  1  0.08958639  0.43554535  0.12770295  1  0.066417  0  0.105428  0.109296  0  0.992482  0
H  H97  1  0.15222161  0.06470402  0.37242825  1  0.051128  0  0.105323  0.109041  0  0.99274  0
H  H98  1  0.91041571  0.56445130  0.87229928  1  0.066342  0  0.105404  0.109324  0  0.992453  0
H  H99  1  0.84778266  0.93529399  0.62756849  1  0.051105  0  0.105334  0.109052  0  0.992692  0
H  H100  1  0.22635774  0.33001652  0.01729910  1  0.072696  0  0.105062  0.107234  0  1.01149  0
H  H101  1  0.07331981  0.17020957  0.48276194  1  0.086446  0  0.104999  0.107281  0  1.01195  0
H  H102  1  0.77364460  0.66998081  0.98270190  1  0.072809  0  0.105062  0.107233  0  1.011481  0
H  H103  1  0.92668307  0.82978844  0.51723483  1  0.08636  0  0.104979  0.107246  0  1.01198  0
H  H104  1  0.94270092  0.41616558  0.34901029  1  0.072752  0  0.098918  0.145089  0  1.005303  0
H  H105  1  0.20763448  0.08344382  0.15118985  1  0.073102  0  0.099093  0.146215  0  1.004716  0
H  H106  1  0.05729809  0.58383312  0.65098932  1  0.072772  0  0.098928  0.1451  0  1.005284  0
H  H107  1  0.79236345  0.91655897  0.84880888  1  0.072907  0  0.099102  0.146219  0  1.004666  0
H  H108  1  0.04799045  0.36019662  0.26403748  1  0.063369  0  0.097519  0.140464  0  0.994908  0
H  H109  1  0.17201022  0.13941970  0.23615626  1  0.067706  0  0.098159  0.141522  0  0.99434  0
H  H110  1  0.95201003  0.63980275  0.73596236  1  0.06338  0  0.097534  0.14047  0  0.994899  0
H  H111  1  0.82798971  0.86058104  0.76384213  1  0.067689  0  0.098153  0.141524  0  0.994342  0
H  H112  1  0.93184122  0.45111520  0.26139971  1  0.068934  0  0.099858  0.1481  0  0.985589  0
H  H113  1  0.14416536  0.04846598  0.23881279  1  0.069155  0  0.100307  0.148996  0  0.985918  0
H  H114  1  0.06815872  0.54888623  0.73859969  1  0.068981  0  0.09985  0.148079  0  0.985627  0
H  H115  1  0.85583457  0.95153477  0.76118560  1  0.069176  0  0.100308  0.148996  0  0.985945  0
H  H116  1  0.14896027  0.68049092  0.22780311  1  0.101331  0  0.100446  0.149195  0  1.006124  0
H  H117  1  0.55727729  0.81947653  0.27222309  1  0.045974  0  0.100278  0.149066  0  1.006586  0
H  H118  1  0.85103926  0.31950777  0.77219599  1  0.101403  0  0.100433  0.149193  0  1.006107  0
H  H119  1  0.44272298  0.18052284  0.72777427  1  0.045989  0  0.100235  0.149084  0  1.006532  0
H  H120  1  0.23318314  0.58330473  0.16438522  1  0.07445  0  0.100672  0.146135  0  0.991366  0
H  H121  1  0.48082135  0.91665153  0.33565919  1  0.032211  0  0.100086  0.145898  0  0.991111  0
H  H122  1  0.76681682  0.41669397  0.83561413  1  0.074462  0  0.100647  0.146081  0  0.991404  0
H  H123  1  0.51917908  0.08334852  0.66433769  1  0.032228  0  0.10005  0.145812  0  0.991166  0
H  H124  1  0.24012349  0.58162584  0.25266008  1  0.057395  0  0.098058  0.142894  0  0.999434  0
H  H125  1  0.57422032  0.91845551  0.24733723  1  0.058165  0  0.09792  0.141958  0  0.999691  0
H  H126  1  0.75987862  0.41837422  0.74733849  1  0.057392  0  0.098057  0.142882  0  0.999449  0
H  H127  1  0.42577995  0.08154386  0.75266013  1  0.058221  0  0.097919  0.141947  0  0.999735  0
H  H128  1  0.99318550  0.66711692  0.35209727  1  0.571831  0  0.317958  0.280809  0  0.99772  0
H  H129  1  0.51244034  0.83289032  0.14786309  1  0.552126  0  0.317461  0.279974  0  0.997082  0
H  H130  1  0.00681498  0.33288246  0.64790257  1  0.571804  0  0.317952  0.280825  0  0.997695  0
H  H131  1  0.48755934  0.16710837  0.85213453  1  0.552069  0  0.317504  0.280054  0  0.997004  0
H  H132  1  0.97840587  0.20437267  0.83613180  1  0.557522  0  0.314421  0.270403  0  1.001952  0
H  H133  1  0.51878897  0.29565497  0.66384881  1  0.556062  0  0.314418  0.271094  0  1.001298  0
H  H134  1  0.02159508  0.79562466  0.16386923  1  0.557495  0  0.314398  0.270397  0  1.001939  0
H  H135  1  0.48120970  0.70434577  0.33615284  1  0.556102  0  0.314416  0.271108  0  1.001301  0
C  C136  1  0.76538543  0.18742247  0.78826959  1  1.52859  0  0.213396  0.579228  0  4.182673  0
C  C137  1  0.24085272  0.31248054  0.71168001  1  1.525932  0  0.212344  0.57873  0  4.188184  0
C  C138  1  0.23461026  0.81257758  0.21172865  1  1.528608  0  0.213302  0.578963  0  4.183048  0
C  C139  1  0.75914603  0.68752089  0.28832190  1  1.525855  0  0.212309  0.578748  0  4.188216  0
C  C140  1  0.76285180  0.24353209  0.72118020  1  -8.6e-05  0  -0.026164  -0.061938  0  4.005973  0
C  C141  1  0.22738673  0.25631611  0.77875136  1  -0.034092  0  -0.026105  -0.062409  0  4.002991  0
C  C142  1  0.23714764  0.75646592  0.27881865  1  -0.000238  0  -0.026179  -0.061877  0  4.006004  0
C  C143  1  0.77261273  0.74368464  0.22125151  1  -0.034003  0  -0.02616  -0.062446  0  4.003158  0
C  C144  1  0.66914614  0.31020890  0.71884386  1  -0.064951  0  -0.083073  -0.083534  0  3.965918  0
C  C145  1  0.19817556  0.18952925  0.78102364  1  -0.06961  0  -0.083536  -0.083837  0  3.96628  0
C  C146  1  0.33085630  0.68978841  0.28115167  1  -0.065235  0  -0.083132  -0.083637  0  3.96592  0
C  C147  1  0.80182331  0.81047150  0.21898048  1  -0.069688  0  -0.083544  -0.083857  0  3.966199  0
C  C148  1  0.66641960  0.36635461  0.65792439  1  -0.052335  0  -0.093383  -0.147303  0  3.968905  0
C  C149  1  0.19077568  0.13331464  0.84190905  1  -0.025348  0  -0.093494  -0.146849  0  3.970462  0
C  C150  1  0.33358337  0.63364408  0.34207264  1  -0.052253  0  -0.093367  -0.147248  0  3.969075  0
C  C151  1  0.80922293  0.86668680  0.15809435  1  -0.025524  0  -0.093486  -0.146871  0  3.970301  0
C  C152  1  0.75700729  0.35869140  0.59896147  1  -0.045588  0  -0.002387  0.117601  0  4.030577  0
C  C153  1  0.21468461  0.14102520  0.90089294  1  -0.014584  0  -0.002076  0.11955  0  4.032237  0
C  C154  1  0.24299673  0.64130455  0.40103450  1  -0.045408  0  -0.00233  0.117547  0  4.030762  0
C  C155  1  0.78531289  0.85897555  0.09911122  1  -0.014359  0  -0.002045  0.119555  0  4.032292  0
C  C156  1  0.85053441  0.29110946  0.60176359  1  -0.0053  0  -0.092539  -0.14881  0  3.968931  0
C  C157  1  0.24323031  0.20872674  0.89816672  1  -0.049605  0  -0.094542  -0.152556  0  3.969393  0
C  C158  1  0.14946902  0.70888718  0.39823463  1  -0.005525  0  -0.092469  -0.148663  0  3.96875  0
C  C159  1  0.75676959  0.79127401  0.10183639  1  -0.049614  0  -0.094546  -0.152485  0  3.969299  0
C  C160  1  0.85371054  0.23339536  0.66170557  1  -0.051151  0  -0.081561  -0.084083  0  3.972148  0
C  C161  1  0.24855202  0.26649873  0.83825807  1  -0.077618  0  -0.080584  -0.082067  0  3.968182  0
C  C162  1  0.14629021  0.76660265  0.33829399  1  -0.051106  0  -0.081547  -0.084155  0  3.972213  0
C  C163  1  0.75144832  0.73350202  0.16174528  1  -0.077476  0  -0.080523  -0.082032  0  3.968202  0
C  C164  1  0.75430906  0.42250676  0.53785925  1  -0.021493  0  -0.044555  -0.189602  0  4.04034  0
C  C165  1  0.21484482  0.07718507  0.96197451  1  0.027271  0  -0.043852  -0.189564  0  4.038403  0
C  C166  1  0.24569323  0.57749056  0.46213777  1  -0.021593  0  -0.044652  -0.189596  0  4.040195  0
C  C167  1  0.78515212  0.92281773  0.03802921  1  0.027497  0  -0.043774  -0.189471  0  4.038349  0
C  C168  1  0.69861586  0.44708603  0.49217022  1  0.471149  0  0.092892  0.222239  0  4.011302  0
C  C169  1  0.13797329  0.05272465  0.00774414  1  0.436989  0  0.092362  0.220256  0  4.014201  0
C  C170  1  0.30138591  0.55291198  0.50782832  1  0.471219  0  0.092888  0.222221  0  4.01116  0
C  C171  1  0.86202306  0.94727747  0.99225983  1  0.436865  0  0.092366  0.220291  0  4.014045  0
C  C172  1  0.80581112  0.47569662  0.51448209  1  0.4528  0  0.09246  0.218253  0  4.01373  0
C  C173  1  0.29613034  0.02400723  0.98536831  1  0.403009  0  0.092561  0.219976  0  4.012955  0
C  C174  1  0.19419188  0.52430002  0.48551590  1  0.452905  0  0.092524  0.218275  0  4.013684  0
C  C175  1  0.70386782  0.97599352  0.01463384  1  0.402796  0  0.092557  0.219924  0  4.012943  0
C  C176  1  0.63193983  0.41180160  0.48974010  1  -0.09043  0  -0.238637  -0.430416  0  3.950911  0
C  C177  1  0.03356849  0.08817017  0.01018050  1  -0.03394  0  -0.240191  -0.432382  0  3.955084  0
C  C178  1  0.36805924  0.58819983  0.51025882  1  -0.090748  0  -0.238646  -0.430466  0  3.950831  0
C  C179  1  0.96642933  0.91183195  0.98982269  1  -0.034136  0  -0.240182  -0.432387  0  3.955118  0
C  C180  1  0.87486296  0.47985350  0.54342658  1  -0.058599  0  -0.238445  -0.426885  0  3.9594  0
C  C181  1  0.39828364  0.01984386  0.95648531  1  -0.017812  0  -0.239118  -0.429334  0  3.961652  0
C  C182  1  0.12513873  0.52014383  0.45657170  1  -0.058582  0  -0.23845  -0.426987  0  3.959439  0
C  C183  1  0.60171487  0.98015552  0.04351582  1  -0.017842  0  -0.239167  -0.429387  0  3.961543  0
C  C184  1  0.61255666  0.55273787  0.25792580  1  1.550405  0  0.208884  0.579156  0  4.182806  0
C  C185  1  0.92323840  0.94725250  0.24207805  1  1.566664  0  0.208029  0.576067  0  4.184224  0
C  C186  1  0.38744508  0.44726219  0.74207179  1  1.550357  0  0.208913  0.579202  0  4.182793  0
C  C187  1  0.07676068  0.05275030  0.75792289  1  1.566598  0  0.208021  0.576114  0  4.184175  0
C  C188  1  0.65984595  0.49006791  0.19111823  1  0.029982  0  -0.023402  -0.045054  0  3.974744  0
C  C189  1  0.84106887  0.00997235  0.30886793  1  -0.045956  0  -0.023445  -0.043673  0  3.973003  0
C  C190  1  0.34015584  0.50993078  0.80888132  1  0.02999  0  -0.02344  -0.045131  0  3.974808  0
C  C191  1  0.15893099  0.99002976  0.69113322  1  -0.045963  0  -0.023385  -0.043652  0  3.972999  0
C  C192  1  0.66226839  0.52594335  0.12057398  1  -0.15591  0  -0.081925  -0.082046  0  3.955974  0
C  C193  1  0.80867029  0.97414903  0.37941532  1  -0.090655  0  -0.082483  -0.081373  0  3.954791  0
C  C194  1  0.33773321  0.47405739  0.87942611  1  -0.155706  0  -0.081904  -0.082051  0  3.956026  0
C  C195  1  0.19133243  0.02585376  0.62058602  1  -0.090884  0  -0.082491  -0.081365  0  3.95478  0
C  C196  1  0.71156198  0.46756241  0.05756485  1  0.006149  0  -0.094045  -0.14256  0  3.971727  0
C  C197  1  0.73652147  0.03257357  0.44238241  1  0.004059  0  -0.093521  -0.141617  0  3.971215  0
C  C198  1  0.28843795  0.53243902  0.94243455  1  0.005897  0  -0.094131  -0.142702  0  3.971773  0
C  C199  1  0.26347916  0.96743059  0.55761901  1  0.004373  0  -0.093532  -0.141576  0  3.971406  0
C  C200  1  0.75819556  0.37213903  0.06363493  1  0.041637  0  -0.003943  0.110989  0  4.029337  0
C  C201  1  0.69384974  0.12798411  0.43629163  1  -0.034209  0  -0.004688  0.110396  0  4.028634  0
C  C202  1  0.24180342  0.62786171  0.93636373  1  0.041642  0  -0.003914  0.111012  0  4.029285  0
C  C203  1  0.30615053  0.87202005  0.56370880  1  -0.034023  0  -0.004712  0.110097  0  4.028996  0
C  C204  1  0.75386091  0.33678919  0.13488738  1  -0.123331  0  -0.096583  -0.148723  0  3.996924  0
C  C205  1  0.72558179  0.16328954  0.36505159  1  -0.039695  0  -0.096477  -0.148095  0  3.996615  0
C  C206  1  0.24613791  0.66321087  0.86511178  1  -0.123318  0  -0.096602  -0.148737  0  3.996831  0
C  C207  1  0.27441799  0.83671188  0.63494930  1  -0.039774  0  -0.096481  -0.14791  0  3.996686  0
C  C208  1  0.70625098  0.39491122  0.19758612  1  -0.032664  0  -0.089652  -0.093621  0  4.003075  0
C  C209  1  0.79887977  0.10513193  0.30237885  1  -0.074077  0  -0.088087  -0.093739  0  4.002038  0
C  C210  1  0.29374914  0.60508815  0.80241273  1  -0.032658  0  -0.089592  -0.093535  0  4.002988  0
C  C211  1  0.20112044  0.89486950  0.69762227  1  -0.074038  0  -0.088065  -0.093747  0  4.002139  0
C  C212  1  0.81135271  0.30944495  0.99759418  1  0.003414  0  -0.031739  -0.182776  0  4.013971  0
C  C213  1  0.61821989  0.19067220  0.50233771  1  0.001426  0  -0.031842  -0.18447  0  4.014522  0
C  C214  1  0.18864402  0.69055647  0.00240505  1  0.004  0  -0.031667  -0.182638  0  4.013936  0
C  C215  1  0.38177965  0.80932855  0.49766442  1  0.001392  0  -0.031842  -0.184374  0  4.014788  0
C  C216  1  0.89629194  0.30239132  0.93254397  1  0.394981  0  0.109256  0.217601  0  3.968123  0
C  C217  1  0.63106552  0.19770604  0.56739417  1  0.417527  0  0.10904  0.217524  0  3.967721  0
C  C218  1  0.10370550  0.69760942  0.06745622  1  0.394602  0  0.109292  0.217659  0  3.96807  0
C  C219  1  0.36893532  0.80229402  0.43260765  1  0.41754  0  0.109013  0.217451  0  3.967807  0
C  C220  1  0.78982609  0.24084490  0.98807831  1  0.435389  0  0.103779  0.225703  0  3.990918  0
C  C221  1  0.51853724  0.25921654  0.51191355  1  0.461205  0  0.104665  0.229347  0  3.991459  0
C  C222  1  0.21017293  0.75915448  0.01192231  1  0.434821  0  0.103765  0.2257  0  3.990925  0
C  C223  1  0.48146219  0.74078557  0.48808736  1  0.461116  0  0.104629  0.229363  0  3.991474  0
C  C224  1  0.70598088  0.21922037  0.03895548  1  -0.08032  0  -0.234563  -0.430785  0  3.946228  0
C  C225  1  0.46385284  0.28086529  0.46110200  1  -0.07354  0  -0.233991  -0.431029  0  3.948951  0
C  C226  1  0.29401822  0.78077969  0.96104540  1  -0.080555  0  -0.234578  -0.430835  0  3.946195  0
C  C227  1  0.53614722  0.71913546  0.53889962  1  -0.073352  0  -0.233934  -0.430913  0  3.949113  0
C  C228  1  0.95691879  0.35245671  0.91263091  1  -0.053598  0  -0.23359  -0.427707  0  3.946601  0
C  C229  1  0.72187694  0.14767457  0.58722639  1  -0.084676  0  -0.23331  -0.426693  0  3.94409  0
C  C230  1  0.04307960  0.64754404  0.08736901  1  -0.053296  0  -0.2336  -0.427711  0  3.94662  0
C  C231  1  0.27812311  0.85232550  0.41277422  1  -0.084667  0  -0.233281  -0.426622  0  3.944085  0
C  C232  1  0.42932589  0.24365624  0.98306087  1  1.567146  0  0.213174  0.575784  0  4.211298  0
C  C233  1  0.15599177  0.25631859  0.51699256  1  1.564875  0  0.212656  0.576108  0  4.210008  0
C  C234  1  0.57067702  0.75634451  0.01693992  1  1.567113  0  0.213202  0.575776  0  4.211324  0
C  C235  1  0.84400898  0.74367942  0.48300700  1  1.564474  0  0.212651  0.576201  0  4.209998  0
C  C236  1  0.34709872  0.30711405  0.04900942  1  -0.027293  0  -0.022233  -0.044706  0  3.994025  0
C  C237  1  0.20300717  0.19291451  0.45103664  1  -0.05714  0  -0.023744  -0.046835  0  3.99587  0
C  C238  1  0.65290304  0.69288738  0.95099018  1  -0.026896  0  -0.022187  -0.044546  0  3.994042  0
C  C239  1  0.79699599  0.80708350  0.54896186  1  -0.057092  0  -0.023725  -0.046875  0  3.99594  0
C  C240  1  0.37217813  0.32859333  0.10127816  1  -0.062814  0  -0.084739  -0.088585  0  3.990218  0
C  C241  1  0.30182455  0.17136874  0.39870630  1  -0.010328  0  -0.085202  -0.086502  0  3.988851  0
C  C242  1  0.62782442  0.67140741  0.89872165  1  -0.063174  0  -0.084792  -0.088644  0  3.990297  0
C  C243  1  0.69817739  0.82862995  0.60129176  1  -0.010253  0  -0.085182  -0.086435  0  3.98883  0
C  C244  1  0.29646764  0.38910987  0.16180523  1  -0.040645  0  -0.09094  -0.141513  0  3.988198  0
C  C245  1  0.34707216  0.11079276  0.33824148  1  -0.096358  0  -0.091268  -0.143436  0  3.989529  0
C  C246  1  0.70353415  0.61088951  0.83819532  1  -0.040677  0  -0.090968  -0.141602  0  3.988134  0
C  C247  1  0.65292931  0.88920798  0.66175539  1  -0.096568  0  -0.09128  -0.143429  0  3.989471  0
C  C248  1  0.19371722  0.42808302  0.17235144  1  -0.059819  0  -0.005122  0.110593  0  4.042688  0
C  C249  1  0.29380805  0.07178003  0.32778983  1  0.010658  0  -0.004659  0.112187  0  4.041975  0
C  C250  1  0.80628509  0.57191704  0.82764960  1  -0.060013  0  -0.005061  0.110683  0  4.042583  0
C  C251  1  0.70619484  0.92821866  0.67220795  1  0.010795  0  -0.004676  0.11213  0  4.041878  0
C  C252  1  0.16901389  0.40489199  0.12041788  1  -0.100904  0  -0.091571  -0.145735  0  3.986434  0
C  C253  1  0.19390683  0.09518353  0.37968116  1  0.049804  0  -0.091066  -0.144799  0  3.987564  0
C  C254  1  0.83098818  0.59510671  0.87958340  1  -0.10072  0  -0.091564  -0.145752  0  3.986472  0
C  C255  1  0.80609692  0.90481448  0.62031609  1  0.049832  0  -0.091058  -0.144795  0  3.987533  0
C  C256  1  0.24496223  0.34590406  0.05891597  1  0.025812  0  -0.084891  -0.094718  0  4.003177  0
C  C257  1  0.14946961  0.15421190  0.44115466  1  -0.095024  0  -0.083901  -0.094689  0  4.004161  0
C  C258  1  0.75503945  0.65409737  0.94108437  1  0.025564  0  -0.084921  -0.094821  0  4.003156  0
C  C259  1  0.85053312  0.84578611  0.55884361  1  -0.095059  0  -0.083843  -0.094569  0  4.004347  0
C  C260  1  0.11419384  0.49272779  0.23547208  1  0.04253  0  -0.033834  -0.190001  0  4.044268  0
C  C261  1  0.34210411  0.00702451  0.26472098  1  -0.029333  0  -0.035741  -0.192136  0  4.045826  0
C  C262  1  0.88580712  0.50727023  0.76452995  1  0.042642  0  -0.03386  -0.190023  0  4.044211  0
C  C263  1  0.65789727  0.99297554  0.73527562  1  -0.029377  0  -0.035806  -0.192231  0  4.045842  0
C  C264  1  0.11272445  0.56949934  0.25695167  1  0.420946  0  0.10987  0.218059  0  3.973561  0
C  C265  1  0.43898891  0.93037738  0.24317615  1  0.39274  0  0.108697  0.215359  0  3.979059  0
C  C266  1  0.88727683  0.43050004  0.74304939  1  0.420908  0  0.109877  0.21809  0  3.973578  0
C  C267  1  0.56101169  0.06962336  0.75682024  1  0.392919  0  0.108692  0.215319  0  3.97906  0
C  C268  1  0.02250492  0.49241875  0.28630079  1  0.431357  0  0.102244  0.223709  0  4.000968  0
C  C269  1  0.30100269  0.00727571  0.21386219  1  0.524316  0  0.106267  0.226525  0  3.997948  0
C  C270  1  0.97749584  0.50758063  0.71370078  1  0.431358  0  0.102318  0.223784  0  4.000962  0
C  C271  1  0.69899756  0.99272571  0.78613423  1  0.524176  0  0.106333  0.226673  0  3.997791  0
C  C272  1  0.98429147  0.42633936  0.29046740  1  -0.079041  0  -0.233201  -0.432244  0  3.958739  0
C  C273  1  0.20086637  0.07327720  0.20972419  1  -0.081842  0  -0.236039  -0.437176  0  3.960453  0
C  C274  1  0.01570893  0.57366002  0.70953318  1  -0.079125  0  -0.233214  -0.432247  0  3.95891  0
C  C275  1  0.79913407  0.92672354  0.79027369  1  -0.081705  0  -0.236105  -0.437271  0  3.960409  0
C  C276  1  0.18756690  0.60567702  0.22377114  1  -0.073719  0  -0.23374  -0.436954  0  3.957229  0
C  C277  1  0.51691091  0.89429996  0.27627618  1  0.0177  0  -0.231788  -0.434499  0  3.957536  0
C  C278  1  0.81243350  0.39432167  0.77622844  1  -0.07381  0  -0.233685  -0.436874  0  3.957187  0
C  C279  1  0.48308988  0.10569941  0.72372068  1  0.017555  0  -0.231689  -0.434358  0  3.957588  0
N  N280  1  0.71676868  0.51052302  0.44470147  1  -0.812517  0  -0.28357  -0.263759  0  3.617968  0
N  N281  1  0.17202752  0.98935417  0.05526298  1  -0.808438  0  -0.284275  -0.263075  0  3.620476  0
N  N282  1  0.28323085  0.48947636  0.55529865  1  -0.813227  0  -0.283577  -0.263824  0  3.617961  0
N  N283  1  0.82796961  0.01064658  0.94474019  1  -0.808522  0  -0.284311  -0.263091  0  3.620257  0
N  N284  1  0.78114700  0.52879383  0.45902601  1  -0.824009  0  -0.291055  -0.272919  0  3.637749  0
N  N285  1  0.26902461  0.97103382  0.04091216  1  -0.817134  0  -0.289619  -0.272961  0  3.638006  0
N  N286  1  0.21885434  0.47120417  0.54097229  1  -0.823303  0  -0.291061  -0.272851  0  3.637707  0
N  N287  1  0.73097287  0.02896556  0.95908999  1  -0.816995  0  -0.289595  -0.272912  0  3.637862  0
N  N288  1  0.96968107  0.56428581  0.33542316  1  -0.796475  0  -0.27034  -0.253211  0  3.523078  0
N  N289  1  0.36928134  0.93547986  0.16468514  1  -0.809522  0  -0.271812  -0.252544  0  3.52051  0
N  N290  1  0.03031926  0.43571357  0.66457817  1  -0.796433  0  -0.270357  -0.253223  0  3.522952  0
N  N291  1  0.63071783  0.06451883  0.83531298  1  -0.809247  0  -0.271756  -0.252502  0  3.52052  0
N  N292  1  0.02425130  0.61063461  0.31632061  1  -0.842631  0  -0.274906  -0.136415  0  3.663229  0
N  N293  1  0.45112206  0.88924509  0.18375825  1  -0.831138  0  -0.273728  -0.134031  0  3.66222  0
N  N294  1  0.97574946  0.38936409  0.68367996  1  -0.842611  0  -0.274943  -0.136478  0  3.663254  0
N  N295  1  0.54887684  0.11075497  0.81624015  1  -0.831232  0  -0.27382  -0.134165  0  3.662269  0
N  N296  1  0.92096854  0.23348628  0.88891421  1  -0.837436  0  -0.278239  -0.144654  0  3.684745  0
N  N297  1  0.54319271  0.26653566  0.61107463  1  -0.843516  0  -0.279857  -0.146989  0  3.68505  0
N  N298  1  0.07903178  0.76651310  0.11108712  1  -0.83735  0  -0.278258  -0.144746  0  3.68466  0
N  N299  1  0.45680633  0.73346509  0.38892800  1  -0.843458  0  -0.279844  -0.146982  0  3.68511  0
N  N300  1  0.85724590  0.19579663  0.92136927  1  -0.779928  0  -0.268239  -0.256463  0  3.511935  0
N  N301  1  0.47421383  0.30421133  0.57864508  1  -0.792358  0  -0.267627  -0.257472  0  3.513682  0
N  N302  1  0.14275581  0.80420206  0.07863102  1  -0.779931  0  -0.26825  -0.256461  0  3.51186  0
N  N303  1  0.52578666  0.69578874  0.42135576  1  -0.792346  0  -0.267628  -0.257532  0  3.513547  0
O  O304  1  0.63242867  0.51371141  0.31644512  1  -1.184565  0  -0.349525  -0.577635  0  2.320499  0
O  O305  1  0.96248963  0.98624132  0.18346294  1  -1.188365  0  -0.349209  -0.576643  0  2.321719  0
O  O306  1  0.36756999  0.48628865  0.68355552  1  -1.184552  0  -0.3495  -0.577573  0  2.320581  0
O  O307  1  0.03750868  0.01375942  0.81653772  1  -1.188337  0  -0.349198  -0.576647  0  2.321693  0
O  O308  1  0.55884177  0.63720021  0.25454510  1  -1.185296  0  -0.310302  -0.539985  0  2.171848  0
O  O309  1  0.95069532  0.86277544  0.24556908  1  -1.176931  0  -0.31003  -0.538694  0  2.17209  0
O  O310  1  0.44116033  0.36279984  0.74545347  1  -1.185311  0  -0.3103  -0.540002  0  2.171846  0
O  O311  1  0.04930202  0.13722873  0.75443291  1  -1.176926  0  -0.310065  -0.538778  0  2.172059  0
O  O312  1  0.68310002  0.21278866  0.84726676  1  -1.175756  0  -0.326222  -0.540282  0  2.338838  0
O  O313  1  0.24277320  0.28722185  0.65270804  1  -1.178669  0  -0.325037  -0.539376  0  2.341205  0
O  O314  1  0.31688984  0.78721003  0.15272789  1  -1.175671  0  -0.326241  -0.540246  0  2.339088  0
O  O315  1  0.75722385  0.71277890  0.34729588  1  -1.17891  0  -0.325006  -0.539376  0  2.34121  0
O  O316  1  0.84953093  0.11760861  0.78409636  1  -1.185591  0  -0.323517  -0.544505  0  2.3475  0
O  O317  1  0.25111772  0.38224435  0.71584228  1  -1.181811  0  -0.322523  -0.54424  0  2.349241  0
O  O318  1  0.15046308  0.88239283  0.21590691  1  -1.185683  0  -0.32345  -0.544297  0  2.347544  0
O  O319  1  0.74888450  0.61775503  0.28415851  1  -1.181808  0  -0.322561  -0.544294  0  2.349159  0
O  O320  1  0.40958162  0.23832222  0.92887756  1  -1.180256  0  -0.306462  -0.542775  0  2.199079  0
O  O321  1  0.07698907  0.26138645  0.57136354  1  -1.185333  0  -0.30638  -0.543087  0  2.198837  0
O  O322  1  0.59041829  0.76167443  0.07112348  1  -1.180222  0  -0.306479  -0.542759  0  2.199233  0
O  O323  1  0.92301109  0.73861429  0.42863261  1  -1.185002  0  -0.306426  -0.543164  0  2.198746  0
O  O324  1  0.51673643  0.19794396  0.98850406  1  -1.188551  0  -0.334708  -0.55443  0  2.390674  0
O  O325  1  0.20299296  0.30222165  0.51139946  1  -1.178673  0  -0.334089  -0.553244  0  2.389614  0
O  O326  1  0.48326346  0.80205542  0.01149703  1  -1.188527  0  -0.334711  -0.554437  0  2.390507  0
O  O327  1  0.79700926  0.69777705  0.48860032  1  -1.178671  0  -0.334065  -0.553289  0  2.389681  0
