# generated using pymatgen
data_ZnH10C11(NO2)3
_symmetry_space_group_name_H-M   'P 1'
_cell_length_a   9.27275560
_cell_length_b   9.27923186
_cell_length_c   15.00040000
_cell_angle_alpha   90.00000000
_cell_angle_beta   90.00000000
_cell_angle_gamma   108.53760940
_symmetry_Int_Tables_number   1
_chemical_formula_structural   ZnH10C11(NO2)3
_chemical_formula_sum   'Zn4 H40 C44 N12 O24'
_cell_volume   1223.72765592
_cell_formula_units_Z   4
loop_
 _symmetry_equiv_pos_site_id
 _symmetry_equiv_pos_as_xyz
  1  'x, y, z'
loop_
 _atom_site_type_symbol
 _atom_site_label
 _atom_site_symmetry_multiplicity
 _atom_site_fract_x
 _atom_site_fract_y
 _atom_site_fract_z
 _atom_site_occupancy
 _atom_site_hle17_bader_spin_density
 _atom_site_hle17_ddec_charge
 _atom_site_hle17_ddec_spin_density
 _atom_site_hle17_ddec_sum_bond_order
 _atom_site_hle17_magmom
 _atom_site_hse06_10hf_bader_spin_density
 _atom_site_hse06_10hf_ddec_charge
 _atom_site_hse06_10hf_ddec_spin_density
 _atom_site_hse06_10hf_ddec_sum_bond_order
 _atom_site_hse06_10hf_magmom
 _atom_site_hse06_bader_spin_density
 _atom_site_hse06_ddec_charge
 _atom_site_hse06_ddec_spin_density
 _atom_site_hse06_ddec_sum_bond_order
 _atom_site_hse06_magmom
 _atom_site_pbe_bader_charge
 _atom_site_pbe_bader_spin_density
 _atom_site_pbe_cm5_charge
 _atom_site_pbe_ddec_charge
 _atom_site_pbe_ddec_spin_density
 _atom_site_pbe_ddec_sum_bond_order
 _atom_site_pbe_magmom
Zn  Zn0  1  0.58938532  0.21755260  0.87182275  1  0  1.062239  0  1.802685  0  0  0.88365  0  2.256179  0  0  0.928835  0  2.203778  0  1.328758  0  0.676007  0.852621  0  2.291053  0
Zn  Zn1  1  0.41061293  0.28244737  0.37182275  1  0  1.06228  0  1.802638  0  0  0.883702  0  2.256119  0  0  0.928889  0  2.203717  0  1.328774  0  0.67603  0.852673  0  2.290997  0
Zn  Zn2  1  0.41061395  0.78244735  0.12817725  1  0  1.062232  0  1.802676  0  0  0.883659  0  2.256164  0  0  0.928844  0  2.203763  0  1.328801  0  0.676016  0.852634  0  2.291037  0
Zn  Zn3  1  0.58938670  0.71755371  0.62817725  1  0  1.062264  0  1.80269  0  0  0.883686  0  2.256171  0  0  0.92887  0  2.203768  0  1.328792  0  0.676013  0.852659  0  2.291045  0
H  H4  1  0.04344251  0.68272560  0.87624530  1  0  0.098857  0  0.955916  0  0  0.108503  0  1.019041  0  0  0.111867  0  1.017499  0  0.082963  0  0.104735  0.10584  0  1.020679  0
H  H5  1  0.95655670  0.81727431  0.37624530  1  0  0.098852  0  0.955927  0  0  0.108493  0  1.019055  0  0  0.111859  0  1.017513  0  0.082951  0  0.104733  0.105831  0  1.020694  0
H  H6  1  0.95655748  0.31727320  0.12375470  1  0  0.098858  0  0.955917  0  0  0.108499  0  1.01904  0  0  0.111866  0  1.017496  0  0.082952  0  0.104731  0.105836  0  1.020678  0
H  H7  1  0.04344186  0.18272677  0.62375470  1  0  0.098869  0  0.95593  0  0  0.108521  0  1.019037  0  0  0.111889  0  1.017491  0  0.082953  0  0.104749  0.105859  0  1.020675  0
H  H8  1  0.00587174  0.90309482  0.89680542  1  0  0.108911  0  0.986333  0  0  0.114031  0  1.05653  0  0  0.117662  0  1.054918  0  0.130784  0  0.108037  0.110357  0  1.05947  0
H  H9  1  0.99412676  0.59690623  0.39680409  1  0  0.108911  0  0.986334  0  0  0.114056  0  1.056501  0  0  0.117687  0  1.054889  0  0.130774  0  0.108039  0.110384  0  1.059439  0
H  H10  1  0.99412825  0.09690399  0.10319525  1  0  0.108913  0  0.98635  0  0  0.114031  0  1.056544  0  0  0.117663  0  1.05493  0  0.130861  0  0.108033  0.110358  0  1.059482  0
H  H11  1  0.00587396  0.40309485  0.60319591  1  0  0.108899  0  0.986421  0  0  0.114043  0  1.05658  0  0  0.117672  0  1.05497  0  0.1308  0  0.108025  0.11037  0  1.059516  0
H  H12  1  0.47022709  0.19310439  0.70022466  1  0  0.421699  0  0.891872  0  0  0.38867  0  0.95905  0  0  0.400292  0  0.942221  0  0.659236  0  0.286186  0.380376  0  0.971036  0
H  H13  1  0.52977260  0.30689672  0.20022466  1  0  0.421716  0  0.891847  0  0  0.388688  0  0.959023  0  0  0.400309  0  0.942196  0  0.659238  0  0.286203  0.380394  0  0.971009  0
H  H14  1  0.52977218  0.80689556  0.29977534  1  0  0.421689  0  0.891881  0  0  0.388659  0  0.959059  0  0  0.400281  0  0.942231  0  0.659236  0  0.286186  0.380365  0  0.971045  0
H  H15  1  0.47022667  0.69310322  0.79977534  1  0  0.421705  0  0.891858  0  0  0.388675  0  0.959037  0  0  0.400297  0  0.942209  0  0.659236  0  0.286195  0.380381  0  0.971023  0
H  H16  1  0.64708169  0.20334447  0.69327085  1  0  0.420323  0  0.889521  0  0  0.386109  0  0.958511  0  0  0.398075  0  0.941159  0  0.647638  0  0.285875  0.377454  0  0.971031  0
H  H17  1  0.35291800  0.29665664  0.19327085  1  0  0.420301  0  0.889557  0  0  0.386082  0  0.958555  0  0  0.398048  0  0.941204  0  0.647634  0  0.285865  0.377425  0  0.971078  0
H  H18  1  0.35291902  0.79665661  0.30672915  1  0  0.42032  0  0.889527  0  0  0.386103  0  0.958521  0  0  0.398068  0  0.94117  0  0.647638  0  0.285871  0.377447  0  0.971043  0
H  H19  1  0.64708127  0.70334330  0.80672915  1  0  0.420328  0  0.889518  0  0  0.386114  0  0.958508  0  0  0.398079  0  0.941156  0  0.647639  0  0.285879  0.377458  0  0.971029  0
H  H20  1  0.57532234  0.93749554  0.81346364  1  0  0.297453  0  0.88992  0  0  0.287142  0  0.946454  0  0  0.293196  0  0.94129  0  0.465896  0  0.309425  0.28255  0  0.950695  0
H  H21  1  0.42467687  0.56250437  0.31346297  1  0  0.297468  0  0.889932  0  0  0.287169  0  0.946455  0  0  0.293225  0  0.941286  0  0.465894  0  0.309462  0.282577  0  0.950694  0
H  H22  1  0.42467801  0.06250440  0.18653703  1  0  0.297427  0  0.88995  0  0  0.287131  0  0.946479  0  0  0.293186  0  0.94131  0  0.465889  0  0.309442  0.282539  0  0.950719  0
H  H23  1  0.57532348  0.43749557  0.68653703  1  0  0.297477  0  0.889926  0  0  0.287172  0  0.946451  0  0  0.293226  0  0.941284  0  0.465894  0  0.30946  0.282579  0  0.950691  0
H  H24  1  0.54723364  0.91792697  0.92193008  1  0  0.30284  0  0.92078  0  0  0.286519  0  0.984428  0  0  0.294239  0  0.977798  0  0.504706  0  0.299326  0.280969  0  0.989101  0
H  H25  1  0.45276557  0.58207295  0.42193008  1  0  0.30283  0  0.920762  0  0  0.286509  0  0.984419  0  0  0.294229  0  0.977789  0  0.504687  0  0.299318  0.280959  0  0.989092  0
H  H26  1  0.45276563  0.08207297  0.07806992  1  0  0.302811  0  0.920773  0  0  0.286501  0  0.984426  0  0  0.29422  0  0.977797  0  0.504689  0  0.29932  0.280951  0  0.9891  0
H  H27  1  0.54723407  0.41792814  0.57806992  1  0  0.302832  0  0.920767  0  0  0.286511  0  0.984421  0  0  0.29423  0  0.977793  0  0.504693  0  0.299314  0.280961  0  0.989096  0
H  H28  1  0.78704171  0.89956893  0.89085358  1  0  0.297958  0  0.932167  0  0  0.27842  0  0.998998  0  0  0.286344  0  0.992921  0  0.530213  0  0.31952  0.273091  0  1.002857  0
H  H29  1  0.21295858  0.60043098  0.39085358  1  0  0.297936  0  0.932198  0  0  0.278399  0  0.999026  0  0  0.286324  0  0.992949  0  0.530211  0  0.319518  0.27307  0  1.002886  0
H  H30  1  0.21295720  0.10042988  0.10914642  1  0  0.297967  0  0.93215  0  0  0.278429  0  0.998978  0  0  0.286353  0  0.992901  0  0.530207  0  0.31952  0.2731  0  1.002837  0
H  H31  1  0.78704141  0.39956782  0.60914576  1  0  0.297945  0  0.932195  0  0  0.278416  0  0.99903  0  0  0.286343  0  0.992951  0  0.530108  0  0.31951  0.273086  0  1.002891  0
H  H32  1  0.38557972  0.40340288  0.84442082  1  0  0.094791  0  0.955869  0  0  0.100106  0  1.020963  0  0  0.103604  0  1.017874  0  0.154932  0  0.119174  0.097427  0  1.023602  0
H  H33  1  0.61442142  0.09659936  0.34442215  1  0  0.094821  0  0.955817  0  0  0.10013  0  1.020932  0  0  0.10363  0  1.017842  0  0.154952  0  0.119175  0.09745  0  1.023572  0
H  H34  1  0.61441848  0.59659706  0.15557918  1  0  0.094776  0  0.9559  0  0  0.100089  0  1.020991  0  0  0.103588  0  1.017899  0  0.155222  0  0.119163  0.097409  0  1.023631  0
H  H35  1  0.38557930  0.90340172  0.65557852  1  0  0.094831  0  0.955851  0  0  0.100117  0  1.020963  0  0  0.103617  0  1.017874  0  0.154929  0  0.119169  0.097437  0  1.023603  0
H  H36  1  0.11016905  0.37967303  0.83135183  1  0  0.122352  0  0.957404  0  0  0.126374  0  1.024971  0  0  0.130046  0  1.023586  0  0.148045  0  0.11264  0.123779  0  1.025998  0
H  H37  1  0.88982957  0.12032808  0.33135183  1  0  0.122286  0  0.957463  0  0  0.126368  0  1.024973  0  0  0.130042  0  1.023583  0  0.148057  0  0.112617  0.12377  0  1.026  0
H  H38  1  0.88983023  0.62032691  0.16864817  1  0  0.122309  0  0.957458  0  0  0.12636  0  1.024997  0  0  0.130034  0  1.023607  0  0.14804  0  0.112635  0.123763  0  1.026025  0
H  H39  1  0.11017006  0.87967301  0.66864817  1  0  0.122321  0  0.957464  0  0  0.126381  0  1.024992  0  0  0.130053  0  1.023604  0  0.148043  0  0.112638  0.123784  0  1.026019  0
H  H40  1  0.28372731  0.94665467  0.90530653  1  0  0.078435  0  0.961089  0  0  0.086456  0  1.02638  0  0  0.088514  0  1.025512  0  0.105205  0  0.114764  0.085103  0  1.02679  0
H  H41  1  0.71627191  0.55334525  0.40530653  1  0  0.078438  0  0.961063  0  0  0.086461  0  1.026365  0  0  0.088516  0  1.0255  0  0.105203  0  0.114775  0.085108  0  1.026775  0
H  H42  1  0.71627305  0.05334527  0.09469414  1  0  0.078454  0  0.961053  0  0  0.086479  0  1.026344  0  0  0.088539  0  1.025475  0  0.105314  0  0.114772  0.085126  0  1.026755  0
H  H43  1  0.28372989  0.44665584  0.59469481  1  0  0.078431  0  0.961097  0  0  0.086495  0  1.026352  0  0  0.088514  0  1.025529  0  0.105207  0  0.114767  0.085146  0  1.026758  0
C  C44  1  0.02422172  0.60381025  0.93203181  1  0  -0.08972  0  3.718545  0  0  -0.123607  0  3.973965  0  0  -0.123645  0  3.991152  0  -0.03875  0  -0.083647  -0.123411  0  3.963376  0
C  C45  1  0.97577713  0.89618853  0.43203181  1  0  -0.08967  0  3.718491  0  0  -0.123539  0  3.9739  0  0  -0.123578  0  3.991088  0  -0.038686  0  -0.083612  -0.123344  0  3.963312  0
C  C46  1  0.97577611  0.39618856  0.06796819  1  0  -0.089741  0  3.718483  0  0  -0.123598  0  3.973922  0  0  -0.12364  0  3.99111  0  -0.038699  0  -0.083644  -0.123404  0  3.963335  0
C  C47  1  0.02422322  0.10381141  0.56796819  1  0  -0.089754  0  3.71848  0  0  -0.1236  0  3.973897  0  0  -0.123642  0  3.991084  0  -0.038697  0  -0.083639  -0.123406  0  3.96331  0
C  C48  1  0.08490543  0.01658145  0.88453841  1  0  -0.132418  0  3.69278  0  0  -0.155844  0  3.943615  0  0  -0.160836  0  3.963997  0  -0.036248  0  -0.078349  -0.152876  0  3.931006  0
C  C49  1  0.91509463  0.48342079  0.38453641  1  0  -0.132438  0  3.692763  0  0  -0.155861  0  3.943573  0  0  -0.160853  0  3.963953  0  -0.036246  0  -0.07834  -0.15289  0  3.930958  0
C  C50  1  0.91509493  0.98341849  0.11546159  1  0  -0.132421  0  3.692738  0  0  -0.155842  0  3.943571  0  0  -0.160833  0  3.96395  0  -0.036322  0  -0.078323  -0.152874  0  3.930965  0
C  C51  1  0.08490752  0.51658143  0.61546225  1  0  -0.132487  0  3.692905  0  0  -0.155913  0  3.943736  0  0  -0.160899  0  3.964097  0  -0.036278  0  -0.078358  -0.152947  0  3.931136  0
C  C52  1  0.03476628  0.14013307  0.86413229  1  0  0.007222  0  3.726741  0  0  0.025965  0  3.959082  0  0  0.023672  0  3.979973  0  -0.032714  0  0.011763  0.027252  0  3.944591  0
C  C53  1  0.96523234  0.35986804  0.36413029  1  0  0.007359  0  3.726545  0  0  0.02608  0  3.958933  0  0  0.023789  0  3.979822  0  -0.032719  0  0.011814  0.027365  0  3.944445  0
C  C54  1  0.96523371  0.85986574  0.13586771  1  0  0.007206  0  3.726708  0  0  0.025982  0  3.959054  0  0  0.023688  0  3.979947  0  -0.032724  0  0.011759  0.027269  0  3.944563  0
C  C55  1  0.03476838  0.64013304  0.63586771  1  0  0.007303  0  3.7266  0  0  0.026027  0  3.958982  0  0  0.023736  0  3.979874  0  -0.032729  0  0.011787  0.027312  0  3.944493  0
C  C56  1  0.69881747  0.32354069  0.06284766  1  0  0.66536  0  3.880894  0  0  0.609934  0  4.187185  0  0  0.643647  0  4.178078  0  1.58865  0  0.21582  0.587072  0  4.193193  0
C  C57  1  0.30118079  0.17645928  0.56284766  1  0  0.665397  0  3.880823  0  0  0.609946  0  4.187151  0  0  0.643661  0  4.178036  0  1.588648  0  0.215826  0.587083  0  4.19316  0
C  C58  1  0.30118181  0.67645925  0.93715301  1  0  0.665353  0  3.88087  0  0  0.609878  0  4.187198  0  0  0.643591  0  4.178089  0  1.588641  0  0.215769  0.587016  0  4.193203  0
C  C59  1  0.69881884  0.82354180  0.43715234  1  0  0.665398  0  3.880846  0  0  0.609953  0  4.187137  0  0  0.643667  0  4.178025  0  1.588642  0  0.215777  0.58709  0  4.193144  0
C  C60  1  0.87455128  0.52306033  0.95529119  1  0  -0.056905  0  3.734041  0  0  -0.04637  0  3.975045  0  0  -0.049495  0  3.99309  0  0.017608  0  -0.010378  -0.044683  0  3.963235  0
C  C61  1  0.12544902  0.97693958  0.45529119  1  0  -0.057019  0  3.734096  0  0  -0.046454  0  3.975077  0  0  -0.049578  0  3.993124  0  0.017584  0  -0.010413  -0.044765  0  3.963268  0
C  C62  1  0.12544872  0.47693847  0.04470881  1  0  -0.056958  0  3.734091  0  0  -0.046426  0  3.975043  0  0  -0.049548  0  3.993088  0  0.017623  0  -0.010384  -0.044736  0  3.963234  0
C  C63  1  0.87455062  0.02306150  0.54470881  1  0  -0.05691  0  3.734017  0  0  -0.046383  0  3.975017  0  0  -0.049505  0  3.993064  0  0.017629  0  -0.010386  -0.044694  0  3.963207  0
C  C64  1  0.87110555  0.13288238  0.86095304  1  0  0.513238  0  3.818655  0  0  0.463506  0  4.102331  0  0  0.492513  0  4.102368  0  1.409229  0  0.24824  0.444188  0  4.100937  0
C  C65  1  0.12889343  0.36711646  0.36095171  1  0  0.513142  0  3.818588  0  0  0.463368  0  4.102327  0  0  0.492371  0  4.102371  0  1.409233  0  0.248212  0.444051  0  4.100935  0
C  C66  1  0.12889445  0.86711643  0.13904763  1  0  0.513298  0  3.818674  0  0  0.463489  0  4.102443  0  0  0.492495  0  4.102483  0  1.409243  0  0.248254  0.444171  0  4.101049  0
C  C67  1  0.87110729  0.63288462  0.63904763  1  0  0.513387  0  3.818535  0  0  0.463677  0  4.102235  0  0  0.492681  0  4.102275  0  1.409381  0  0.248298  0.444358  0  4.100847  0
C  C68  1  0.85011515  0.41615610  0.02471467  1  0  -0.065163  0  3.734586  0  0  -0.052578  0  3.97596  0  0  -0.055959  0  3.994608  0  -0.021766  0  -0.010608  -0.050822  0  3.964207  0
C  C69  1  0.14988454  0.08384160  0.52471601  1  0  -0.065169  0  3.734579  0  0  -0.052593  0  3.975961  0  0  -0.055973  0  3.994608  0  -0.021779  0  -0.01061  -0.050837  0  3.964209  0
C  C70  1  0.14988412  0.58384044  0.97528399  1  0  -0.065222  0  3.734651  0  0  -0.052543  0  3.975901  0  0  -0.055927  0  3.994549  0  -0.021752  0  -0.010573  -0.050789  0  3.964148  0
C  C71  1  0.85011437  0.91615721  0.47528466  1  0  -0.065248  0  3.734625  0  0  -0.052621  0  3.975941  0  0  -0.056003  0  3.994588  0  -0.021759  0  -0.010617  -0.050865  0  3.964188  0
C  C72  1  0.75131408  0.55776454  0.90298659  1  0  0.674134  0  3.869693  0  0  0.622749  0  4.164566  0  0  0.656511  0  4.155594  0  1.592549  0  0.218037  0.600096  0  4.169746  0
C  C73  1  0.24868766  0.94223651  0.40298659  1  0  0.674171  0  3.869721  0  0  0.622748  0  4.16463  0  0  0.65651  0  4.155657  0  1.592555  0  0.218019  0.600097  0  4.169809  0
C  C74  1  0.24868628  0.44223540  0.09701341  1  0  0.674173  0  3.869664  0  0  0.622778  0  4.164536  0  0  0.656539  0  4.155565  0  1.592542  0  0.218029  0.600126  0  4.169717  0
C  C75  1  0.75131306  0.05776457  0.59701341  1  0  0.674153  0  3.869709  0  0  0.622735  0  4.164626  0  0  0.656497  0  4.155656  0  1.592516  0  0.218021  0.600083  0  4.169805  0
C  C76  1  0.29739492  0.29463909  0.85456921  1  0  0.143324  0  3.642924  0  0  0.111635  0  3.897356  0  0  0.117714  0  3.913288  0  0.456992  0  0.05417  0.108105  0  3.886114  0
C  C77  1  0.70260550  0.20536089  0.35457054  1  0  0.143338  0  3.642817  0  0  0.111619  0  3.897288  0  0  0.11769  0  3.91323  0  0.457279  0  0.054162  0.108089  0  3.886044  0
C  C78  1  0.70260400  0.70535972  0.14543079  1  0  0.14332  0  3.642965  0  0  0.111652  0  3.89739  0  0  0.11773  0  3.913322  0  0.456674  0  0.054179  0.108122  0  3.886147  0
C  C79  1  0.29739558  0.79464133  0.64542879  1  0  0.143324  0  3.642893  0  0  0.111705  0  3.897263  0  0  0.117778  0  3.913202  0  0.45699  0  0.054234  0.108175  0  3.886018  0
C  C80  1  0.14415168  0.28091858  0.84759206  1  0  -0.107743  0  3.677142  0  0  -0.133325  0  3.930145  0  0  -0.138125  0  3.950702  0  -0.010277  0  -0.069541  -0.129751  0  3.915727  0
C  C81  1  0.85584910  0.21908253  0.34759073  1  0  -0.10775  0  3.677099  0  0  -0.133364  0  3.930096  0  0  -0.138162  0  3.950652  0  -0.010277  0  -0.069534  -0.129785  0  3.915676  0
C  C82  1  0.85584832  0.71908023  0.15240727  1  0  -0.107712  0  3.677171  0  0  -0.13333  0  3.930164  0  0  -0.138128  0  3.95072  0  -0.010273  0  -0.069561  -0.129754  0  3.915746  0
C  C83  1  0.14415054  0.78091855  0.65240794  1  0  -0.107809  0  3.677217  0  0  -0.133434  0  3.930215  0  0  -0.138231  0  3.950771  0  -0.01027  0  -0.069602  -0.129856  0  3.915796  0
C  C84  1  0.24072037  0.04000895  0.88922962  1  0  0.130012  0  3.684243  0  0  0.100497  0  3.938506  0  0  0.106281  0  3.95607  0  0.474045  0  0.047013  0.096991  0  3.926101  0
C  C85  1  0.75927896  0.45999102  0.38922829  1  0  0.129984  0  3.684213  0  0  0.100453  0  3.93848  0  0  0.106239  0  3.956045  0  0.474077  0  0.046968  0.096947  0  3.926075  0
C  C86  1  0.75928070  0.95998985  0.11077038  1  0  0.13002  0  3.684137  0  0  0.100498  0  3.938418  0  0  0.10628  0  3.955981  0  0.473973  0  0.046999  0.096991  0  3.926012  0
C  C87  1  0.24071887  0.54000779  0.61077171  1  0  0.130037  0  3.684266  0  0  0.100481  0  3.93853  0  0  0.106294  0  3.956105  0  0.474009  0  0.04699  0.096972  0  3.926123  0
N  N88  1  0.34587234  0.17648770  0.87550932  1  0  -0.302859  0  3.217947  0  0  -0.229086  0  3.485203  0  0  -0.244129  0  3.498961  0  -1.234926  0  -0.312231  -0.218785  0  3.47495  0
N  N89  1  0.65412807  0.32351228  0.37550932  1  0  -0.30288  0  3.217942  0  0  -0.229084  0  3.485197  0  0  -0.244127  0  3.498956  0  -1.235255  0  -0.312221  -0.218782  0  3.474945  0
N  N90  1  0.65412765  0.82351111  0.12449068  1  0  -0.30288  0  3.217948  0  0  -0.229123  0  3.485221  0  0  -0.244165  0  3.498979  0  -1.234921  0  -0.312228  -0.21882  0  3.474968  0
N  N91  1  0.34587228  0.67648767  0.62449068  1  0  -0.302863  0  3.217893  0  0  -0.229116  0  3.485163  0  0  -0.244157  0  3.498907  0  -1.234885  0  -0.312228  -0.218813  0  3.474911  0
N  N92  1  0.61053133  0.99156941  0.87356404  1  0  -0.487342  0  3.086389  0  0  -0.451676  0  3.343078  0  0  -0.464325  0  3.338887  0  -0.811146  0  -0.507973  -0.443845  0  3.345926  0
N  N93  1  0.38946752  0.50842937  0.37356404  1  0  -0.487322  0  3.086384  0  0  -0.451685  0  3.343082  0  0  -0.464338  0  3.338892  0  -0.811113  0  -0.508002  -0.443856  0  3.34593  0
N  N94  1  0.38946759  0.00842940  0.12643663  1  0  -0.487227  0  3.086331  0  0  -0.451598  0  3.34301  0  0  -0.464246  0  3.338818  0  -0.8111  0  -0.507984  -0.443775  0  3.345866  0
N  N95  1  0.61053283  0.49157057  0.62643596  1  0  -0.48735  0  3.086376  0  0  -0.451669  0  3.34306  0  0  -0.464315  0  3.338869  0  -0.811112  0  -0.508013  -0.443841  0  3.34591  0
N  N96  1  0.76481505  0.00074337  0.88330378  1  0  -0.266938  0  3.317929  0  0  -0.221622  0  3.568046  0  0  -0.240331  0  3.579085  0  -0.910771  0  -0.327535  -0.208611  0  3.559399  0
N  N97  1  0.23518465  0.49925774  0.38330378  1  0  -0.266956  0  3.317888  0  0  -0.221614  0  3.568023  0  0  -0.240324  0  3.57907  0  -0.910758  0  -0.327566  -0.208602  0  3.559376  0
N  N98  1  0.23518423  0.99925658  0.11669689  1  0  -0.267042  0  3.317874  0  0  -0.221684  0  3.568016  0  0  -0.240396  0  3.579061  0  -0.910765  0  -0.327563  -0.20867  0  3.559371  0
N  N99  1  0.76481571  0.50074220  0.61669622  1  0  -0.267009  0  3.31787  0  0  -0.221737  0  3.568042  0  0  -0.24045  0  3.579082  0  -0.910658  0  -0.327532  -0.208722  0  3.559398  0
O  O100  1  0.60290601  0.22386555  0.01439295  1  0  -0.65546  0  2.059928  0  0  -0.590131  0  2.320264  0  0  -0.617355  0  2.307207  0  -1.194804  0  -0.317197  -0.571014  0  2.328131  0
O  O101  1  0.39709333  0.27613442  0.51439295  1  0  -0.655487  0  2.05991  0  0  -0.590139  0  2.320249  0  0  -0.61736  0  2.307183  0  -1.19479  0  -0.317203  -0.571022  0  2.328117  0
O  O102  1  0.39709291  0.77613325  0.98560772  1  0  -0.655429  0  2.05994  0  0  -0.590078  0  2.320277  0  0  -0.617302  0  2.307218  0  -1.19484  0  -0.317166  -0.570962  0  2.328144  0
O  O103  1  0.60290523  0.72387007  0.48560705  1  0  -0.655507  0  2.059969  0  0  -0.590123  0  2.320254  0  0  -0.617347  0  2.307194  0  -1.194809  0  -0.317159  -0.571007  0  2.328121  0
O  O104  1  0.63558686  0.45048407  0.87681795  1  0  -0.627144  0  2.066623  0  0  -0.558292  0  2.323691  0  0  -0.585263  0  2.310213  0  -1.190881  0  -0.315296  -0.539999  0  2.332839  0
O  O105  1  0.36441355  0.04951590  0.37681795  1  0  -0.627155  0  2.066681  0  0  -0.55829  0  2.323772  0  0  -0.585261  0  2.310295  0  -1.190903  0  -0.315263  -0.539997  0  2.33292  0
O  O106  1  0.36441205  0.54951473  0.12318205  1  0  -0.627141  0  2.066625  0  0  -0.558288  0  2.323693  0  0  -0.585257  0  2.310216  0  -1.190878  0  -0.315282  -0.539995  0  2.332842  0
O  O107  1  0.63558716  0.95048518  0.62318272  1  0  -0.627144  0  2.066675  0  0  -0.558272  0  2.323757  0  0  -0.585243  0  2.310282  0  -1.190855  0  -0.315263  -0.539979  0  2.332906  0
O  O108  1  0.56918393  0.22253795  0.73410376  1  0  -0.870348  0  1.984305  0  0  -0.807182  0  2.210102  0  0  -0.829951  0  2.173763  0  -1.303717  0  -0.591535  -0.790276  0  2.23544  0
O  O109  1  0.43081577  0.27746316  0.23410376  1  0  -0.870343  0  1.984303  0  0  -0.807179  0  2.210109  0  0  -0.829949  0  2.173777  0  -1.303714  0  -0.591536  -0.790271  0  2.235448  0
O  O110  1  0.43081643  0.77746200  0.26589691  1  0  -0.870321  0  1.984289  0  0  -0.807168  0  2.210116  0  0  -0.829948  0  2.173801  0  -1.303719  0  -0.591528  -0.790267  0  2.235467  0
O  O111  1  0.56918350  0.72253678  0.76589558  1  0  -0.87036  0  1.984309  0  0  -0.807189  0  2.210105  0  0  -0.829961  0  2.173777  0  -1.303715  0  -0.591544  -0.790283  0  2.235446  0
O  O112  1  0.77232001  0.69677688  0.88400109  1  0  -0.633442  0  1.976261  0  0  -0.578767  0  2.198143  0  0  -0.602937  0  2.187801  0  -1.193147  0  -0.319545  -0.561209  0  2.204905  0
O  O113  1  0.22768028  0.80322304  0.38400176  1  0  -0.633437  0  1.976223  0  0  -0.578761  0  2.198134  0  0  -0.602929  0  2.187792  0  -1.193141  0  -0.319551  -0.561202  0  2.204897  0
O  O114  1  0.22767926  0.30322307  0.11599891  1  0  -0.633445  0  1.976228  0  0  -0.578773  0  2.198118  0  0  -0.602943  0  2.187777  0  -1.193152  0  -0.31955  -0.561215  0  2.204881  0
O  O115  1  0.77232044  0.19677804  0.61599891  1  0  -0.633448  0  1.976251  0  0  -0.578774  0  2.198167  0  0  -0.602944  0  2.187825  0  -1.193165  0  -0.319554  -0.561217  0  2.204929  0
O  O116  1  0.68271096  0.34322407  0.14500680  1  0  -0.606607  0  1.960111  0  0  -0.553266  0  2.182186  0  0  -0.578152  0  2.174291  0  -1.176568  0  -0.310196  -0.535611  0  2.187394  0
O  O117  1  0.31728946  0.15677591  0.64500680  1  0  -0.606615  0  1.960113  0  0  -0.553261  0  2.182193  0  0  -0.578149  0  2.174297  0  -1.176568  0  -0.310192  -0.535606  0  2.1874  0
O  O118  1  0.31728940  0.65677588  0.85499387  1  0  -0.606628  0  1.960069  0  0  -0.553282  0  2.182164  0  0  -0.578166  0  2.174266  0  -1.176546  0  -0.310199  -0.53563  0  2.187378  0
O  O119  1  0.68271234  0.84322518  0.35499253  1  0  -0.606612  0  1.960041  0  0  -0.553271  0  2.182128  0  0  -0.578154  0  2.174229  0  -1.176586  0  -0.310193  -0.535617  0  2.187342  0
O  O120  1  0.83644900  0.24842629  0.84056292  1  0  -0.537009  0  2.025691  0  0  -0.478515  0  2.260756  0  0  -0.502505  0  2.255092  0  -1.141781  0  -0.276703  -0.462373  0  2.263586  0
O  O121  1  0.16355070  0.25157482  0.34056159  1  0  -0.536959  0  2.025835  0  0  -0.478444  0  2.26092  0  0  -0.502431  0  2.255258  0  -1.141809  0  -0.276684  -0.462302  0  2.263752  0
O  O122  1  0.16355243  0.75157365  0.15943775  1  0  -0.537  0  2.025791  0  0  -0.478488  0  2.260899  0  0  -0.502473  0  2.255235  0  -1.141795  0  -0.276689  -0.462345  0  2.263731  0
O  O123  1  0.83644929  0.74842399  0.65943708  1  0  -0.537039  0  2.025824  0  0  -0.478609  0  2.260972  0  0  -0.502593  0  2.255303  0  -1.141941  0  -0.276746  -0.462467  0  2.263804  0
