# generated using pymatgen
data_ZnH11C17(N3O2)2
_symmetry_space_group_name_H-M   'P 1'
_cell_length_a   9.66926435
_cell_length_b   10.64955083
_cell_length_c   11.40048678
_cell_angle_alpha   68.31955572
_cell_angle_beta   64.48826758
_cell_angle_gamma   65.56112878
_symmetry_Int_Tables_number   1
_chemical_formula_structural   ZnH11C17(N3O2)2
_chemical_formula_sum   'Zn2 H22 C34 N12 O8'
_cell_volume   938.06508255
_cell_formula_units_Z   2
loop_
 _symmetry_equiv_pos_site_id
 _symmetry_equiv_pos_as_xyz
  1  'x, y, z'
loop_
 _atom_site_type_symbol
 _atom_site_label
 _atom_site_symmetry_multiplicity
 _atom_site_fract_x
 _atom_site_fract_y
 _atom_site_fract_z
 _atom_site_occupancy
 _atom_site_hle17_bader_spin_density
 _atom_site_hle17_ddec_charge
 _atom_site_hle17_ddec_spin_density
 _atom_site_hle17_ddec_sum_bond_order
 _atom_site_hle17_magmom
 _atom_site_hse06_10hf_bader_spin_density
 _atom_site_hse06_10hf_ddec_charge
 _atom_site_hse06_10hf_ddec_spin_density
 _atom_site_hse06_10hf_ddec_sum_bond_order
 _atom_site_hse06_10hf_magmom
 _atom_site_hse06_bader_spin_density
 _atom_site_hse06_ddec_charge
 _atom_site_hse06_ddec_spin_density
 _atom_site_hse06_ddec_sum_bond_order
 _atom_site_hse06_magmom
 _atom_site_pbe_bader_spin_density
 _atom_site_pbe_cm5_charge
 _atom_site_pbe_ddec_charge
 _atom_site_pbe_ddec_spin_density
 _atom_site_pbe_ddec_sum_bond_order
 _atom_site_pbe_magmom
Zn  Zn0  1  0.36444843  0.50772805  0.25753658  1  0  0.998606  0  1.85281  0  0  0.801147  0  2.332552  0  0  0.850431  0  2.274032  0  0  0.704554  0.766878  0  2.372485  0
Zn  Zn1  1  0.63554504  0.49227267  0.74246574  1  0  0.998579  0  1.852908  0  0  0.801133  0  2.332656  0  0  0.850414  0  2.274136  0  0  0.704557  0.766865  0  2.372585  0
H  H2  1  0.92792641  0.38373507  0.24169951  1  0  0.110373  0  0.941445  0  0  0.118179  0  1.007588  0  0  0.121933  0  1.005423  0  0  0.10639  0.115432  0  1.009368  0
H  H3  1  0.07206887  0.61626034  0.75830314  1  0  0.110372  0  0.941479  0  0  0.118161  0  1.007633  0  0  0.121915  0  1.005471  0  0  0.106374  0.115414  0  1.009413  0
H  H4  1  0.95791236  0.10485867  0.32951554  1  0  0.125054  0  0.922792  0  0  0.129886  0  0.993271  0  0  0.133017  0  0.989722  0  0  0.126885  0.127432  0  0.99592  0
H  H5  1  0.04208373  0.89513777  0.67048471  1  0  0.124992  0  0.922857  0  0  0.129826  0  0.993317  0  0  0.132957  0  0.989771  0  0  0.126878  0.127373  0  0.995966  0
H  H6  1  0.14041768  0.11548950  0.31800109  1  0  0.133539  0  0.910441  0  0  0.144475  0  0.96924  0  0  0.147026  0  0.966763  0  0  0.130208  0.14227  0  0.97121  0
H  H7  1  0.85957921  0.88450798  0.68199674  1  0  0.133597  0  0.910454  0  0  0.144582  0  0.969181  0  0  0.147133  0  0.966704  0  0  0.13024  0.14237  0  0.971154  0
H  H8  1  0.35581338  0.11013988  0.12560674  1  0  0.119665  0  0.909326  0  0  0.132483  0  0.959886  0  0  0.13535  0  0.957593  0  0  0.142454  0.130151  0  0.961956  0
H  H9  1  0.64418427  0.88986194  0.87439893  1  0  0.11969  0  0.90937  0  0  0.132494  0  0.959959  0  0  0.13536  0  0.957667  0  0  0.142432  0.130163  0  0.962027  0
H  H10  1  0.91245964  0.12084178  0.14525077  1  0  0.124375  0  0.920127  0  0  0.135014  0  0.972956  0  0  0.138578  0  0.969525  0  0  0.139918  0.132295  0  0.975557  0
H  H11  1  0.08754599  0.87915356  0.85474552  1  0  0.124452  0  0.920117  0  0  0.135035  0  0.973011  0  0  0.138598  0  0.969582  0  0  0.139917  0.132317  0  0.975613  0
H  H12  1  0.11799214  0.36674447  0.45946510  1  0  0.092285  0  0.935294  0  0  0.097767  0  1.001084  0  0  0.100231  0  0.999451  0  0  0.121383  0.095889  0  1.002365  0
H  H13  1  0.88201689  0.63324766  0.54052934  1  0  0.092273  0  0.935233  0  0  0.0977  0  1.001099  0  0  0.100164  0  0.999464  0  0  0.121347  0.095821  0  1.002382  0
H  H14  1  0.97873043  0.19948763  0.90032727  1  0  0.132984  0  0.943257  0  0  0.137563  0  1.009059  0  0  0.142052  0  1.006234  0  0  0.120503  0.134372  0  1.011285  0
H  H15  1  0.02127831  0.80051198  0.09966990  1  0  0.132975  0  0.943248  0  0  0.137573  0  1.009057  0  0  0.142065  0  1.006227  0  0  0.120503  0.134379  0  1.011282  0
H  H16  1  0.55795800  0.36182783  0.44200000  1  0  0.093697  0  0.943433  0  0  0.097078  0  1.013262  0  0  0.09976  0  1.01091  0  0  0.121731  0.094889  0  1.01527  0
H  H17  1  0.44204008  0.63817284  0.55799803  1  0  0.093663  0  0.943461  0  0  0.097046  0  1.013306  0  0  0.09973  0  1.010953  0  0  0.121721  0.094872  0  1.015302  0
H  H18  1  0.44190430  0.19293015  0.87961013  1  0  0.12869  0  0.948258  0  0  0.134488  0  1.012809  0  0  0.138668  0  1.01047  0  0  0.118287  0.131391  0  1.014816  0
H  H19  1  0.55810217  0.80707270  0.12039110  1  0  0.128666  0  0.948196  0  0  0.134371  0  1.012876  0  0  0.138551  0  1.010536  0  0  0.118193  0.131275  0  1.014882  0
H  H20  1  0.49974887  0.26329623  0.68380085  1  0  0.112614  0  0.971776  0  0  0.119002  0  1.036391  0  0  0.121576  0  1.036926  0  0  0.111852  0.117147  0  1.036143  0
H  H21  1  0.50025338  0.73670556  0.31620142  1  0  0.112596  0  0.971768  0  0  0.119001  0  1.036374  0  0  0.121557  0  1.036932  0  0  0.111838  0.117146  0  1.036126  0
H  H22  1  0.03849265  0.26871735  0.70344449  1  0  0.111579  0  0.976977  0  0  0.116543  0  1.044941  0  0  0.11937  0  1.045003  0  0  0.109515  0.114582  0  1.045067  0
H  H23  1  0.96151522  0.73127479  0.29655124  1  0  0.111624  0  0.976974  0  0  0.116641  0  1.044871  0  0  0.119473  0  1.044924  0  0  0.109539  0.114681  0  1.044996  0
C  C24  1  0.14775421  0.90520203  0.33085946  1  0  0.266813  0  3.794366  0  0  0.258774  0  4.071118  0  0  0.265694  0  4.089089  0  0  0.200107  0.254105  0  4.059014  0
C  C25  1  0.85224864  0.09480491  0.66912850  1  0  0.266724  0  3.794394  0  0  0.258655  0  4.071156  0  0  0.265577  0  4.089127  0  0  0.200115  0.253986  0  4.059052  0
C  C26  1  0.95997672  0.43389920  0.13503409  1  0  -0.111916  0  3.744066  0  0  -0.145287  0  3.999876  0  0  -0.146547  0  4.019552  0  0  -0.090451  -0.144271  0  3.986514  0
C  C27  1  0.04001970  0.56609622  0.86496990  1  0  -0.111978  0  3.744143  0  0  -0.145307  0  4.000006  0  0  -0.146567  0  4.019657  0  0  -0.090473  -0.144292  0  3.986645  0
C  C28  1  0.10535482  0.46559937  0.06929606  1  0  -0.063291  0  3.746498  0  0  -0.052154  0  3.98647  0  0  -0.05605  0  4.005738  0  0  -0.017492  -0.049466  0  3.973302  0
C  C29  1  0.89463980  0.53440132  0.93070497  1  0  -0.063228  0  3.746389  0  0  -0.052118  0  3.986392  0  0  -0.056008  0  4.005668  0  0  -0.017432  -0.04943  0  3.973225  0
C  C30  1  0.85400925  0.46739397  0.06740591  1  0  -0.065247  0  3.747949  0  0  -0.049904  0  3.98458  0  0  -0.053295  0  4.003363  0  0  -0.016678  -0.047728  0  3.971946  0
C  C31  1  0.14598997  0.53260672  0.93259346  1  0  -0.065197  0  3.747926  0  0  -0.049932  0  3.984627  0  0  -0.053299  0  4.003382  0  0  -0.01667  -0.047755  0  3.971994  0
C  C32  1  0.20688814  0.43269473  0.15208283  1  0  0.64817  0  3.934258  0  0  0.599975  0  4.22906  0  0  0.634085  0  4.220756  0  0  0.201808  0.576541  0  4.233674  0
C  C33  1  0.79310171  0.56731659  0.84791707  1  0  0.648216  0  3.933777  0  0  0.599952  0  4.228735  0  0  0.634062  0  4.220434  0  0  0.201759  0.576517  0  4.233348  0
C  C34  1  0.08918199  0.06297327  0.28718227  1  0  -0.111743  0  3.621586  0  0  -0.177818  0  3.872524  0  0  -0.175273  0  3.880043  0  0  -0.036835  -0.179273  0  3.867562  0
C  C35  1  0.91081645  0.93702634  0.71281600  1  0  -0.111674  0  3.621501  0  0  -0.177709  0  3.872282  0  0  -0.175165  0  3.8798  0  0  -0.036824  -0.179155  0  3.867313  0
C  C36  1  0.28188715  0.12591114  0.06861208  1  0  0.114036  0  3.588297  0  0  0.066809  0  3.847854  0  0  0.075827  0  3.862024  0  0  0.075975  0.060624  0  3.838759  0
C  C37  1  0.71811437  0.87409278  0.93139058  1  0  0.113967  0  3.588361  0  0  0.06671  0  3.847973  0  0  0.075729  0  3.862143  0  0  0.076005  0.060525  0  3.83888  0
C  C38  1  0.03118371  0.13008479  0.08003899  1  0  0.11525  0  3.577742  0  0  0.070156  0  3.832772  0  0  0.079516  0  3.846484  0  0  0.078513  0.064209  0  3.823851  0
C  C39  1  0.96882082  0.86991374  0.91995745  1  0  0.115187  0  3.57762  0  0  0.070133  0  3.832687  0  0  0.079491  0  3.846401  0  0  0.078546  0.064186  0  3.823766  0
C  C40  1  0.26262670  0.25574191  0.71804214  1  0  0.089947  0  3.731325  0  0  0.104628  0  3.955963  0  0  0.106937  0  3.978112  0  0  0.016837  0.103207  0  3.940964  0
C  C41  1  0.73738005  0.74425347  0.28195725  1  0  0.089884  0  3.731463  0  0  0.104572  0  3.956071  0  0  0.106883  0  3.978217  0  0  0.016778  0.10315  0  3.941072  0
C  C42  1  0.22055184  0.19934652  0.86440911  1  0  0.126207  0  3.693475  0  0  0.134612  0  3.924105  0  0  0.141681  0  3.943081  0  0  0.035187  0.130135  0  3.911212  0
C  C43  1  0.77945341  0.80065318  0.13559544  1  0  0.125996  0  3.693698  0  0  0.134509  0  3.924198  0  0  0.141578  0  3.943175  0  0  0.035127  0.130034  0  3.911302  0
C  C44  1  0.19796185  0.34309901  0.51416615  1  0  0.138662  0  3.675528  0  0  0.106059  0  3.927417  0  0  0.11301  0  3.94532  0  0  0.055209  0.101598  0  3.915829  0
C  C45  1  0.80204444  0.65689105  0.48583265  1  0  0.138762  0  3.67546  0  0  0.106225  0  3.927346  0  0  0.113177  0  3.945249  0  0  0.055289  0.101761  0  3.91576  0
C  C46  1  0.07076247  0.17601762  0.94272777  1  0  -0.13084  0  3.655212  0  0  -0.151371  0  3.910296  0  0  -0.159907  0  3.929707  0  0  -0.061058  -0.146556  0  3.897999  0
C  C47  1  0.92924399  0.82398198  0.05726848  1  0  -0.130754  0  3.655109  0  0  -0.151352  0  3.910165  0  0  -0.159892  0  3.929584  0  0  -0.061068  -0.14654  0  3.897881  0
C  C48  1  0.44382058  0.34029492  0.50378059  1  0  0.147877  0  3.667579  0  0  0.114116  0  3.921694  0  0  0.121516  0  3.938776  0  0  0.060125  0.109422  0  3.91005  0
C  C49  1  0.55618234  0.65970156  0.49622242  1  0  0.147929  0  3.667443  0  0  0.114163  0  3.921565  0  0  0.121565  0  3.938641  0  0  0.060158  0.109456  0  3.909916  0
C  C50  1  0.32667581  0.17200531  0.93142627  1  0  -0.133721  0  3.665183  0  0  -0.156844  0  3.925583  0  0  -0.164455  0  3.943808  0  0  -0.065021  -0.152108  0  3.913818  0
C  C51  1  0.67333403  0.82799437  0.06857574  1  0  -0.133521  0  3.665219  0  0  -0.156601  0  3.925617  0  0  -0.16421  0  3.943841  0  0  -0.064855  -0.151866  0  3.913851  0
C  C52  1  0.41035223  0.28283433  0.64028328  1  0  -0.135264  0  3.661468  0  0  -0.154519  0  3.904963  0  0  -0.161846  0  3.927028  0  0  -0.072102  -0.14933  0  3.88988  0
C  C53  1  0.58965264  0.71716319  0.35971691  1  0  -0.135164  0  3.661272  0  0  -0.154453  0  3.904782  0  0  -0.161766  0  3.926856  0  0  -0.072034  -0.149264  0  3.889704  0
C  C54  1  0.15568077  0.28617974  0.65107831  1  0  -0.133699  0  3.65946  0  0  -0.151038  0  3.900874  0  0  -0.158668  0  3.923301  0  0  -0.071749  -0.146725  0  3.886533  0
C  C55  1  0.84432369  0.71381565  0.34892190  1  0  -0.133767  0  3.659673  0  0  -0.151174  0  3.901021  0  0  -0.158809  0  3.92345  0  0  -0.071754  -0.146859  0  3.886679  0
C  C56  1  0.69822689  0.43360367  0.14744230  1  0  0.661725  0  3.921131  0  0  0.611582  0  4.217893  0  0  0.645712  0  4.209712  0  0  0.204026  0.588111  0  4.222685  0
C  C57  1  0.30176925  0.56639597  0.85255856  1  0  0.661773  0  3.921334  0  0  0.611638  0  4.218111  0  0  0.645761  0  4.209931  0  0  0.204027  0.588167  0  4.222904  0
N  N58  1  0.20381199  0.81806622  0.24954341  1  0  -0.328781  0  2.938517  0  0  -0.322759  0  3.214246  0  0  -0.329297  0  3.227269  0  0  -0.248703  -0.318294  0  3.205356  0
N  N59  1  0.79618644  0.18193341  0.75045662  1  0  -0.328871  0  2.938423  0  0  -0.322864  0  3.214161  0  0  -0.329404  0  3.227182  0  0  -0.248721  -0.318401  0  3.205273  0
N  N60  1  0.24014105  0.68839202  0.32988503  1  0  -0.163883  0  3.306018  0  0  -0.099197  0  3.624645  0  0  -0.1106  0  3.637419  0  0  -0.137549  -0.091625  0  3.615673  0
N  N61  1  0.75984525  0.31161293  0.67011664  1  0  -0.163774  0  3.305994  0  0  -0.09906  0  3.624579  0  0  -0.11046  0  3.637354  0  0  -0.137521  -0.091488  0  3.615606  0
N  N62  1  0.20751549  0.69674751  0.45321696  1  0  -0.104282  0  2.96888  0  0  -0.10184  0  3.264098  0  0  -0.100365  0  3.277509  0  0  -0.111198  -0.102498  0  3.255057  0
N  N63  1  0.79247239  0.30325955  0.54678340  1  0  -0.104491  0  2.96891  0  0  -0.10207  0  3.264148  0  0  -0.100597  0  3.277559  0  0  -0.11131  -0.102728  0  3.255104  0
N  N64  1  0.14922554  0.83384597  0.45601414  1  0  -0.300406  0  2.935965  0  0  -0.275399  0  3.214676  0  0  -0.284993  0  3.226699  0  0  -0.221199  -0.268754  0  3.206449  0
N  N65  1  0.85077386  0.16616425  0.54398181  1  0  -0.300148  0  2.935972  0  0  -0.275133  0  3.214682  0  0  -0.284727  0  3.226705  0  0  -0.221108  -0.268489  0  3.206454  0
N  N66  1  0.13576860  0.10652958  0.14048701  1  0  0.015337  0  3.574072  0  0  0.108941  0  3.784367  0  0  0.095459  0  3.810312  0  0  -0.202163  0.117432  0  3.766978  0
N  N67  1  0.86423031  0.89347536  0.85951185  1  0  0.015289  0  3.573916  0  0  0.108873  0  3.784245  0  0  0.095394  0  3.810187  0  0  -0.202247  0.117364  0  3.76686  0
N  N68  1  0.33876710  0.37158302  0.44151008  1  0  -0.314369  0  3.310446  0  0  -0.231049  0  3.590799  0  0  -0.249495  0  3.602883  0  0  -0.31834  -0.219313  0  3.582922  0
N  N69  1  0.66123837  0.62840601  0.55849200  1  0  -0.314441  0  3.310391  0  0  -0.231135  0  3.590733  0  0  -0.24958  0  3.602812  0  0  -0.318429  -0.219398  0  3.58286  0
O  O70  1  0.24921452  0.53864736  0.13991766  1  0  -0.63085  0  2.038826  0  0  -0.553513  0  2.305225  0  0  -0.583142  0  2.289116  0  0  -0.32845  -0.532364  0  2.315449  0
O  O71  1  0.75076579  0.46136504  0.86008531  1  0  -0.630854  0  2.038605  0  0  -0.553522  0  2.305098  0  0  -0.583154  0  2.288986  0  0  -0.328426  -0.532375  0  2.315323  0
O  O72  1  0.23666341  0.31370947  0.23014189  1  0  -0.622257  0  1.895745  0  0  -0.579807  0  2.112265  0  0  -0.602769  0  2.102413  0  0  -0.32498  -0.562206  0  2.11799  0
O  O73  1  0.76333220  0.68630180  0.76985330  1  0  -0.622259  0  1.895484  0  0  -0.579784  0  2.112058  0  0  -0.602742  0  2.102202  0  0  -0.324973  -0.562182  0  2.117781  0
O  O74  1  0.57123497  0.54332401  0.14788048  1  0  -0.64366  0  2.028984  0  0  -0.567441  0  2.29796  0  0  -0.597983  0  2.283107  0  0  -0.332819  -0.545586  0  2.307325  0
O  O75  1  0.42875660  0.45667561  0.85211940  1  0  -0.643713  0  2.02915  0  0  -0.567493  0  2.298121  0  0  -0.598038  0  2.283283  0  0  -0.332865  -0.545637  0  2.307483  0
O  O76  1  0.69859159  0.31005063  0.21254773  1  0  -0.613326  0  1.870126  0  0  -0.569324  0  2.078475  0  0  -0.592741  0  2.068983  0  0  -0.324685  -0.552003  0  2.084222  0
O  O77  1  0.30141139  0.68994903  0.78745415  1  0  -0.613323  0  1.870133  0  0  -0.569302  0  2.078475  0  0  -0.592722  0  2.068989  0  0  -0.324626  -0.551979  0  2.084219  0
