# generated using pymatgen
data_CuH13C7N2ClO3
_symmetry_space_group_name_H-M   'P 1'
_cell_length_a   8.57343659
_cell_length_b   15.79026410
_cell_length_c   15.78249592
_cell_angle_alpha   119.96945496
_cell_angle_beta   90.00673525
_cell_angle_gamma   90.00593108
_symmetry_Int_Tables_number   1
_chemical_formula_structural   CuH13C7N2ClO3
_chemical_formula_sum   'Cu6 H78 C42 N12 Cl6 O18'
_cell_volume   1850.90543655
_cell_formula_units_Z   6
loop_
 _symmetry_equiv_pos_site_id
 _symmetry_equiv_pos_as_xyz
  1  'x, y, z'
loop_
 _atom_site_type_symbol
 _atom_site_label
 _atom_site_symmetry_multiplicity
 _atom_site_fract_x
 _atom_site_fract_y
 _atom_site_fract_z
 _atom_site_occupancy
 _atom_site_pbe_bader_charge
 _atom_site_pbe_bader_spin_density
 _atom_site_pbe_cm5_charge
 _atom_site_pbe_ddec_charge
 _atom_site_pbe_ddec_spin_density
 _atom_site_pbe_ddec_sum_bond_order
 _atom_site_pbe_magmom
Cu  Cu0  1  0.89877783  0.59460163  0.21276071  1  0.998297  0.54993  0.626156  0.784586  0.723053  2.276921  0.55
Cu  Cu1  1  0.23179422  0.61812526  0.40517749  1  0.997534  -0.550762  0.627087  0.785735  -0.723626  2.277565  -0.551
Cu  Cu2  1  0.56550835  0.78733598  0.38200229  1  0.995728  0.559516  0.627506  0.7866  0.73413  2.277882  0.559
Cu  Cu3  1  0.89855853  0.40541565  0.78727390  1  0.998654  0.550727  0.626932  0.78567  0.724097  2.277649  0.551
Cu  Cu4  1  0.23204537  0.38200801  0.59483225  1  0.998279  -0.55952  0.627723  0.786974  -0.734652  2.277782  -0.559
Cu  Cu5  1  0.56541148  0.21281601  0.61814711  1  0.994147  -0.549917  0.626431  0.785401  -0.722422  2.277122  -0.55
H  H6  1  0.58855576  0.08629488  0.19864365  1  -0.003731  -0.00079  0.079941  0.104778  -0.000409  1.014643  0.0
H  H7  1  0.92194332  0.11245394  0.91389822  1  -0.006504  0.000835  0.079871  0.104811  0.00042  1.014396  0.0
H  H8  1  0.25697532  0.80122039  0.88733565  1  -0.012807  -0.000842  0.079949  0.104759  -0.000423  1.014351  0.0
H  H9  1  0.58855438  0.91364623  0.80134102  1  -0.003673  0.000835  0.080009  0.104879  0.000434  1.014221  0.0
H  H10  1  0.92196711  0.88747518  0.08599710  1  -0.006814  0.000844  0.079961  0.104846  0.000427  1.014111  0.0
H  H11  1  0.25696668  0.19877793  0.11263653  1  -0.010721  -0.00089  0.079913  0.104669  -0.000448  1.014397  0.0
H  H12  1  0.59748990  0.18702713  0.32092129  1  0.056704  4.9e-05  0.101786  0.14972  4.1e-05  0.986905  0.0
H  H13  1  0.93088766  0.13395593  0.81305982  1  0.05887  2.2e-05  0.10174  0.149878  -2.5e-05  0.986376  0.0
H  H14  1  0.26589123  0.67898535  0.86588397  1  0.063038  -2.5e-05  0.10179  0.149768  3.3e-05  0.986925  0.0
H  H15  1  0.59744040  0.81296572  0.67902006  1  0.056896  0.0  0.101869  0.149858  -2.3e-05  0.986907  0.0
H  H16  1  0.93096074  0.86606077  0.18689315  1  0.059036  6e-06  0.101725  0.149886  -2.8e-05  0.986583  0.0
H  H17  1  0.26588842  0.32099561  0.13406211  1  0.062815  -5.6e-05  0.101793  0.149823  2e-06  0.986756  0.0
H  H18  1  0.41639188  0.12870822  0.27295444  1  0.030868  5.1e-05  0.086799  0.119802  5.5e-05  1.028607  0.0
H  H19  1  0.74984742  0.14443690  0.87145898  1  0.057378  6.8e-05  0.086723  0.119527  4.4e-05  1.02881  0.0
H  H20  1  0.08465703  0.72705768  0.85592987  1  0.050832  -3.5e-05  0.086623  0.119884  -2.3e-05  1.027766  0.0
H  H21  1  0.41637093  0.87127277  0.72696681  1  0.030911  -5.9e-05  0.086757  0.119807  -2.9e-05  1.028735  0.0
H  H22  1  0.74990463  0.85548601  0.12844316  1  0.057837  1e-05  0.086646  0.119437  -2.3e-05  1.028686  0.0
H  H23  1  0.08464368  0.27285767  0.14389405  1  0.050723  -3.6e-05  0.086702  0.120029  -2.4e-05  1.027918  0.0
H  H24  1  0.15338971  0.76665878  0.25726635  1  0.101392  6.2e-05  0.088599  0.150668  1.8e-05  1.039787  0.0
H  H25  1  0.48682916  0.49076596  0.23336733  1  0.085803  0.000234  0.088561  0.150371  0.000174  1.040014  0.0
H  H26  1  0.81959342  0.74294359  0.50939593  1  0.111239  -0.000156  0.08879  0.150854  -0.000168  1.040518  0.0
H  H27  1  0.15334133  0.23331654  0.74273571  1  0.101492  -0.000228  0.088632  0.150598  -0.000172  1.039575  0.0
H  H28  1  0.48667536  0.50926122  0.76662463  1  0.085062  0.000154  0.088498  0.150296  0.000169  1.040096  0.0
H  H29  1  0.81975961  0.25705271  0.49064584  1  0.112628  -6.1e-05  0.088578  0.150579  -1.9e-05  1.040831  0.0
H  H30  1  0.18176000  0.88824025  0.28019136  1  0.03792  -0.00012  0.088126  0.126255  -5.4e-05  1.008511  0.0
H  H31  1  0.51518373  0.39214932  0.11174857  1  -0.00102  -0.000171  0.087831  0.12564  -0.000104  1.008561  0.0
H  H32  1  0.84801178  0.71990647  0.60806075  1  -0.004397  0.000153  0.087895  0.125794  9.5e-05  1.008614  0.0
H  H33  1  0.18169976  0.11174619  0.71985197  1  0.037941  0.000156  0.088078  0.126093  0.000106  1.008946  0.0
H  H34  1  0.51521163  0.60786781  0.88823494  1  -0.000629  -0.000153  0.087866  0.125806  -0.000103  1.008436  0.0
H  H35  1  0.84799066  0.28014853  0.39201647  1  -0.004834  0.000131  0.087817  0.125703  5.7e-05  1.008593  0.0
H  H36  1  0.25283797  0.85547363  0.36537078  1  0.035741  -0.000194  0.095779  0.14101  -0.000133  1.002938  0.0
H  H37  1  0.58655148  0.50997174  0.14451398  1  0.079321  -0.000199  0.095685  0.140751  -0.000157  1.002854  0.0
H  H38  1  0.91868011  0.63472158  0.49006414  1  0.04366  0.00031  0.095573  0.141026  0.000202  1.002081  0.0
H  H39  1  0.25281332  0.14449347  0.63466966  1  0.036617  0.0002  0.09562  0.140908  0.000156  1.002752  0.0
H  H40  1  0.58634915  0.49002136  0.85548023  1  0.07986  -0.000306  0.095774  0.140884  -0.000204  1.002486  0.0
H  H41  1  0.91881868  0.36530548  0.50999718  1  0.042817  0.000199  0.095699  0.141026  0.000133  1.002188  0.0
H  H42  1  0.28667206  0.69399586  0.09308254  1  0.057427  0.000438  0.106069  0.165364  0.000196  0.96487  0.001
H  H43  1  0.61972254  0.39928560  0.30627745  1  0.090278  0.000697  0.106059  0.165697  0.00036  0.964768  0.001
H  H44  1  0.95333202  0.90696099  0.60088785  1  0.077527  -0.000286  0.106185  0.165792  -4.3e-05  0.963945  -0.001
H  H45  1  0.28664988  0.30592877  0.90702752  1  0.059367  -0.000719  0.10602  0.16532  -0.000391  0.964843  -0.001
H  H46  1  0.61969050  0.60062583  0.69366964  1  0.089532  0.000355  0.10587  0.165445  0.000105  0.965057  0.001
H  H47  1  0.95342022  0.09310875  0.39919731  1  0.07875  -0.000488  0.106098  0.165661  -0.00023  0.964238  -0.001
H  H48  1  0.47588940  0.73478304  0.08177508  1  0.06015  -7.3e-05  0.087647  0.132741  -6.4e-05  1.039691  0.0
H  H49  1  0.80880649  0.34700931  0.26547634  1  0.073366  -2.8e-05  0.08771  0.133174  -5.1e-05  1.039528  0.0
H  H50  1  0.14262413  0.91792396  0.65282389  1  0.050297  3.5e-05  0.087635  0.132885  4.4e-05  1.03935  0.0
H  H51  1  0.47586305  0.26514189  0.91831283  1  0.060137  3.9e-05  0.087735  0.132949  6.2e-05  1.039588  0.0
H  H52  1  0.80884111  0.65284933  0.73446498  1  0.074419  -2.9e-05  0.087781  0.133114  -4.1e-05  1.039269  0.0
H  H53  1  0.14260447  0.08211686  0.34720632  1  0.050348  5.1e-05  0.087667  0.13303  5.1e-05  1.039536  0.0
H  H54  1  0.30730324  0.81193558  0.10766277  1  -0.031483  0.002708  0.08119  0.103298  0.001282  1.026155  0.002
H  H55  1  0.64010126  0.29598087  0.18831026  1  -0.028367  0.002758  0.08116  0.103807  0.001321  1.02613  0.002
H  H56  1  0.97403480  0.89209454  0.70415026  1  -0.017524  -0.002745  0.081151  0.103591  -0.001333  1.026389  -0.002
H  H57  1  0.30731251  0.18794828  0.89232833  1  -0.033605  -0.002738  0.081118  0.103346  -0.001303  1.026314  -0.002
H  H58  1  0.64018338  0.70397193  0.81161172  1  -0.027041  0.002781  0.081145  0.103789  0.001351  1.026025  0.002
H  H59  1  0.97394361  0.10794242  0.29592197  1  -0.016952  -0.002744  0.081083  0.103386  -0.001319  1.026336  -0.002
H  H60  1  0.41692076  0.94714195  0.20242154  1  0.446799  0.000762  0.318885  0.267491  0.000404  0.948372  0.001
H  H61  1  0.75017972  0.25524801  0.05292653  1  0.440219  0.001309  0.318593  0.26719  0.000736  0.948016  0.001
H  H62  1  0.08385853  0.79744793  0.74466551  1  0.445416  -0.001309  0.318621  0.26694  -0.00074  0.948401  -0.001
H  H63  1  0.41668768  0.05273807  0.79753628  1  0.44558  -0.000755  0.318799  0.26751  -0.000395  0.948046  -0.001
H  H64  1  0.75033516  0.74468062  0.94698645  1  0.44093  0.001311  0.318449  0.266924  0.000739  0.94793  0.001
H  H65  1  0.08394339  0.20247771  0.25529236  1  0.445261  -0.001316  0.318599  0.266849  -0.000745  0.948227  -0.001
H  H66  1  0.70031637  0.03329744  0.31238480  1  0.047414  2.7e-05  0.114506  0.077906  -4.2e-05  0.96808  0.0
H  H67  1  0.03376108  0.27923903  0.96694542  1  0.061374  9e-06  0.114691  0.078225  0.000144  0.969104  0.0
H  H68  1  0.36745394  0.68748229  0.72023301  1  0.080462  1.8e-05  0.114872  0.077575  -9.2e-05  0.968959  0.0
H  H69  1  0.70032145  0.96685982  0.68779542  1  0.047245  -5.3e-05  0.114628  0.077836  -1.1e-05  0.968193  0.0
H  H70  1  0.03385932  0.72075493  0.03307396  1  0.060649  4.4e-05  0.114606  0.0781  0.000153  0.969083  0.0
H  H71  1  0.36733652  0.31267419  0.27978086  1  0.082004  -1.4e-05  0.114956  0.077909  -0.000151  0.968592  0.0
H  H72  1  0.38562285  0.67058738  0.24083807  1  0.477251  -0.00035  0.269181  0.292024  0.000325  0.993782  0.0
H  H73  1  0.71910994  0.57025572  0.32955231  1  0.482311  -0.000126  0.269503  0.292498  0.000436  0.992972  0.0
H  H74  1  0.05191395  0.75900854  0.42946258  1  0.474391  0.000273  0.269026  0.292049  -0.000309  0.994521  0.0
H  H75  1  0.38554390  0.32940993  0.75921278  1  0.476016  0.000101  0.269133  0.291909  -0.000438  0.993926  0.0
H  H76  1  0.71892707  0.42962889  0.67047454  1  0.481268  -0.000299  0.26957  0.292974  0.000305  0.993128  0.0
H  H77  1  0.05213406  0.24088519  0.57047272  1  0.474311  0.00035  0.269135  0.292516  -0.00032  0.993365  0.0
H  H78  1  0.55591699  0.68935927  0.19853318  1  0.501834  -0.000462  0.288199  0.299598  -8.8e-05  0.982195  0.0
H  H79  1  0.88934536  0.50912949  0.31078645  1  0.478544  -0.000322  0.288184  0.299184  0.000139  0.983541  0.0
H  H80  1  0.22202915  0.80159617  0.49068530  1  0.491439  0.000336  0.288229  0.29931  -0.000133  0.982304  0.0
H  H81  1  0.55580867  0.31070791  0.80162280  1  0.5018  0.00035  0.288187  0.299487  -0.000134  0.982975  0.0
H  H82  1  0.88909308  0.49083523  0.68912749  1  0.478518  -0.000324  0.288322  0.299546  0.000135  0.982954  0.0
H  H83  1  0.22237834  0.19861444  0.50935492  1  0.491252  0.000448  0.288255  0.299266  8.6e-05  0.982378  0.0
C  C84  1  0.51881180  0.90483709  0.57964101  1  1.628834  -0.000565  0.200219  0.564571  0.000662  4.18952  -0.002
C  C85  1  0.85211815  0.67477193  0.09513337  1  1.614602  -0.000553  0.199745  0.564424  0.000918  4.191406  -0.002
C  C86  1  0.18549116  0.42046278  0.32508470  1  1.609247  0.000437  0.199721  0.563761  -0.000923  4.190884  0.002
C  C87  1  0.51865073  0.09520137  0.42039166  1  1.628819  0.000841  0.200418  0.564645  -0.000544  4.189623  0.002
C  C88  1  0.85203619  0.32515791  0.90482306  1  1.616836  -0.000516  0.200028  0.565012  0.00093  4.19074  -0.002
C  C89  1  0.18569478  0.57955244  0.67482939  1  1.608931  0.000259  0.199967  0.564545  -0.001043  4.190156  0.002
C  C90  1  0.57472866  0.95296159  0.68731364  1  0.339973  0.009165  0.011024  0.075304  0.00636  3.866106  0.008
C  C91  1  0.90828044  0.73425247  0.04690226  1  0.342337  0.009773  0.010844  0.073354  0.007135  3.867448  0.008
C  C92  1  0.24188008  0.31283626  0.26585844  1  0.348344  -0.009774  0.011127  0.075713  -0.007178  3.864277  -0.008
C  C93  1  0.57471465  0.04708070  0.31272607  1  0.338916  -0.008927  0.010759  0.074624  -0.00626  3.866356  -0.007
C  C94  1  0.90819060  0.26570716  0.95307327  1  0.34154  0.009778  0.011001  0.073204  0.007135  3.86732  0.008
C  C95  1  0.24199698  0.68722605  0.73410816  1  0.350361  -0.009983  0.01093  0.075951  -0.007283  3.86485  -0.008
C  C96  1  0.54243817  0.11594068  0.27325241  1  -0.040637  -0.000482  -0.240102  -0.401622  -0.000349  3.932114  0.0
C  C97  1  0.87594650  0.15743730  0.88422691  1  -0.06624  0.000843  -0.240106  -0.401213  0.000501  3.931759  0.0
C  C98  1  0.21063186  0.72668132  0.84252457  1  -0.058581  -0.000813  -0.23988  -0.401858  -0.00048  3.930671  0.0
C  C99  1  0.54243475  0.88404307  0.72671907  1  -0.041174  0.000505  -0.240261  -0.402045  0.00039  3.931656  0.0
C  C100  1  0.87600780  0.84251757  0.11570638  1  -0.065588  0.00082  -0.239975  -0.401106  0.000496  3.931745  0.0
C  C101  1  0.21059469  0.27330788  0.15741777  1  -0.060323  -0.000856  -0.240203  -0.402214  -0.000546  3.931372  0.0
C  C102  1  0.49724550  0.11405916  0.71929755  1  1.373789  0.00192  0.253102  0.445551  0.000158  3.995611  0.002
C  C103  1  0.83054324  0.60517771  0.88584694  1  1.378334  -0.001084  0.253484  0.444339  0.000518  3.997115  -0.001
C  C104  1  0.16359107  0.28106479  0.39501588  1  1.377404  0.000896  0.253464  0.444609  -0.000632  3.996416  0.001
C  C105  1  0.49727044  0.88598082  0.28079434  1  1.370969  -0.001745  0.253271  0.445274  -3.7e-05  3.996853  -0.002
C  C106  1  0.83055719  0.39476265  0.11413307  1  1.377289  -0.00108  0.253594  0.444246  0.00051  3.998112  -0.001
C  C107  1  0.16357520  0.71900895  0.60498006  1  1.379835  0.001048  0.253531  0.444597  -0.000543  3.995988  0.001
C  C108  1  0.39008484  0.79710430  0.23120921  1  0.324752  0.004978  0.074181  0.266147  0.003779  3.821354  0.002
C  C109  1  0.72334405  0.43413311  0.20305720  1  0.327966  0.004976  0.073992  0.267385  0.003833  3.818434  0.002
C  C110  1  0.05633281  0.76871996  0.56575089  1  0.316013  -0.005011  0.073667  0.265999  -0.003797  3.818353  -0.002
C  C111  1  0.39001416  0.20291045  0.76887593  1  0.322772  -0.00503  0.074114  0.265741  -0.003858  3.821062  -0.003
C  C112  1  0.72327062  0.56582350  0.79692901  1  0.326628  0.004967  0.07388  0.267211  0.003794  3.818046  0.002
C  C113  1  0.05640369  0.23131725  0.43424455  1  0.314998  -0.004996  0.073795  0.266345  -0.003771  3.817624  -0.002
C  C114  1  0.23449704  0.82861724  0.28714115  1  -0.082263  0.000268  -0.244164  -0.442324  7.9e-05  3.842433  0.0
C  C115  1  0.56795719  0.45865249  0.17140902  1  -0.071122  0.00018  -0.244004  -0.441387  -7e-05  3.841431  0.0
C  C116  1  0.90061172  0.71293049  0.54142091  1  -0.059947  -7.4e-05  -0.243819  -0.441736  0.000121  3.841953  0.0
C  C117  1  0.23443501  0.17136814  0.71290066  1  -0.081905  -0.000133  -0.244022  -0.44196  0.000111  3.842263  0.0
C  C118  1  0.56785563  0.54133638  0.82857357  1  -0.071552  6.6e-05  -0.243908  -0.441555  -0.000122  3.840935  0.0
C  C119  1  0.90069854  0.28710262  0.45862369  1  -0.05921  -0.000319  -0.243773  -0.441447  -0.000113  3.84171  0.0
C  C120  1  0.36475610  0.75761847  0.12156358  1  -0.02179  0.003442  -0.243088  -0.442078  0.002882  3.878474  0.002
C  C121  1  0.69774516  0.36407288  0.24263832  1  -0.088626  0.003636  -0.243267  -0.444029  0.00305  3.878685  0.002
C  C122  1  0.03133408  0.87830238  0.63591814  1  -0.059094  -0.003431  -0.242956  -0.443085  -0.002811  3.877913  -0.002
C  C123  1  0.36472842  0.24232628  0.87850701  1  -0.023462  -0.003468  -0.243012  -0.442177  -0.002973  3.878755  -0.002
C  C124  1  0.69773716  0.63585408  0.75731444  1  -0.089207  0.003435  -0.243027  -0.443462  0.002851  3.878443  0.002
C  C125  1  0.03135365  0.12173711  0.36411970  1  -0.060712  -0.003631  -0.242972  -0.443149  -0.002993  3.878285  -0.002
N  N126  1  0.46643638  0.72254192  0.24853332  1  -1.157419  0.093435  -0.636029  -0.623589  0.062214  3.356866  0.075
N  N127  1  0.79983666  0.52596448  0.27759695  1  -1.128661  0.092751  -0.636197  -0.623627  0.062087  3.35554  0.075
N  N128  1  0.13274095  0.75146030  0.47383545  1  -1.127148  -0.093165  -0.636082  -0.62325  -0.062283  3.35587  -0.075
N  N129  1  0.46637151  0.27749588  0.75155843  1  -1.155066  -0.092785  -0.63635  -0.623838  -0.062104  3.357939  -0.075
N  N130  1  0.79972019  0.47398560  0.72238750  1  -1.126904  0.093264  -0.636391  -0.62447  0.062314  3.355921  0.075
N  N131  1  0.13290507  0.24862749  0.52618975  1  -1.127313  -0.093263  -0.635918  -0.623588  -0.062167  3.353573  -0.075
N  N132  1  0.49651078  0.04656515  0.74737328  1  -1.218504  -0.000668  -0.415898  -0.367377  -0.000539  3.571915  -0.001
N  N133  1  0.83003013  0.70070197  0.95325384  1  -1.232797  0.004011  -0.415729  -0.365711  0.002363  3.57204  0.002
N  N134  1  0.16338088  0.25285291  0.29941082  1  -1.237097  -0.004329  -0.415922  -0.365985  -0.002539  3.572252  -0.003
N  N135  1  0.49664514  0.95342126  0.25265551  1  -1.219454  0.001041  -0.415874  -0.366791  0.000751  3.572382  0.001
N  N136  1  0.82993072  0.29923064  0.04670085  1  -1.231659  0.004026  -0.416102  -0.366235  0.002371  3.572297  0.002
N  N137  1  0.16337831  0.74716925  0.70057083  1  -1.239873  -0.004072  -0.416039  -0.366353  -0.002411  3.573469  -0.002
Cl  Cl138  1  0.85529135  0.75114787  0.33449482  1  -0.577211  0.140091  -0.266882  -0.493635  0.094137  1.413102  0.111
Cl  Cl139  1  0.18872933  0.58344158  0.24862581  1  -0.576972  -0.142933  -0.267024  -0.493482  -0.096329  1.414424  -0.11
Cl  Cl140  1  0.52192052  0.66549069  0.41659315  1  -0.577391  0.143057  -0.267676  -0.49431  0.095889  1.41238  0.11
Cl  Cl141  1  0.85525134  0.24891674  0.66552765  1  -0.577248  0.142986  -0.267093  -0.493825  0.096305  1.414027  0.11
Cl  Cl142  1  0.18870498  0.41656559  0.75131609  1  -0.577222  -0.143132  -0.267365  -0.494143  -0.096001  1.413178  -0.11
Cl  Cl143  1  0.52200734  0.33460715  0.58335552  1  -0.576867  -0.140076  -0.267052  -0.493854  -0.094186  1.412484  -0.111
O  O144  1  0.63064957  0.87012299  0.51772780  1  -1.094493  0.09875  -0.326822  -0.514187  0.065213  2.370493  0.088
O  O145  1  0.96384698  0.64752681  0.12987976  1  -1.106032  0.095912  -0.32654  -0.513802  0.062733  2.372487  0.086
O  O146  1  0.29711105  0.48247486  0.35219695  1  -1.105054  -0.096436  -0.326216  -0.51343  -0.063014  2.373345  -0.087
O  O147  1  0.63039077  0.12994118  0.48237432  1  -1.094269  -0.094949  -0.327012  -0.514613  -0.06214  2.371669  -0.085
O  O148  1  0.96373119  0.35241676  0.87007193  1  -1.107115  0.096282  -0.32668  -0.51407  0.062961  2.372394  0.087
O  O149  1  0.29738092  0.51760243  0.64773370  1  -1.104346  -0.099656  -0.326554  -0.513999  -0.065802  2.373702  -0.089
O  O150  1  0.58059170  0.10105776  0.64831766  1  -1.085092  -0.075215  -0.270406  -0.417514  -0.050179  2.310055  -0.069
O  O151  1  0.91375197  0.54723577  0.89895123  1  -1.084575  0.076552  -0.270438  -0.417174  0.05094  2.311733  0.07
O  O152  1  0.24666886  0.35211640  0.45304358  1  -1.08758  -0.07806  -0.270482  -0.417499  -0.052349  2.312666  -0.07
O  O153  1  0.58055056  0.89907360  0.35185728  1  -1.083235  0.077039  -0.270549  -0.417873  0.051583  2.31115  0.07
O  O154  1  0.91380796  0.45269697  0.10103987  1  -1.083961  0.076284  -0.270447  -0.417126  0.050754  2.312012  0.069
O  O155  1  0.24669914  0.64800752  0.54694736  1  -1.087819  -0.076499  -0.270333  -0.41707  -0.051024  2.312162  -0.07
O  O156  1  0.37556125  0.90036461  0.56261828  1  -1.201981  0.00155  -0.32836  -0.565004  0.000688  2.172207  0.002
O  O157  1  0.70880504  0.66244857  0.09965487  1  -1.178363  0.001948  -0.328023  -0.564845  0.000891  2.174241  0.002
O  O158  1  0.04213034  0.43716949  0.33739690  1  -1.191389  -0.001816  -0.328235  -0.56507  -0.000907  2.174546  -0.002
O  O159  1  0.37534756  0.09964147  0.43726933  1  -1.202014  -0.001537  -0.328633  -0.565022  -0.000698  2.171963  -0.002
O  O160  1  0.70873028  0.33749714  0.90031597  1  -1.178739  0.00182  -0.328117  -0.565027  0.000923  2.174149  0.002
O  O161  1  0.04235142  0.56277191  0.66250482  1  -1.19102  -0.001962  -0.328134  -0.56531  -0.000905  2.17391  -0.002
