# generated using pymatgen
data_ZnH8C14O5
_symmetry_space_group_name_H-M   'P 1'
_cell_length_a   13.29006703
_cell_length_b   13.29008877
_cell_length_c   29.57096105
_cell_angle_alpha   89.98881240
_cell_angle_beta   90.01121732
_cell_angle_gamma   120.00469482
_symmetry_Int_Tables_number   1
_chemical_formula_structural   ZnH8C14O5
_chemical_formula_sum   'Zn12 H96 C168 O60'
_cell_volume   4523.04142733
_cell_formula_units_Z   12
loop_
 _symmetry_equiv_pos_site_id
 _symmetry_equiv_pos_as_xyz
  1  'x, y, z'
loop_
 _atom_site_type_symbol
 _atom_site_label
 _atom_site_symmetry_multiplicity
 _atom_site_fract_x
 _atom_site_fract_y
 _atom_site_fract_z
 _atom_site_occupancy
 _atom_site_pbe_bader_charge
 _atom_site_pbe_bader_spin_density
 _atom_site_pbe_cm5_charge
 _atom_site_pbe_ddec_charge
 _atom_site_pbe_ddec_spin_density
 _atom_site_pbe_ddec_sum_bond_order
 _atom_site_pbe_magmom
Zn  Zn0  1  0.46405060  0.46612144  0.10767587  1  1.329987  0  0.698918  0.940114  0  2.341591  0
Zn  Zn1  1  0.53380394  0.99789711  0.77436575  1  1.331829  0  0.698748  0.939828  0  2.34245  0
Zn  Zn2  1  0.00203618  0.53604514  0.44104541  1  1.333736  0  0.698637  0.93878  0  2.342295  0
Zn  Zn3  1  0.46612070  0.46404924  0.89232387  1  1.329929  0  0.698934  0.940115  0  2.341592  0
Zn  Zn4  1  0.99789744  0.53380300  0.22563474  1  1.331889  0  0.698787  0.939848  0  2.342452  0
Zn  Zn5  1  0.53604392  0.00203477  0.55895496  1  1.333769  0  0.698621  0.938772  0  2.342286  0
Zn  Zn6  1  0.28228142  0.44833795  0.18441894  1  1.340301  0  0.702757  0.948961  0  2.378893  0
Zn  Zn7  1  0.55175093  0.83394853  0.85102563  1  1.341084  0  0.702696  0.949108  0  2.37806  0
Zn  Zn8  1  0.16592683  0.71768344  0.51768842  1  1.338693  0  0.702841  0.949114  0  2.379225  0
Zn  Zn9  1  0.44833803  0.28228110  0.81558111  1  1.340313  0  0.702772  0.949019  0  2.37885  0
Zn  Zn10  1  0.83394795  0.55175011  0.14897451  1  1.341108  0  0.702682  0.94907  0  2.378198  0
Zn  Zn11  1  0.71768385  0.16592668  0.48231165  1  1.338701  0  0.702852  0.949109  0  2.379211  0
H  H12  1  0.73871003  0.74779474  0.16108610  1  0.105023  0  0.107491  0.116741  0  1.002047  0
H  H13  1  0.25229723  0.99077216  0.82771074  1  0.121438  0  0.107375  0.116622  0  1.002409  0
H  H14  1  0.00909357  0.26138770  0.49437935  1  0.119119  0  0.107559  0.116893  0  1.002559  0
H  H15  1  0.74779457  0.73870951  0.83891404  1  0.104928  0  0.107487  0.116704  0  1.002056  0
H  H16  1  0.99077346  0.25229758  0.17228971  1  0.121327  0  0.107374  0.116583  0  1.002395  0
H  H17  1  0.26138732  0.00909329  0.50561998  1  0.116698  0  0.10756  0.116903  0  1.002549  0
H  H18  1  0.90150773  0.92472873  0.19761931  1  0.051931  0  0.110237  0.124625  0  0.984237  0
H  H19  1  0.07540174  0.97672195  0.86421845  1  0.080759  0  0.110324  0.124811  0  0.984246  0
H  H20  1  0.02323871  0.09855602  0.53089219  1  0.064401  0  0.110336  0.124772  0  0.98383  0
H  H21  1  0.92472991  0.90150733  0.80238087  1  0.051985  0  0.110204  0.124575  0  0.984181  0
H  H22  1  0.97672144  0.07540135  0.13578131  1  0.08076  0  0.110337  0.124827  0  0.98429  0
H  H23  1  0.09855609  0.02323731  0.46910712  1  0.064422  0  0.110358  0.124783  0  0.983839  0
H  H24  1  0.65188740  0.96784463  0.27578955  1  0.116608  0  0.100618  0.113409  0  1.07397  0
H  H25  1  0.03204260  0.68393932  0.94244938  1  0.120115  0  0.100893  0.114071  0  1.07418  0
H  H26  1  0.31599707  0.34811002  0.60910599  1  0.109911  0  0.10094  0.113667  0  1.074077  0
H  H27  1  0.96784372  0.65188686  0.72421061  1  0.116805  0  0.100643  0.113477  0  1.074106  0
H  H28  1  0.68393888  0.03204265  0.05755068  1  0.12012  0  0.100879  0.11404  0  1.074229  0
H  H29  1  0.34811011  0.31599683  0.39089372  1  0.109908  0  0.100936  0.113661  0  1.074084  0
H  H30  1  0.49169270  0.78769964  0.24169919  1  0.098063  0  0.102921  0.102958  0  1.013647  0
H  H31  1  0.21226707  0.70385301  0.90842880  1  0.091418  0  0.10311  0.102713  0  1.013743  0
H  H32  1  0.29607938  0.50837962  0.57503932  1  0.09827  0  0.102841  0.102981  0  1.013594  0
H  H33  1  0.78769910  0.49169029  0.75830059  1  0.09804  0  0.102914  0.102947  0  1.013615  0
H  H34  1  0.70385321  0.21226754  0.09157128  1  0.09142  0  0.103126  0.102726  0  1.013714  0
H  H35  1  0.50838088  0.29608016  0.42496040  1  0.098254  0  0.102876  0.103052  0  1.01357  0
H  H36  1  0.84503594  0.98535277  0.34102073  1  0.090041  0  0.111542  0.127034  0  0.97686  0
H  H37  1  0.01446912  0.85972487  0.00759774  1  0.085073  0  0.111609  0.127125  0  0.977347  0
H  H38  1  0.14035885  0.15490116  0.67424666  1  0.092494  0  0.111475  0.127101  0  0.976443  0
H  H39  1  0.98535343  0.84503761  0.65898013  1  0.090003  0  0.111587  0.127129  0  0.976826  0
H  H40  1  0.85972365  0.01446822  0.99240267  1  0.084993  0  0.1116  0.127166  0  0.977237  0
H  H41  1  0.15490094  0.14035871  0.32575301  1  0.09249  0  0.111488  0.127139  0  0.976364  0
H  H42  1  0.83220292  0.09941545  0.40594671  1  0.101838  0  0.10503  0.108541  0  1.018994  0
H  H43  1  0.90045926  0.73279264  0.07251847  1  0.077276  0  0.10497  0.108509  0  1.019302  0
H  H44  1  0.26723430  0.16776720  0.73917788  1  0.092398  0  0.105066  0.10868  0  1.019511  0
H  H45  1  0.09941432  0.83220639  0.59405336  1  0.101836  0  0.105012  0.108556  0  1.01899  0
H  H46  1  0.73279086  0.90045697  0.92748203  1  0.077281  0  0.104996  0.108571  0  1.019283  0
H  H47  1  0.16776755  0.26723458  0.26082181  1  0.092381  0  0.105115  0.108771  0  1.019533  0
H  H48  1  0.86007769  0.36210087  0.31315958  1  0.113278  0  0.107379  0.111576  0  1.020379  0
H  H49  1  0.63782420  0.49786585  0.97977181  1  0.135852  0  0.107512  0.111891  0  1.020378  0
H  H50  1  0.50210960  0.13993354  0.64647010  1  0.125705  0  0.107729  0.111945  0  1.020265  0
H  H51  1  0.36209773  0.86007361  0.68684020  1  0.113312  0  0.107372  0.111593  0  1.020346  0
H  H52  1  0.49786505  0.63782343  0.02022897  1  0.135826  0  0.107499  0.111901  0  1.020412  0
H  H53  1  0.13993487  0.50210976  0.35352995  1  0.125715  0  0.107734  0.111957  0  1.020265  0
H  H54  1  0.86748157  0.24540784  0.24824695  1  0.119889  0  0.107118  0.129157  0  1.018767  0
H  H55  1  0.75446823  0.62197178  0.91483178  1  0.103753  0  0.106965  0.129173  0  1.019288  0
H  H56  1  0.37805105  0.13257167  0.58152219  1  0.088579  0  0.106938  0.129022  0  1.019022  0
H  H57  1  0.24540558  0.86747937  0.75175315  1  0.119907  0  0.107121  0.129133  0  1.018783  0
H  H58  1  0.62197195  0.75446818  0.08516903  1  0.10409  0  0.106951  0.129151  0  1.019291  0
H  H59  1  0.13257201  0.37805123  0.41847750  1  0.088538  0  0.106958  0.129058  0  1.018998  0
H  H60  1  0.05086245  0.46257749  0.10252442  1  0.113531  0  0.105355  0.110044  0  1.018239  0
H  H61  1  0.53742366  0.58851199  0.76918757  1  0.113339  0  0.105478  0.11016  0  1.018095  0
H  H62  1  0.41163630  0.94916071  0.43584426  1  0.088859  0  0.105592  0.110304  0  1.018757  0
H  H63  1  0.46257676  0.05086244  0.89747527  1  0.113559  0  0.105366  0.110057  0  1.018207  0
H  H64  1  0.58851131  0.53742389  0.23081219  1  0.113332  0  0.105487  0.110166  0  1.018067  0
H  H65  1  0.94916015  0.41163727  0.56415587  1  0.088872  0  0.105609  0.110278  0  1.018771  0
H  H66  1  0.91400145  0.47256062  0.04634737  1  0.099227  0  0.109959  0.129798  0  0.997363  0
H  H67  1  0.52730325  0.44155086  0.71303680  1  0.101667  0  0.109788  0.129647  0  0.996822  0
H  H68  1  0.55852834  0.08600994  0.37967030  1  0.11194  0  0.109887  0.12964  0  0.997285  0
H  H69  1  0.47256248  0.91400220  0.95365276  1  0.099474  0  0.109962  0.129787  0  0.997377  0
H  H70  1  0.44155144  0.52730491  0.28696363  1  0.101699  0  0.10979  0.129675  0  0.996806  0
H  H71  1  0.08601096  0.55852906  0.62032941  1  0.111941  0  0.109889  0.129643  0  0.997273  0
H  H72  1  0.14918644  0.51018128  0.93879404  1  0.087221  0  0.113185  0.130625  0  0.98278  0
H  H73  1  0.48974558  0.63901760  0.60539892  1  0.097578  0  0.113074  0.130066  0  0.982115  0
H  H74  1  0.36106147  0.85074907  0.27210497  1  0.089601  0  0.113062  0.129881  0  0.983263  0
H  H75  1  0.51017915  0.14918573  0.06120567  1  0.087229  0  0.113186  0.130651  0  0.982783  0
H  H76  1  0.63901695  0.48974497  0.39460152  1  0.09757  0  0.113104  0.13012  0  0.982035  0
H  H77  1  0.85074897  0.36106219  0.72789514  1  0.08961  0  0.113063  0.129851  0  0.983307  0
H  H78  1  0.28588359  0.50228288  0.99501231  1  0.121882  0  0.110472  0.120646  0  1.000553  0
H  H79  1  0.49773893  0.78376391  0.66160956  1  0.113473  0  0.11044  0.120615  0  1.000878  0
H  H80  1  0.21643872  0.71406687  0.32832598  1  0.121027  0  0.110501  0.120984  0  1.000867  0
H  H81  1  0.50227934  0.28588219  0.00498742  1  0.121885  0  0.11044  0.120578  0  1.000651  0
H  H82  1  0.78376318  0.49773721  0.33839023  1  0.113465  0  0.110443  0.120616  0  1.000856  0
H  H83  1  0.71406538  0.21643922  0.67167410  1  0.120943  0  0.1105  0.120994  0  1.000865  0
H  H84  1  0.90343276  0.27686444  0.98022167  1  0.093816  0  0.105696  0.121628  0  1.012283  0
H  H85  1  0.72330558  0.62679526  0.64690552  1  0.083881  0  0.105646  0.121351  0  1.012181  0
H  H86  1  0.37327939  0.09657744  0.31358300  1  0.095886  0  0.106076  0.121574  0  1.012285  0
H  H87  1  0.27686319  0.90343236  0.01977810  1  0.093761  0  0.105683  0.121576  0  1.012305  0
H  H88  1  0.62679578  0.72330590  0.35309461  1  0.083846  0  0.105656  0.121351  0  1.012232  0
H  H89  1  0.09657683  0.37327953  0.68641703  1  0.095894  0  0.106064  0.12152  0  1.012345  0
H  H90  1  0.78969106  0.10199597  0.93218871  1  0.079155  0  0.102778  0.103071  0  1.028535  0
H  H91  1  0.89806547  0.68779652  0.59881132  1  0.087909  0  0.102982  0.103995  0  1.028411  0
H  H92  1  0.31216826  0.21025449  0.26549572  1  0.077428  0  0.102698  0.103292  0  1.028463  0
H  H93  1  0.10199539  0.78968991  0.06781137  1  0.079144  0  0.102773  0.103078  0  1.02852  0
H  H94  1  0.68779661  0.89806597  0.40118883  1  0.087914  0  0.102987  0.104014  0  1.028418  0
H  H95  1  0.21025500  0.31216946  0.73450432  1  0.077439  0  0.1027  0.103263  0  1.028471  0
H  H96  1  0.74321379  0.31051336  0.83235119  1  0.089635  0  0.106073  0.113845  0  1.001894  0
H  H97  1  0.68930676  0.43265441  0.49909084  1  0.109759  0  0.106223  0.113123  0  1.002342  0
H  H98  1  0.56722315  0.25673187  0.16572593  1  0.09172  0  0.106172  0.113379  0  1.002245  0
H  H99  1  0.31051296  0.74321351  0.16764890  1  0.089639  0  0.106051  0.113795  0  1.001903  0
H  H100  1  0.43265353  0.68930680  0.50090893  1  0.109759  0  0.106243  0.113165  0  1.002331  0
H  H101  1  0.25673350  0.56722428  0.83427413  1  0.091712  0  0.106163  0.113397  0  1.002221  0
H  H102  1  0.85510479  0.48686381  0.88085170  1  0.090643  0  0.107599  0.125529  0  0.997948  0
H  H103  1  0.51307497  0.36829404  0.54764063  1  0.088369  0  0.107564  0.125448  0  0.998027  0
H  H104  1  0.63165980  0.14495011  0.21428503  1  0.090367  0  0.107611  0.125318  0  0.998028  0
H  H105  1  0.48686393  0.85510559  0.11914877  1  0.090641  0  0.107612  0.125528  0  0.99794  0
H  H106  1  0.36829315  0.51307527  0.45235944  1  0.088381  0  0.107586  0.12547  0  0.997949  0
H  H107  1  0.14495019  0.63166030  0.78571470  1  0.090405  0  0.107606  0.125312  0  0.998029  0
C  C108  1  0.51030221  0.65001560  0.17904086  1  1.505956  0  0.219442  0.595407  0  4.198188  0
C  C109  1  0.34999812  0.86009585  0.84573372  1  1.516509  0  0.218943  0.5962  0  4.196782  0
C  C110  1  0.13979548  0.48975041  0.51230381  1  1.512073  0  0.220429  0.596124  0  4.196527  0
C  C111  1  0.65001512  0.51030087  0.82095857  1  1.505733  0  0.219408  0.595376  0  4.1983  0
C  C112  1  0.86009967  0.34999668  0.15426639  1  1.516378  0  0.218875  0.596095  0  4.196709  0
C  C113  1  0.48975068  0.13979633  0.48769623  1  1.512066  0  0.220394  0.596097  0  4.196567  0
C  C114  1  0.60531823  0.75794432  0.19880192  1  0.013101  0  -0.036397  -0.088019  0  4.02969  0
C  C115  1  0.24204133  0.84716879  0.86546072  1  -0.035887  0  -0.036004  -0.088061  0  4.028886  0
C  C116  1  0.15269733  0.39476215  0.53209249  1  -0.029892  0  -0.03629  -0.086993  0  4.029439  0
C  C117  1  0.75794343  0.60531278  0.80119787  1  0.012492  0  -0.036359  -0.087969  0  4.029609  0
C  C118  1  0.84716813  0.24204162  0.13453938  1  -0.03611  0  -0.036035  -0.08815  0  4.02891  0
C  C119  1  0.39476304  0.15269716  0.46790754  1  -0.029895  0  -0.036295  -0.086973  0  4.029369  0
C  C120  1  0.72102229  0.79690356  0.18618211  1  -0.057263  0  -0.077792  -0.055272  0  3.970694  0
C  C121  1  0.20312613  0.92394630  0.85280370  1  -0.043861  0  -0.078012  -0.055675  0  3.969506  0
C  C122  1  0.07591442  0.27905102  0.51947133  1  -0.073895  0  -0.078433  -0.05662  0  3.971881  0
C  C123  1  0.79690629  0.72102203  0.81381736  1  -0.057105  0  -0.077852  -0.055292  0  3.970827  0
C  C124  1  0.92394511  0.20312585  0.14719641  1  -0.043713  0  -0.077993  -0.055595  0  3.96931  0
C  C125  1  0.27905057  0.07591398  0.48052800  1  -0.071572  0  -0.078435  -0.056642  0  3.971923  0
C  C126  1  0.81119806  0.89462867  0.20633399  1  0.069571  0  -0.101053  -0.20174  0  3.995866  0
C  C127  1  0.10539170  0.91644125  0.87292217  1  0.010205  0  -0.101124  -0.201814  0  3.995346  0
C  C128  1  0.08345602  0.18886765  0.53960078  1  0.06352  0  -0.10092  -0.201601  0  3.995687  0
C  C129  1  0.89462698  0.81119317  0.79366618  1  0.069756  0  -0.100971  -0.201698  0  3.996026  0
C  C130  1  0.91644099  0.10539073  0.12707759  1  0.010187  0  -0.10109  -0.201811  0  3.995458  0
C  C131  1  0.18886697  0.08345545  0.46039821  1  0.064074  0  -0.100913  -0.201606  0  3.995861  0
C  C132  1  0.78555042  0.95584360  0.23856755  1  0.439411  0  0.092999  0.27811  0  4.043221  0
C  C133  1  0.04411925  0.82958224  0.90515592  1  0.422524  0  0.092734  0.27848  0  4.04384  0
C  C134  1  0.17035190  0.21450293  0.57183307  1  0.366691  0  0.093501  0.279893  0  4.041676  0
C  C135  1  0.95584505  0.78554863  0.76143195  1  0.439159  0  0.093037  0.278309  0  4.043358  0
C  C136  1  0.82958214  0.04411947  0.09484483  1  0.422521  0  0.092672  0.278466  0  4.043989  0
C  C137  1  0.21450412  0.17035220  0.42816661  1  0.366638  0  0.093519  0.27994  0  4.041705  0
C  C138  1  0.67073672  0.91853142  0.25133747  1  -0.024673  0  -0.114034  -0.230627  0  4.014737  0
C  C139  1  0.08136764  0.75203797  0.91796373  1  -0.106787  0  -0.113882  -0.23165  0  4.015211  0
C  C140  1  0.24786364  0.32932422  0.58462980  1  0.01247  0  -0.114225  -0.231135  0  4.0142  0
C  C141  1  0.91853483  0.67073619  0.74866167  1  -0.024875  0  -0.114049  -0.230805  0  4.014985  0
C  C142  1  0.75203766  0.08136768  0.08203668  1  -0.106773  0  -0.113904  -0.23167  0  4.015283  0
C  C143  1  0.32932437  0.24786356  0.41536990  1  0.012487  0  -0.114225  -0.231147  0  4.014229  0
C  C144  1  0.58141357  0.81897845  0.23170378  1  -0.097478  0  -0.081911  -0.054924  0  3.988469  0
C  C145  1  0.18096198  0.76225076  0.89837547  1  0.039294  0  -0.082066  -0.053947  0  3.988561  0
C  C146  1  0.23762190  0.41865444  0.56501058  1  -0.020622  0  -0.081737  -0.055377  0  3.989177  0
C  C147  1  0.81898003  0.58141489  0.76829635  1  -0.096908  0  -0.081926  -0.054878  0  3.988363  0
C  C148  1  0.76225038  0.18096183  0.10162495  1  0.039562  0  -0.082054  -0.053903  0  3.988539  0
C  C149  1  0.41865481  0.23762197  0.43498913  1  -0.02061  0  -0.081781  -0.055463  0  3.989168  0
C  C150  1  0.85711845  0.11019966  0.29164669  1  0.411815  0  0.088588  0.265413  0  4.038033  0
C  C151  1  0.88972173  0.74686922  0.95821738  1  0.422628  0  0.088518  0.26477  0  4.037811  0
C  C152  1  0.25326429  0.14306039  0.62489224  1  0.388616  0  0.088095  0.263353  0  4.038967  0
C  C153  1  0.11019900  0.85711714  0.70835238  1  0.411505  0  0.088606  0.265446  0  4.037809  0
C  C154  1  0.74686828  0.88972115  0.04178312  1  0.422351  0  0.088523  0.264833  0  4.037937  0
C  C155  1  0.14306040  0.25326513  0.37510778  1  0.388731  0  0.088075  0.26332  0  4.039047  0
C  C156  1  0.84449045  0.06616493  0.33541398  1  -0.020477  0  -0.096211  -0.197579  0  3.989287  0
C  C157  1  0.93370085  0.77833110  0.00198387  1  -0.036847  0  -0.095983  -0.197342  0  3.990687  0
C  C158  1  0.22180659  0.15562895  0.66864539  1  -0.071372  0  -0.095714  -0.19641  0  3.989723  0
C  C159  1  0.06616154  0.84449167  0.66458542  1  -0.020571  0  -0.096299  -0.197698  0  3.989383  0
C  C160  1  0.77832978  0.93369980  0.99801664  1  -0.036159  0  -0.096008  -0.197438  0  3.990711  0
C  C161  1  0.15562940  0.22180703  0.33135395  1  -0.071361  0  -0.095725  -0.196458  0  3.989641  0
C  C162  1  0.83733273  0.12976417  0.37136980  1  -0.044174  0  -0.079467  -0.067815  0  3.980218  0
C  C163  1  0.87014132  0.70755086  0.03794818  1  -0.001371  0  -0.079695  -0.068079  0  3.980448  0
C  C164  1  0.29257035  0.16283128  0.70461523  1  -0.015176  0  -0.080144  -0.069326  0  3.98136  0
C  C165  1  0.12976045  0.83733443  0.62863096  1  -0.043819  0  -0.079419  -0.067792  0  3.980132  0
C  C166  1  0.70754910  0.87013911  0.96205231  1  -0.001383  0  -0.079736  -0.068197  0  3.980466  0
C  C167  1  0.16283131  0.29256942  0.29538445  1  -0.01519  0  -0.080185  -0.069425  0  3.981384  0
C  C168  1  0.84430455  0.23720895  0.36355299  1  -0.01619  0  -0.026054  -0.078845  0  4.005456  0
C  C169  1  0.76274781  0.60700606  0.03013987  1  -0.008849  0  -0.02643  -0.077745  0  4.005209  0
C  C170  1  0.39310223  0.15594750  0.69682211  1  -0.002827  0  -0.025564  -0.076732  0  4.005047  0
C  C171  1  0.23720894  0.84430289  0.63644711  1  -0.016157  0  -0.026095  -0.078913  0  4.005397  0
C  C172  1  0.60700495  0.76274648  0.96986060  1  -0.008828  0  -0.02641  -0.077656  0  4.005112  0
C  C173  1  0.15594817  0.39310183  0.30317793  1  -0.002828  0  -0.025554  -0.076683  0  4.004956  0
C  C174  1  0.85270066  0.27772789  0.31909648  1  -0.065279  0  -0.072637  -0.048911  0  3.939742  0
C  C175  1  0.72220794  0.57485757  0.98569113  1  -0.032766  0  -0.072014  -0.049633  0  3.940347  0
C  C176  1  0.42522526  0.14753106  0.65237285  1  -0.02408  0  -0.073034  -0.050298  0  3.941171  0
C  C177  1  0.27772413  0.85269693  0.68090362  1  -0.065375  0  -0.072609  -0.048909  0  3.939775  0
C  C178  1  0.57485609  0.72220631  0.01430899  1  -0.033026  0  -0.071946  -0.049561  0  3.940197  0
C  C179  1  0.14753130  0.42522527  0.34762719  1  -0.024095  0  -0.073075  -0.050384  0  3.941189  0
C  C180  1  0.85774131  0.21352168  0.28287513  1  0.015  0  -0.09415  -0.187305  0  3.947463  0
C  C181  1  0.78640455  0.64414288  0.94945435  1  -0.026054  0  -0.094639  -0.187197  0  3.947013  0
C  C182  1  0.35597586  0.14246698  0.61613684  1  0.035864  0  -0.093955  -0.186172  0  3.947839  0
C  C183  1  0.21351889  0.85773949  0.71712530  1  0.015098  0  -0.094139  -0.187238  0  3.947375  0
C  C184  1  0.64414259  0.78640484  0.05054613  1  -0.026408  0  -0.09466  -0.187276  0  3.947051  0
C  C185  1  0.14246657  0.35597531  0.38386251  1  0.035787  0  -0.093944  -0.186155  0  3.947838  0
C  C186  1  0.86271202  0.31572422  0.40240097  1  1.540763  0  0.227504  0.605808  0  4.151738  0
C  C187  1  0.68420700  0.54693741  0.06899676  1  1.533539  0  0.228716  0.607408  0  4.150654  0
C  C188  1  0.45307152  0.13734300  0.73567449  1  1.53739  0  0.22811  0.606802  0  4.150941  0
C  C189  1  0.31572301  0.86271166  0.59759914  1  1.54072  0  0.227487  0.605819  0  4.151777  0
C  C190  1  0.54693654  0.68420692  0.93100301  1  1.533541  0  0.228697  0.607307  0  4.150763  0
C  C191  1  0.13734352  0.45307092  0.26432589  1  1.537387  0  0.228079  0.606784  0  4.150917  0
C  C192  1  0.24891120  0.46392502  0.08568276  1  1.541437  0  0.226443  0.604846  0  4.174071  0
C  C193  1  0.53617659  0.78525376  0.75224436  1  1.525139  0  0.227054  0.606143  0  4.172475  0
C  C194  1  0.21488622  0.75099869  0.41894528  1  1.545024  0  0.226605  0.606162  0  4.174156  0
C  C195  1  0.46392366  0.24891121  0.91431729  1  1.541511  0  0.226449  0.604795  0  4.174113  0
C  C196  1  0.78525246  0.53617512  0.24775577  1  1.525157  0  0.226993  0.606018  0  4.172575  0
C  C197  1  0.75099869  0.21488817  0.58105446  1  1.544727  0  0.226526  0.605967  0  4.174349  0
C  C198  1  0.17484645  0.48020855  0.05214488  1  -0.013914  0  -0.022435  -0.05864  0  3.980579  0
C  C199  1  0.51986836  0.69486289  0.71874447  1  -0.034655  0  -0.023624  -0.059787  0  3.980107  0
C  C200  1  0.30531027  0.82514366  0.38544017  1  0.030691  0  -0.022717  -0.058991  0  3.980191  0
C  C201  1  0.48020584  0.17484517  0.94785483  1  -0.013928  0  -0.022412  -0.058551  0  3.980421  0
C  C202  1  0.69486113  0.51986567  0.28125564  1  -0.03464  0  -0.023597  -0.059691  0  3.980114  0
C  C203  1  0.82514257  0.30531182  0.61455960  1  0.030685  0  -0.022695  -0.058993  0  3.980281  0
C  C204  1  0.07176849  0.47463972  0.06666125  1  -0.082401  0  -0.076147  -0.056158  0  3.958478  0
C  C205  1  0.52537317  0.59734625  0.73331531  1  0.003073  0  -0.075188  -0.055293  0  3.956891  0
C  C206  1  0.40279019  0.92825618  0.39998224  1  -0.020651  0  -0.076215  -0.057152  0  3.958728  0
C  C207  1  0.47463872  0.07176729  0.93333845  1  -0.082163  0  -0.076176  -0.056237  0  3.958409  0
C  C208  1  0.59734608  0.52537304  0.26668513  1  0.003066  0  -0.075173  -0.055253  0  3.956854  0
C  C209  1  0.92825444  0.40279087  0.60001789  1  -0.020694  0  -0.076231  -0.057062  0  3.958795  0
C  C210  1  0.99603074  0.48030855  0.03564825  1  0.039668  0  -0.093562  -0.190179  0  3.972531  0
C  C211  1  0.51964034  0.51589666  0.70232945  1  0.019835  0  -0.093539  -0.190142  0  3.971663  0
C  C212  1  0.48421014  0.00398238  0.36898142  1  0.018638  0  -0.093368  -0.189009  0  3.970644  0
C  C213  1  0.48030754  0.99603113  0.96435155  1  0.039019  0  -0.09353  -0.190103  0  3.972444  0
C  C214  1  0.51589711  0.51964092  0.29767064  1  0.019794  0  -0.093574  -0.190303  0  3.971684  0
C  C215  1  0.00398007  0.48421117  0.63101894  1  0.018662  0  -0.093367  -0.189016  0  3.970664  0
C  C216  1  0.02486460  0.49096018  0.98993249  1  0.339919  0  0.087946  0.25799  0  4.037851  0
C  C217  1  0.50902142  0.53404645  0.65659852  1  0.361641  0  0.087744  0.257469  0  4.037954  0
C  C218  1  0.46607602  0.97512344  0.32326446  1  0.351302  0  0.08768  0.257248  0  4.037914  0
C  C219  1  0.49095959  0.02486559  0.01006822  1  0.340028  0  0.087958  0.258057  0  4.037833  0
C  C220  1  0.53404656  0.50902254  0.34340157  1  0.361683  0  0.087725  0.257552  0  4.037875  0
C  C221  1  0.97512419  0.46607734  0.67673501  1  0.35127  0  0.087636  0.257152  0  4.038  0
C  C222  1  0.12941379  0.50145398  0.97484683  1  0.015633  0  -0.094651  -0.199377  0  3.988691  0
C  C223  1  0.49853280  0.62807381  0.64146896  1  -0.052161  0  -0.094287  -0.197408  0  3.987808  0
C  C224  1  0.37207399  0.87054971  0.30815752  1  -0.040687  0  -0.094498  -0.197427  0  3.988364  0
C  C225  1  0.50145181  0.12941307  0.02515322  1  0.015678  0  -0.09471  -0.1995  0  3.988755  0
C  C226  1  0.62807546  0.49853275  0.35853080  1  -0.052278  0  -0.094293  -0.197521  0  3.98772  0
C  C227  1  0.87054873  0.37207554  0.69184226  1  -0.040672  0  -0.094494  -0.197328  0  3.988367  0
C  C228  1  0.20486599  0.49632893  0.00613549  1  -0.006064  0  -0.074598  -0.059264  0  3.952014  0
C  C229  1  0.50370676  0.70869165  0.67272334  1  -0.00093  0  -0.074824  -0.060195  0  3.952933  0
C  C230  1  0.29147550  0.79510045  0.33943053  1  -0.03441  0  -0.074935  -0.060859  0  3.953746  0
C  C231  1  0.49632628  0.20486471  0.99386423  1  -0.006062  0  -0.074556  -0.059184  0  3.951972  0
C  C232  1  0.70869149  0.50370568  0.32727643  1  -0.000831  0  -0.074869  -0.060252  0  3.95303  0
C  C233  1  0.79509979  0.29147667  0.66056923  1  -0.034311  0  -0.07495  -0.060917  0  3.953727  0
C  C234  1  0.88657135  0.39178163  0.93278388  1  0.425392  0  0.095582  0.279007  0  4.027936  0
C  C235  1  0.60823904  0.49489610  0.59951516  1  0.364371  0  0.095606  0.279747  0  4.028582  0
C  C236  1  0.50516765  0.11351315  0.26617229  1  0.419918  0  0.095509  0.279513  0  4.027097  0
C  C237  1  0.39178189  0.88657148  0.06721624  1  0.425553  0  0.095565  0.27902  0  4.027943  0
C  C238  1  0.49489771  0.60823985  0.40048460  1  0.364288  0  0.095554  0.279654  0  4.028663  0
C  C239  1  0.11351324  0.50516833  0.73382775  1  0.42019  0  0.095528  0.279558  0  4.027016  0
C  C240  1  0.86893488  0.28401958  0.94773053  1  -0.001904  0  -0.107262  -0.220561  0  4.006233  0
C  C241  1  0.71604504  0.58507445  0.61441333  1  0.039276  0  -0.10705  -0.219956  0  4.00643  0
C  C242  1  0.41498564  0.13108531  0.28109976  1  -0.059669  0  -0.10753  -0.220845  0  4.007165  0
C  C243  1  0.28401766  0.86893385  0.05227025  1  -0.001964  0  -0.107242  -0.220476  0  4.006256  0
C  C244  1  0.58507569  0.71604612  0.38558713  1  0.038956  0  -0.107028  -0.219893  0  4.006524  0
C  C245  1  0.13108476  0.41498577  0.71890061  1  -0.059935  0  -0.107494  -0.22077  0  4.007198  0
C  C246  1  0.80605717  0.18672436  0.92078702  1  -0.084967  0  -0.080371  -0.053646  0  3.985793  0
C  C247  1  0.81330250  0.61944640  0.58744572  1  -0.062434  0  -0.080529  -0.05523  0  3.986266  0
C  C248  1  0.38054891  0.19392551  0.25412849  1  0.003753  0  -0.080049  -0.053802  0  3.985693  0
C  C249  1  0.18672277  0.80605576  0.07921306  1  -0.084988  0  -0.080363  -0.053656  0  3.985846  0
C  C250  1  0.61944612  0.81330194  0.41255441  1  -0.062037  0  -0.080526  -0.055292  0  3.986341  0
C  C251  1  0.19392517  0.38054921  0.74587121  1  0.004143  0  -0.080026  -0.053693  0  3.985695  0
C  C252  1  0.76183104  0.19558161  0.87887059  1  0.048813  0  -0.032506  -0.077077  0  4.008677  0
C  C253  1  0.80432249  0.56626587  0.54554405  1  0.049551  0  -0.032486  -0.077062  0  4.007457  0
C  C254  1  0.43364911  0.23812280  0.21221446  1  -0.009822  0  -0.032644  -0.076634  0  4.007328  0
C  C255  1  0.19558176  0.76182967  0.12112949  1  0.048765  0  -0.032536  -0.07714  0  4.008655  0
C  C256  1  0.56626630  0.80432269  0.45445608  1  0.049568  0  -0.032502  -0.077033  0  4.007311  0
C  C257  1  0.23812330  0.43365014  0.78778525  1  -0.010084  0  -0.032694  -0.076765  0  4.007356  0
C  C258  1  0.77916248  0.30408363  0.86463709  1  -0.010321  0  -0.07852  -0.058675  0  3.966846  0
C  C259  1  0.69578608  0.47507366  0.53136823  1  -0.054902  0  -0.078529  -0.056487  0  3.965708  0
C  C260  1  0.52486402  0.22085267  0.19801070  1  0.012752  0  -0.077989  -0.057327  0  3.9676  0
C  C261  1  0.30408358  0.77916164  0.13536233  1  -0.010349  0  -0.078551  -0.058652  0  3.966939  0
C  C262  1  0.47507208  0.69578536  0.46863154  1  -0.054898  0  -0.07854  -0.056553  0  3.965748  0
C  C263  1  0.22085273  0.52486367  0.80198902  1  0.012632  0  -0.077999  -0.057352  0  3.967598  0
C  C264  1  0.84067273  0.40207659  0.89151186  1  -0.003885  0  -0.100759  -0.200733  0  3.975695  0
C  C265  1  0.59787766  0.43864068  0.55825980  1  0.003517  0  -0.100598  -0.20161  0  3.975743  0
C  C266  1  0.56136439  0.15942537  0.22490794  1  -0.015463  0  -0.101214  -0.20139  0  3.976042  0
C  C267  1  0.40207654  0.84067345  0.10848825  1  -0.003885  0  -0.100723  -0.200686  0  3.975793  0
C  C268  1  0.43864179  0.59787891  0.44173995  1  0.003554  0  -0.100601  -0.201606  0  3.975778  0
C  C269  1  0.15942554  0.56136504  0.77509245  1  -0.015519  0  -0.101225  -0.201399  0  3.976024  0
C  C270  1  0.69399478  0.09061658  0.85082308  1  1.502642  0  0.22358  0.610988  0  4.171886  0
C  C271  1  0.90918677  0.60329353  0.51744549  1  1.514605  0  0.222942  0.609891  0  4.173014  0
C  C272  1  0.39651582  0.30596368  0.18414582  1  1.508214  0  0.222608  0.608687  0  4.173644  0
C  C273  1  0.09061629  0.69399229  0.14917699  1  1.502446  0  0.223532  0.610919  0  4.171875  0
C  C274  1  0.60329427  0.90918800  0.48255466  1  1.514616  0  0.222981  0.609962  0  4.172849  0
C  C275  1  0.30596483  0.39651661  0.81585457  1  1.508203  0  0.222587  0.608689  0  4.173659  0
O  O276  1  0.53358674  0.61064129  0.14365146  1  -1.186034  0  -0.315716  -0.569804  0  2.432009  0
O  O277  1  0.38929158  0.92266748  0.81030673  1  -1.18957  0  -0.315256  -0.569836  0  2.432038  0
O  O278  1  0.07715761  0.46642321  0.47689370  1  -1.190127  0  -0.31576  -0.569333  0  2.431419  0
O  O279  1  0.61063999  0.53358460  0.85634797  1  -1.185982  0  -0.315671  -0.569777  0  2.432064  0
O  O280  1  0.92266807  0.38929202  0.18969305  1  -1.189594  0  -0.315228  -0.569745  0  2.432044  0
O  O281  1  0.46642279  0.07715786  0.52310634  1  -1.190118  0  -0.315756  -0.569312  0  2.431375  0
O  O282  1  0.41172304  0.60264691  0.19930477  1  -1.17153  0  -0.319394  -0.559196  0  2.358766  0
O  O283  1  0.39746441  0.80904035  0.86603838  1  -1.172085  0  -0.319771  -0.560022  0  2.357803  0
O  O284  1  0.19092441  0.58832418  0.53256655  1  -1.17554  0  -0.320585  -0.560684  0  2.357996  0
O  O285  1  0.60264804  0.41172172  0.80069498  1  -1.171342  0  -0.31941  -0.559249  0  2.358829  0
O  O286  1  0.80904094  0.39746582  0.13396106  1  -1.172052  0  -0.319734  -0.559974  0  2.357631  0
O  O287  1  0.58832458  0.19092523  0.46743351  1  -1.175542  0  -0.320552  -0.560678  0  2.358062  0
O  O288  1  0.87817681  0.05454169  0.25597790  1  -1.107225  0  -0.154206  -0.222857  0  2.546518  0
O  O289  1  0.94545965  0.82357777  0.92253686  1  -1.097049  0  -0.154073  -0.222996  0  2.546581  0
O  O290  1  0.17651186  0.12192219  0.58921391  1  -1.097714  0  -0.154091  -0.222943  0  2.545995  0
O  O291  1  0.05453844  0.87817642  0.74402319  1  -1.107271  0  -0.15426  -0.222994  0  2.546471  0
O  O292  1  0.82357774  0.94545982  0.07746365  1  -1.096962  0  -0.154039  -0.22299  0  2.546592  0
O  O293  1  0.12192196  0.17651170  0.41078576  1  -1.097689  0  -0.154094  -0.222931  0  2.545958  0
O  O294  1  0.91063784  0.42436078  0.39326029  1  -1.156568  0  -0.308199  -0.519574  0  2.288591  0
O  O295  1  0.57557793  0.48625364  0.05986001  1  -1.156424  0  -0.308736  -0.520938  0  2.289382  0
O  O296  1  0.51364898  0.08929323  0.72653787  1  -1.154057  0  -0.308571  -0.520479  0  2.288096  0
O  O297  1  0.42435858  0.91063719  0.60674018  1  -1.156561  0  -0.308179  -0.519583  0  2.288602  0
O  O298  1  0.48625200  0.57557728  0.94014009  1  -1.156431  0  -0.308768  -0.520919  0  2.289352  0
O  O299  1  0.08929197  0.51364833  0.27346251  1  -1.154059  0  -0.308586  -0.520511  0  2.288111  0
O  O300  1  0.84176066  0.27778695  0.44291240  1  -1.196025  0  -0.325178  -0.562164  0  2.392881  0
O  O301  1  0.72213604  0.56395861  0.10950499  1  -1.201255  0  -0.325532  -0.563209  0  2.392283  0
O  O302  1  0.43607271  0.15820360  0.77618318  1  -1.198262  0  -0.325755  -0.5635  0  2.393265  0
O  O303  1  0.27778595  0.84176145  0.55708804  1  -1.19599  0  -0.32518  -0.56217  0  2.392914  0
O  O304  1  0.56395768  0.72213585  0.89049547  1  -1.201246  0  -0.325516  -0.563178  0  2.392317  0
O  O305  1  0.15820327  0.43607300  0.22381653  1  -1.198254  0  -0.325709  -0.563445  0  2.39327  0
O  O306  1  0.34255054  0.47025169  0.07135600  1  -1.167013  0  -0.309329  -0.542993  0  2.35791  0
O  O307  1  0.52992051  0.87260449  0.73789949  1  -1.159929  0  -0.309112  -0.542998  0  2.356426  0
O  O308  1  0.12754579  0.65738527  0.40459667  1  -1.165834  0  -0.309227  -0.543131  0  2.35738  0
O  O309  1  0.47025069  0.34254993  0.92864373  1  -1.167105  0  -0.309319  -0.542956  0  2.35796  0
O  O310  1  0.87260222  0.52991884  0.26210031  1  -1.159915  0  -0.309109  -0.542979  0  2.356468  0
O  O311  1  0.65738497  0.12754503  0.59540339  1  -1.165835  0  -0.30926  -0.543123  0  2.357357  0
O  O312  1  0.21136445  0.44243108  0.12630603  1  -1.178217  0  -0.314537  -0.558244  0  2.409131  0
O  O313  1  0.55757384  0.76914515  0.79287945  1  -1.17395  0  -0.314925  -0.559031  0  2.410106  0
O  O314  1  0.23095389  0.78848757  0.45956832  1  -1.183753  0  -0.314317  -0.558477  0  2.41042  0
O  O315  1  0.44243129  0.21136435  0.87369435  1  -1.178215  0  -0.31454  -0.558238  0  2.409151  0
O  O316  1  0.76914418  0.55757182  0.20712101  1  -1.17399  0  -0.314883  -0.558934  0  2.410166  0
O  O317  1  0.78848770  0.23095417  0.54043245  1  -1.18346  0  -0.314229  -0.558298  0  2.410471  0
O  O318  1  0.94713782  0.49133691  0.95826427  1  -1.109423  0  -0.150599  -0.220934  0  2.566556  0
O  O319  1  0.50872669  0.45591780  0.62500101  1  -1.103731  0  -0.15046  -0.221365  0  2.568169  0
O  O320  1  0.54418278  0.05292420  0.29162765  1  -1.098828  0  -0.150402  -0.220814  0  2.567049  0
O  O321  1  0.49133642  0.94713877  0.04173587  1  -1.109412  0  -0.150593  -0.221014  0  2.566575  0
O  O322  1  0.45591897  0.50872808  0.37499908  1  -1.103741  0  -0.150435  -0.221283  0  2.568207  0
O  O323  1  0.05292483  0.54418403  0.70837239  1  -1.098839  0  -0.150378  -0.220818  0  2.567052  0
O  O324  1  0.66854226  0.99225406  0.86824307  1  -1.180681  0  -0.320273  -0.575544  0  2.394962  0
O  O325  1  0.00760295  0.67621234  0.53481765  1  -1.183024  0  -0.320249  -0.575287  0  2.395436  0
O  O326  1  0.32369172  0.33148885  0.20158868  1  -1.180307  0  -0.320184  -0.574741  0  2.395037  0
O  O327  1  0.99225262  0.66853941  0.13175709  1  -1.180654  0  -0.320219  -0.575469  0  2.394961  0
O  O328  1  0.67621120  0.00760320  0.46518206  1  -1.183071  0  -0.320255  -0.575298  0  2.395393  0
O  O329  1  0.33148861  0.32369117  0.79841069  1  -1.180322  0  -0.320239  -0.574822  0  2.394974  0
O  O330  1  0.66471680  0.10521177  0.81125294  1  -1.174557  0  -0.319217  -0.558789  0  2.375379  0
O  O331  1  0.89445790  0.55932633  0.47789547  1  -1.174295  0  -0.318776  -0.557906  0  2.375095  0
O  O332  1  0.44025375  0.33512288  0.14456676  1  -1.170733  0  -0.318717  -0.557764  0  2.376323  0
O  O333  1  0.10521115  0.66471488  0.18874712  1  -1.174364  0  -0.319224  -0.558792  0  2.375405  0
O  O334  1  0.55932953  0.89445817  0.52210501  1  -1.174273  0  -0.318795  -0.557955  0  2.375066  0
O  O335  1  0.33512259  0.44025301  0.85543262  1  -1.170665  0  -0.318645  -0.557683  0  2.376509  0
