# generated using pymatgen
data_FeH14Pt(C2N)10
_symmetry_space_group_name_H-M   'P 1'
_cell_length_a   8.65936387
_cell_length_b   8.73280431
_cell_length_c   14.74070469
_cell_angle_alpha   81.21141660
_cell_angle_beta   81.50817569
_cell_angle_gamma   72.85978308
_symmetry_Int_Tables_number   1
_chemical_formula_structural   FeH14Pt(C2N)10
_chemical_formula_sum   'Fe2 H28 Pt2 C40 N20'
_cell_volume   1046.44946742
_cell_formula_units_Z   2
loop_
 _symmetry_equiv_pos_site_id
 _symmetry_equiv_pos_as_xyz
  1  'x, y, z'
loop_
 _atom_site_type_symbol
 _atom_site_label
 _atom_site_symmetry_multiplicity
 _atom_site_fract_x
 _atom_site_fract_y
 _atom_site_fract_z
 _atom_site_occupancy
 _atom_site_hle17_bader_spin_density
 _atom_site_hle17_ddec_charge
 _atom_site_hle17_ddec_spin_density
 _atom_site_hle17_ddec_sum_bond_order
 _atom_site_hle17_magmom
 _atom_site_hse06_10hf_bader_spin_density
 _atom_site_hse06_10hf_ddec_charge
 _atom_site_hse06_10hf_ddec_spin_density
 _atom_site_hse06_10hf_ddec_sum_bond_order
 _atom_site_hse06_10hf_magmom
 _atom_site_hse06_bader_spin_density
 _atom_site_hse06_ddec_charge
 _atom_site_hse06_ddec_spin_density
 _atom_site_hse06_ddec_sum_bond_order
 _atom_site_hse06_magmom
 _atom_site_pbe_bader_spin_density
 _atom_site_pbe_cm5_charge
 _atom_site_pbe_ddec_charge
 _atom_site_pbe_ddec_spin_density
 _atom_site_pbe_ddec_sum_bond_order
 _atom_site_pbe_magmom
Fe  Fe0  1  0.82677680  0.16917119  0.74835214  1  0  0.488359  0  3.038798  0  0  0.431188  0  3.547254  0  0  0.489737  0  3.482022  0  0  0.721722  0.399447  0  3.584456  0
Fe  Fe1  1  0.16398502  0.81895644  0.24668281  1  0  0.501925  0  3.051265  0  0  0.445203  0  3.560229  0  0  0.50044  0  3.496491  0  0  0.736403  0.415706  0  3.596234  0
H  H2  1  0.87220544  0.81865232  0.88204282  1  0  0.296976  0  0.945473  0  0  0.267978  0  1.021538  0  0  0.277324  0  1.013433  0  0  0.312134  0.261302  0  1.027519  0
H  H3  1  0.18195686  0.12747254  0.61697926  1  0  0.297268  0  0.949613  0  0  0.267538  0  1.026254  0  0  0.276991  0  1.018011  0  0  0.312095  0.260793  0  1.032328  0
H  H4  1  0.12997727  0.17973324  0.11639953  1  0  0.297797  0  0.945099  0  0  0.267441  0  1.02273  0  0  0.276922  0  1.014502  0  0  0.312168  0.260708  0  1.028717  0
H  H5  1  0.81165514  0.87470836  0.38368876  1  0  0.298341  0  0.946318  0  0  0.269484  0  1.021974  0  0  0.278883  0  1.013692  0  0  0.312852  0.262828  0  1.027963  0
H  H6  1  0.91381399  0.52042942  0.69503459  1  0  0.075321  0  0.952802  0  0  0.083878  0  1.017949  0  0  0.084125  0  1.017993  0  0  0.11746  0.083877  0  1.017967  0
H  H7  1  0.47971801  0.08670570  0.80347943  1  0  0.077969  0  0.955172  0  0  0.08663  0  1.020011  0  0  0.086999  0  1.019852  0  0  0.118386  0.08645  0  1.020289  0
H  H8  1  0.09724903  0.48926644  0.30400524  1  0  0.081072  0  0.9558  0  0  0.088029  0  1.022353  0  0  0.088772  0  1.021477  0  0  0.118727  0.087371  0  1.023446  0
H  H9  1  0.52623881  0.91782529  0.19683570  1  0  0.072026  0  0.955073  0  0  0.081289  0  1.019481  0  0  0.081603  0  1.019571  0  0  0.115479  0.081332  0  1.019346  0
H  H10  1  0.10882107  0.65177779  0.73988227  1  0  0.097244  0  0.974233  0  0  0.106393  0  1.035017  0  0  0.10839  0  1.036239  0  0  0.101511  0.105071  0  1.034235  0
H  H11  1  0.34653650  0.89196500  0.76160844  1  0  0.09901  0  0.973655  0  0  0.106968  0  1.035486  0  0  0.108996  0  1.036694  0  0  0.101726  0.105534  0  1.034817  0
H  H12  1  0.90482766  0.35184642  0.26430486  1  0  0.098628  0  0.975659  0  0  0.106352  0  1.038024  0  0  0.108645  0  1.039048  0  0  0.101453  0.104641  0  1.037581  0
H  H13  1  0.65291232  0.11602900  0.24123637  1  0  0.099054  0  0.969454  0  0  0.108279  0  1.029835  0  0  0.110223  0  1.031143  0  0  0.10232  0.107002  0  1.028983  0
H  H14  1  0.30537267  0.49310628  0.85342889  1  0  0.080689  0  0.975836  0  0  0.083243  0  1.052154  0  0  0.086372  0  1.04846  0  0  0.094373  0.080814  0  1.055103  0
H  H15  1  0.50347367  0.69560332  0.64909222  1  0  0.082695  0  0.97094  0  0  0.085249  0  1.046399  0  0  0.088403  0  1.042769  0  0  0.096469  0.082811  0  1.049356  0
H  H16  1  0.70128180  0.50227462  0.15249406  1  0  0.085293  0  0.966231  0  0  0.088766  0  1.040339  0  0  0.092261  0  1.035922  0  0  0.097922  0.085929  0  1.044062  0
H  H17  1  0.48981421  0.30732624  0.35487522  1  0  0.079568  0  0.979966  0  0  0.082992  0  1.055333  0  0  0.086051  0  1.051922  0  0  0.094324  0.080723  0  1.057928  0
H  H18  1  0.29597774  0.21492649  0.91800360  1  0  0.112605  0  0.952949  0  0  0.123028  0  1.01135  0  0  0.124929  0  1.011921  0  0  0.108915  0.121781  0  1.010995  0
H  H19  1  0.78285234  0.70521249  0.58280808  1  0  0.113221  0  0.948444  0  0  0.124193  0  1.005839  0  0  0.126233  0  1.006198  0  0  0.109447  0.122812  0  1.005683  0
H  H20  1  0.70363215  0.78178957  0.08472834  1  0  0.114122  0  0.947106  0  0  0.124779  0  1.004532  0  0  0.12697  0  1.004759  0  0  0.109302  0.123185  0  1.004596  0
H  H21  1  0.21163341  0.29160442  0.41877994  1  0  0.110993  0  0.952727  0  0  0.122468  0  1.010166  0  0  0.124464  0  1.010682  0  0  0.108188  0.121219  0  1.009754  0
H  H22  1  0.28302280  0.91770473  0.96033930  1  0  0.138132  0  0.945514  0  0  0.148192  0  1.002122  0  0  0.150485  0  1.002242  0  0  0.114199  0.146577  0  1.002162  0
H  H23  1  0.08527485  0.71716140  0.54025631  1  0  0.137514  0  0.948141  0  0  0.146636  0  1.006633  0  0  0.149009  0  1.006528  0  0  0.11297  0.145016  0  1.006767  0
H  H24  1  0.71260811  0.09059342  0.03890166  1  0  0.138293  0  0.949571  0  0  0.147123  0  1.008221  0  0  0.149609  0  1.008028  0  0  0.112843  0.14539  0  1.008451  0
H  H25  1  0.92034133  0.27924646  0.45934324  1  0  0.136642  0  0.94693  0  0  0.147425  0  1.0029  0  0  0.149542  0  1.00327  0  0  0.113908  0.145989  0  1.00268  0
H  H26  1  0.11637370  0.69092353  0.97285321  1  0  0.107096  0  0.945079  0  0  0.115981  0  1.00939  0  0  0.117907  0  1.007782  0  0  0.124433  0.114631  0  1.010508  0
H  H27  1  0.31219760  0.88456772  0.52735076  1  0  0.107763  0  0.945051  0  0  0.116271  0  1.009783  0  0  0.118325  0  1.008015  0  0  0.124641  0.114762  0  1.011137  0
H  H28  1  0.88419051  0.31314580  0.02705258  1  0  0.106785  0  0.946528  0  0  0.115057  0  1.012056  0  0  0.117093  0  1.010211  0  0  0.123874  0.113589  0  1.013366  0
H  H29  1  0.68766986  0.11835200  0.47383871  1  0  0.106072  0  0.9461  0  0  0.114862  0  1.0108  0  0  0.116678  0  1.009453  0  0  0.123913  0.11358  0  1.011773  0
Pt  Pt30  1  0.49631800  0.50035103  0.49879570  1  0  0.068181  0  4.077321  0  0  0.091398  0  4.653281  0  0  0.085605  0  4.616373  0  0  0.527696  0.096734  0  4.678435  0
Pt  Pt31  1  0.50184780  0.49631803  0.99870494  1  0  0.068281  0  4.078434  0  0  0.090966  0  4.655965  0  0  0.084731  0  4.619612  0  0  0.527369  0.096679  0  4.680393  0
C  C32  1  0.64211505  0.39399361  0.59549471  1  0  0.068717  0  3.554081  0  0  0.045808  0  3.899505  0  0  0.064311  0  3.900642  0  0  -0.005514  0.033144  0  3.899096  0
C  C33  1  0.60745500  0.35413133  0.90140354  1  0  0.069778  0  3.557938  0  0  0.047456  0  3.902734  0  0  0.065762  0  3.904122  0  0  -0.004062  0.035085  0  3.901848  0
C  C34  1  0.35013246  0.60257593  0.40172485  1  0  0.073462  0  3.548792  0  0  0.050212  0  3.894662  0  0  0.068315  0  3.895852  0  0  -0.002494  0.037675  0  3.894371  0
C  C35  1  0.39224785  0.63785900  0.09561172  1  0  0.067912  0  3.555433  0  0  0.04465  0  3.901236  0  0  0.062374  0  3.903551  0  0  -0.004775  0.032672  0  3.899656  0
C  C36  1  0.35596510  0.36234707  0.55796456  1  0  0.066534  0  3.652476  0  0  0.040688  0  4.006501  0  0  0.049885  0  4.01334  0  0  -0.013566  0.034001  0  4.002177  0
C  C37  1  0.63874788  0.63917899  0.94146840  1  0  0.066056  0  3.649003  0  0  0.039886  0  4.00413  0  0  0.048984  0  4.011198  0  0  -0.014944  0.033338  0  3.999418  0
C  C38  1  0.63689135  0.63880329  0.44040713  1  0  0.066404  0  3.652243  0  0  0.040131  0  4.007177  0  0  0.049268  0  4.014226  0  0  -0.014828  0.033544  0  4.00257  0
C  C39  1  0.36567563  0.35347141  0.05668967  1  0  0.066493  0  3.654097  0  0  0.040666  0  4.008397  0  0  0.049983  0  4.015345  0  0  -0.0129  0.033929  0  4.003875  0
C  C40  1  0.00255297  0.45718808  0.74286479  1  0  0.153113  0  3.683613  0  0  0.120016  0  3.945393  0  0  0.129453  0  3.962752  0  0  0.059564  0.113136  0  3.933857  0
C  C41  1  0.54272201  0.99789631  0.75644189  1  0  0.151216  0  3.678455  0  0  0.116904  0  3.939656  0  0  0.126952  0  3.956449  0  0  0.058657  0.109505  0  3.928836  0
C  C42  1  0.00614316  0.55020307  0.25726002  1  0  0.149661  0  3.645066  0  0  0.115068  0  3.905756  0  0  0.127156  0  3.920038  0  0  0.056411  0.106092  0  3.897217  0
C  C43  1  0.46065036  0.00488602  0.24444542  1  0  0.151002  0  3.700432  0  0  0.119896  0  3.96157  0  0  0.128191  0  3.979658  0  0  0.058302  0.114067  0  3.949033  0
C  C44  1  0.11040084  0.52919522  0.76883495  1  0  -0.116531  0  3.730643  0  0  -0.130951  0  3.980371  0  0  -0.137841  0  4.002536  0  0  -0.085166  -0.126405  0  3.965674  0
C  C45  1  0.46960001  0.89016956  0.73196936  1  0  -0.116136  0  3.730011  0  0  -0.129764  0  3.980501  0  0  -0.136802  0  4.002204  0  0  -0.084356  -0.12515  0  3.966438  0
C  C46  1  0.89918960  0.47466365  0.23392017  1  0  -0.112658  0  3.72767  0  0  -0.126751  0  3.979802  0  0  -0.13396  0  3.999435  0  0  -0.084828  -0.122193  0  3.967675  0
C  C47  1  0.53037365  0.11433740  0.27019230  1  0  -0.119481  0  3.732107  0  0  -0.13305  0  3.98006  0  0  -0.140126  0  4.003204  0  0  -0.086088  -0.128253  0  3.964287  0
C  C48  1  0.21896177  0.44102107  0.83139255  1  0  -0.000291  0  3.731735  0  0  -0.01462  0  3.975897  0  0  -0.012303  0  3.996584  0  0  -0.068984  -0.016499  0  3.962395  0
C  C49  1  0.55673920  0.78167416  0.67001562  1  0  0.001409  0  3.731482  0  0  -0.013255  0  3.976381  0  0  -0.010095  0  3.995934  0  0  -0.067683  -0.01601  0  3.964021  0
C  C50  1  0.78675304  0.55791318  0.17240209  1  0  -0.000939  0  3.729848  0  0  -0.018246  0  3.977766  0  0  -0.012405  0  3.994117  0  0  -0.07046  -0.023183  0  3.968246  0
C  C51  1  0.43962596  0.22004598  0.33273292  1  0  -0.002488  0  3.739154  0  0  -0.016245  0  3.98149  0  0  -0.014645  0  4.003114  0  0  -0.070085  -0.01729  0  3.966792  0
C  C52  1  0.21624353  0.28441279  0.86660314  1  0  -0.14623  0  3.704586  0  0  -0.163817  0  3.946274  0  0  -0.171546  0  3.969334  0  0  -0.080709  -0.158515  0  3.930907  0
C  C53  1  0.71390345  0.78441465  0.63395801  1  0  -0.145365  0  3.707065  0  0  -0.163902  0  3.950343  0  0  -0.171554  0  3.972438  0  0  -0.080862  -0.158775  0  3.936  0
C  C54  1  0.78542948  0.71477802  0.13566561  1  0  -0.140329  0  3.710844  0  0  -0.159405  0  3.956423  0  0  -0.167167  0  3.976682  0  0  -0.079362  -0.154431  0  3.943879  0
C  C55  1  0.28288538  0.21361389  0.36757543  1  0  -0.150152  0  3.706585  0  0  -0.167424  0  3.946721  0  0  -0.175337  0  3.970467  0  0  -0.082348  -0.161883  0  3.930428  0
C  C56  1  0.10568631  0.21890527  0.83713681  1  0  0.185653  0  3.775502  0  0  0.184314  0  4.019365  0  0  0.192854  0  4.037675  0  0  0.124203  0.177728  0  4.007748  0
C  C57  1  0.78107726  0.89411447  0.66222350  1  0  0.187353  0  3.771575  0  0  0.184622  0  4.015805  0  0  0.193914  0  4.033465  0  0  0.124171  0.177394  0  4.004915  0
C  C58  1  0.89439392  0.78502698  0.16227672  1  0  0.17994  0  3.744548  0  0  0.17674  0  3.989114  0  0  0.1876  0  4.005129  0  0  0.11914  0.168347  0  3.979658  0
C  C59  1  0.21976907  0.10209760  0.33767849  1  0  0.187786  0  3.784609  0  0  0.18719  0  4.028611  0  0  0.195069  0  4.04751  0  0  0.124874  0.181315  0  4.016194  0
C  C60  1  0.08812313  0.05869337  0.87024542  1  0  0.104532  0  3.782312  0  0  0.095561  0  4.043406  0  0  0.10294  0  4.060578  0  0  0.093828  0.090685  0  4.032323  0
C  C61  1  0.94219791  0.91091317  0.62880559  1  0  0.100731  0  3.792071  0  0  0.092776  0  4.051959  0  0  0.100071  0  4.068827  0  0  0.091406  0.088001  0  4.04118  0
C  C62  1  0.90837044  0.94522305  0.12740708  1  0  0.104315  0  3.796205  0  0  0.09681  0  4.055375  0  0  0.103818  0  4.071385  0  0  0.092859  0.092276  0  4.045257  0
C  C63  1  0.05803545  0.08426209  0.37028326  1  0  0.102937  0  3.785917  0  0  0.094154  0  4.046565  0  0  0.10093  0  4.064673  0  0  0.093138  0.089631  0  4.034619  0
C  C64  1  0.17601746  0.92714970  0.92765053  1  0  -0.227646  0  3.741563  0  0  -0.252315  0  4.010969  0  0  -0.260667  0  4.031395  0  0  -0.108101  -0.246761  0  3.996969  0
C  C65  1  0.07509521  0.82371770  0.57239275  1  0  -0.225618  0  3.743704  0  0  -0.251181  0  4.014436  0  0  -0.259193  0  4.034185  0  0  -0.107293  -0.245983  0  4.000964  0
C  C66  1  0.82078595  0.07847100  0.07112155  1  0  -0.224485  0  3.741079  0  0  -0.250176  0  4.011499  0  0  -0.258029  0  4.031197  0  0  -0.107294  -0.245168  0  3.998173  0
C  C67  1  0.92727130  0.17339864  0.42735489  1  0  -0.23051  0  3.746416  0  0  -0.255482  0  4.01554  0  0  -0.264346  0  4.037089  0  0  -0.1086  -0.249412  0  4.000546  0
C  C68  1  0.09442946  0.81023253  0.93465395  1  0  0.049037  0  3.694256  0  0  -0.001194  0  3.971122  0  0  0.006115  0  3.987402  0  0  0.02252  -0.005417  0  3.95943  0
C  C69  1  0.19202456  0.90588555  0.56517761  1  0  0.048599  0  3.695654  0  0  -0.002284  0  3.973769  0  0  0.005311  0  3.989322  0  0  0.021311  -0.006805  0  3.962819  0
C  C70  1  0.90499608  0.19329687  0.06455176  1  0  0.047059  0  3.692197  0  0  -0.003825  0  3.970393  0  0  0.003552  0  3.986221  0  0  0.021818  -0.008161  0  3.959285  0
C  C71  1  0.80744772  0.09459083  0.43550715  1  0  0.050512  0  3.697467  0  0  0.000634  0  3.973629  0  0  0.007566  0  3.99077  0  0  0.02312  -0.003406  0  3.961325  0
N  N72  1  0.71990858  0.31829796  0.65433961  1  0  -0.333143  0  3.28989  0  0  -0.296188  0  3.608426  0  0  -0.315661  0  3.611452  0  0  -0.393284  -0.284685  0  3.605018  0
N  N73  1  0.67860132  0.27614661  0.84229553  1  0  -0.334434  0  3.289993  0  0  -0.297852  0  3.607974  0  0  -0.317226  0  3.611111  0  0  -0.393221  -0.286489  0  3.604679  0
N  N74  1  0.27033429  0.67085184  0.34221337  1  0  -0.340434  0  3.275355  0  0  -0.303836  0  3.59396  0  0  -0.322816  0  3.59722  0  0  -0.392301  -0.292867  0  3.591105  0
N  N75  1  0.31444202  0.71388955  0.15410925  1  0  -0.33057  0  3.294773  0  0  -0.29348  0  3.612489  0  0  -0.313265  0  3.617068  0  0  -0.394349  -0.28133  0  3.607352  0
N  N76  1  0.27735072  0.27652484  0.59327401  1  0  -0.427898  0  2.87182  0  0  -0.385342  0  3.125864  0  0  -0.398196  0  3.139865  0  0  -0.35615  -0.376608  0  3.116758  0
N  N77  1  0.72358250  0.71983678  0.90768397  1  0  -0.432952  0  2.868401  0  0  -0.390582  0  3.122827  0  0  -0.40354  0  3.137035  0  0  -0.357959  -0.381627  0  3.113425  0
N  N78  1  0.71599402  0.72485133  0.40622148  1  0  -0.432466  0  2.871196  0  0  -0.389967  0  3.125621  0  0  -0.403166  0  3.139869  0  0  -0.35824  -0.380912  0  3.116217  0
N  N79  1  0.28103731  0.27331619  0.09158865  1  0  -0.428583  0  2.871262  0  0  -0.385964  0  3.125225  0  0  -0.398935  0  3.13916  0  0  -0.356326  -0.377082  0  3.116041  0
N  N80  1  0.00150195  0.30629339  0.77561759  1  0  -0.261564  0  3.176731  0  0  -0.216112  0  3.441481  0  0  -0.242472  0  3.460569  0  0  -0.28187  -0.197305  0  3.427791  0
N  N81  1  0.69460884  0.99900933  0.72305569  1  0  -0.255563  0  3.195224  0  0  -0.208498  0  3.461253  0  0  -0.235681  0  3.480204  0  0  -0.285565  -0.189631  0  3.447967  0
N  N82  1  0.00446044  0.70252878  0.22323690  1  0  -0.239507  0  3.261773  0  0  -0.192473  0  3.536064  0  0  -0.220336  0  3.553852  0  0  -0.306778  -0.174148  0  3.523514  0
N  N83  1  0.30986933  0.99990539  0.27692855  1  0  -0.276993  0  3.14301  0  0  -0.233035  0  3.406718  0  0  -0.256674  0  3.424904  0  0  -0.280346  -0.215807  0  3.39353  0
N  N84  1  0.96130653  0.02078732  0.84381936  1  0  -0.161266  0  3.226256  0  0  -0.139084  0  3.523681  0  0  -0.157369  0  3.540671  0  0  -0.239599  -0.127547  0  3.511599  0
N  N85  1  0.97919457  0.03772577  0.65447555  1  0  -0.159937  0  3.234466  0  0  -0.138216  0  3.532188  0  0  -0.156387  0  3.548937  0  0  -0.240807  -0.12686  0  3.520355  0
N  N86  1  0.03712709  0.97981258  0.15331130  1  0  -0.165199  0  3.239444  0  0  -0.144761  0  3.538264  0  0  -0.161915  0  3.554217  0  0  -0.243565  -0.134174  0  3.527204  0
N  N87  1  0.01668726  0.95964352  0.34515677  1  0  -0.167115  0  3.181914  0  0  -0.143066  0  3.472177  0  0  -0.161208  0  3.490209  0  0  -0.226386  -0.131121  0  3.459116  0
N  N88  1  0.96745849  0.87027012  0.88331053  1  0  -0.142386  0  3.435393  0  0  -0.077231  0  3.674366  0  0  -0.088428  0  3.693523  0  0  -0.260931  -0.069979  0  3.661574  0
N  N89  1  0.13065451  0.03238900  0.61553897  1  0  -0.143177  0  3.436386  0  0  -0.077687  0  3.67612  0  0  -0.088836  0  3.695052  0  0  -0.260304  -0.070535  0  3.663605  0
N  N90  1  0.03299296  0.13033586  0.11507763  1  0  -0.138985  0  3.424649  0  0  -0.073264  0  3.664913  0  0  -0.084258  0  3.683568  0  0  -0.259547  -0.066264  0  3.65271  0
N  N91  1  0.86520936  0.96809542  0.38506641  1  0  -0.144114  0  3.445222  0  0  -0.078938  0  3.683364  0  0  -0.090705  0  3.703006  0  0  -0.261714  -0.071174  0  3.669999  0
