# generated using pymatgen
data_ZnH10C29N4(OF)4
_symmetry_space_group_name_H-M   'P 1'
_cell_length_a   17.12021673
_cell_length_b   18.38788652
_cell_length_c   19.60066587
_cell_angle_alpha   91.17215429
_cell_angle_beta   90.23834885
_cell_angle_gamma   94.79394015
_symmetry_Int_Tables_number   1
_chemical_formula_structural   ZnH10C29N4(OF)4
_chemical_formula_sum   'Zn2 H20 C58 N8 O8 F8'
_cell_volume   6147.40064509
_cell_formula_units_Z   2
loop_
 _symmetry_equiv_pos_site_id
 _symmetry_equiv_pos_as_xyz
  1  'x, y, z'
loop_
 _atom_site_type_symbol
 _atom_site_label
 _atom_site_symmetry_multiplicity
 _atom_site_fract_x
 _atom_site_fract_y
 _atom_site_fract_z
 _atom_site_occupancy
 _atom_site_pbe_bader_charge
 _atom_site_pbe_bader_spin_density
 _atom_site_pbe_cm5_charge
 _atom_site_pbe_ddec_charge
 _atom_site_pbe_ddec_spin_density
 _atom_site_pbe_ddec_sum_bond_order
 _atom_site_pbe_magmom
Zn  Zn0  1  0.49972130  0.42253963  0.48965416  1  1.302026  0  0.679216  0.850984  0  2.388475  0
Zn  Zn1  1  0.50250217  0.57794027  0.49686112  1  1.29373  0  0.678183  0.851274  0  2.390893  0
H  H2  1  0.26984328  0.59955838  0.56469965  1  0.108935  0  0.118385  0.127354  0  0.97951  0
H  H3  1  0.73761221  0.40436152  0.54189183  1  0.152045  0  0.115038  0.121752  0  0.987726  0
H  H4  1  0.60045843  0.43884563  0.93146220  1  0.08998  0  0.116095  0.14123  0  0.975678  0
H  H5  1  0.39381454  0.56136846  0.05536664  1  0.093923  0  0.116919  0.143165  0  0.972352  0
H  H6  1  0.56746340  0.31522488  0.57186487  1  0.147416  0  0.132846  0.113808  0  0.976395  0
H  H7  1  0.43906879  0.68677463  0.41263519  1  0.158476  0  0.134325  0.116316  0  0.972182  0
H  H8  1  0.57181005  0.17893689  0.57856496  1  0.099415  0  0.121755  0.134171  0  0.97229  0
H  H9  1  0.43427848  0.82305329  0.40773788  1  0.105135  0  0.122214  0.134489  0  0.973069  0
H  H10  1  0.55227292  0.93191641  0.39654824  1  0.135996  0  0.12815  0.139912  0  0.959144  0
H  H11  1  0.44933573  0.06883314  0.59331949  1  0.123539  0  0.128645  0.14118  0  0.957362  0
H  H12  1  0.01169900  0.58522569  0.57482092  1  0.094911  0  0.108083  0.106426  0  1.020847  0
H  H13  1  0.99555933  0.41842128  0.59321004  1  0.087813  0  0.10824  0.108605  0  1.018096  0
H  H14  1  0.87668274  0.40927769  0.57808194  1  0.094324  0  0.116144  0.120526  0  0.982246  0
H  H15  1  0.13131167  0.59325742  0.60289541  1  0.099186  0  0.118458  0.123262  0  0.974126  0
H  H16  1  0.50337814  0.60703504  0.70726741  1  0.103919  0  0.11456  0.146246  0  0.986295  0
H  H17  1  0.49667900  0.38947132  0.27759304  1  0.13759  0  0.115795  0.146263  0  0.983656  0
H  H18  1  0.49793666  0.37854279  0.83933120  1  0.06052  0  0.106825  0.1101  0  0.986969  0
H  H19  1  0.49572344  0.62029313  0.14986635  1  0.063305  0  0.106095  0.10922  0  0.988503  0
H  H20  1  0.50085263  0.37294125  0.71141437  1  0.088002  0  0.103441  0.109615  0  1.003347  0
H  H21  1  0.49501514  0.62348456  0.27764603  1  0.088566  0  0.10328  0.108526  0  1.004438  0
C  C22  1  0.49733580  0.50744670  0.36197575  1  1.511801  0  0.220408  0.601222  0  4.153787  0
C  C23  1  0.50374740  0.48717251  0.62552286  1  1.527299  0  0.214031  0.591615  0  4.172276  0
C  C24  1  0.50156184  0.55685887  0.73596456  1  0.065422  0  -0.091267  -0.212493  0  3.965476  0
C  C25  1  0.49677961  0.44022218  0.24998002  1  0.071528  0  -0.089416  -0.209124  0  3.959671  0
C  C26  1  0.49916519  0.55859621  0.80653991  1  0.400147  0  0.101396  0.248071  0  4.048307  0
C  C27  1  0.49674151  0.43977460  0.17936157  1  0.373065  0  0.101009  0.246855  0  4.047647  0
C  C28  1  0.49793507  0.49540663  0.84548561  1  0.127683  0  -0.011815  -0.018416  0  4.012834  0
C  C29  1  0.49666010  0.50362568  0.14146737  1  0.038943  0  -0.011469  -0.018639  0  4.011484  0
C  C30  1  0.49952633  0.42838404  0.80990312  1  -0.011147  0  -0.087976  -0.114984  0  3.998912  0
C  C31  1  0.49517243  0.56988323  0.17834659  1  -0.026545  0  -0.086664  -0.113995  0  3.995791  0
C  C32  1  0.50117914  0.42500246  0.73897798  1  -0.043455  0  -0.091961  -0.111507  0  4.009509  0
C  C33  1  0.49503890  0.57188057  0.24938776  1  -0.025623  0  -0.091081  -0.110875  0  4.005888  0
C  C34  1  0.50223973  0.48932869  0.70179234  1  0.006433  0  -0.017197  -0.00899  0  3.989614  0
C  C35  1  0.49627055  0.50701497  0.28556179  1  0.096147  0  -0.014405  -0.005743  0  3.974713  0
C  C36  1  0.55416840  0.46504396  0.95797379  1  0.001611  0  -0.094833  -0.234462  0  3.991645  0
C  C37  1  0.44015825  0.53517562  0.02891705  1  0.027516  0  -0.094288  -0.234991  0  3.985692  0
C  C38  1  0.55329369  0.46718533  0.02867801  1  0.467  0  0.093992  0.234297  0  4.068764  0
C  C39  1  0.44117994  0.53319541  0.95817453  1  0.479992  0  0.094646  0.236219  0  4.064259  0
C  C40  1  0.49682054  0.50156381  0.06618830  1  -0.018615  0  -0.012497  -0.001727  0  4.038123  0
C  C41  1  0.49742456  0.49851789  0.92071944  1  0.002835  0  -0.013274  -0.00278  0  4.040336  0
C  C42  1  0.53626016  0.27761662  0.53553481  1  0.438854  0  0.060028  0.117786  0  3.916944  0
C  C43  1  0.46818959  0.72376313  0.45068656  1  0.456786  0  0.060319  0.115901  0  3.914504  0
C  C44  1  0.35072026  0.49533182  0.51295141  1  1.614444  0  0.214522  0.585218  0  4.195986  0
C  C45  1  0.65291761  0.51085989  0.50487860  1  1.621689  0  0.216399  0.58889  0  4.191127  0
C  C46  1  0.53747175  0.20265581  0.53913048  1  0.046795  0  -0.077797  -0.172711  0  3.965722  0
C  C47  1  0.46674674  0.79878009  0.44810548  1  0.020887  0  -0.077694  -0.17223  0  3.967584  0
C  C48  1  0.49576122  0.15715296  0.49058995  1  0.01203  0  0.007451  0.01612  0  4.026671  0
C  C49  1  0.50572351  0.84362340  0.49874040  1  0.000139  0  0.008203  0.01641  0  4.024863  0
C  C50  1  0.45304390  0.19068153  0.44130281  1  0.627861  0  0.114361  0.101772  0  4.048687  0
C  C51  1  0.54571445  0.80930219  0.54934227  1  0.643022  0  0.113555  0.101516  0  4.045141  0
C  C52  1  0.45478836  0.26689412  0.44127585  1  1.174262  0  0.251977  0.352528  0  4.076622  0
C  C53  1  0.54373457  0.73305229  0.54861687  1  1.184112  0  0.250769  0.351019  0  4.076569  0
C  C54  1  0.52628876  0.03738116  0.43623629  1  0.069427  0  0.025263  0.046606  0  4.036066  0
C  C55  1  0.47536765  0.96339036  0.55363088  1  0.116792  0  0.025259  0.04744  0  4.033042  0
C  C56  1  0.52895102  0.96151387  0.43958094  1  0.043027  0  -0.055195  -0.134705  0  3.883487  0
C  C57  1  0.47276829  0.03930250  0.55029465  1  -0.046125  0  -0.055019  -0.135788  0  3.883457  0
C  C58  1  0.50400196  0.92381830  0.49767457  1  -0.004559  0  0.017286  0.063248  0  3.953097  0
C  C59  1  0.49763803  0.07694669  0.49217817  1  0.092756  0  0.017826  0.065138  0  3.954109  0
C  C60  1  0.26865704  0.48585585  0.54022098  1  0.026522  0  0.004919  -0.04384  0  3.896424  0
C  C61  1  0.73701671  0.51910157  0.52820458  1  0.011491  0  0.00552  -0.044888  0  3.898101  0
C  C62  1  0.23387048  0.54780464  0.56410538  1  -0.048305  0  -0.064267  -0.066021  0  3.961681  0
C  C63  1  0.77297681  0.45633447  0.54595632  1  -0.018758  0  -0.066014  -0.067329  0  3.969319  0
C  C64  1  0.15654335  0.54388602  0.58494295  1  0.018716  0  -0.068563  -0.108848  0  3.93871  0
C  C65  1  0.85066716  0.45966002  0.56629027  1  -0.040429  0  -0.068607  -0.107325  0  3.940814  0
C  C66  1  0.10934292  0.47744292  0.58142707  1  0.026006  0  0.013443  0.097086  0  3.992142  0
C  C67  1  0.89718461  0.52651548  0.56945090  1  0.055645  0  0.011903  0.093557  0  3.997504  0
C  C68  1  0.14598057  0.41321567  0.56336593  1  0.127167  0  0.023088  -0.013383  0  3.975528  0
C  C69  1  0.86033853  0.59091602  0.55459007  1  0.081429  0  0.023926  -0.012499  0  3.975706  0
C  C70  1  0.22564818  0.41716251  0.54272125  1  0.101338  0  0.031994  0.030714  0  3.995882  0
C  C71  1  0.78048527  0.58750892  0.53381071  1  0.091932  0  0.032981  0.034928  0  3.988812  0
C  C72  1  0.02459664  0.47326811  0.58867581  1  -0.051224  0  -0.076866  -0.114257  0  3.949659  0
C  C73  1  0.98148542  0.53097972  0.58048756  1  -0.062439  0  -0.075927  -0.108914  0  3.951486  0
C  C74  1  0.55552534  0.07430807  0.37705064  1  0.855296  0  0.17385  0.214589  0  4.02867  0
C  C75  1  0.44547500  0.92657892  0.61266033  1  0.816181  0  0.174611  0.216268  0  4.026331  0
C  C76  1  0.74851224  0.65492446  0.51887735  1  0.837943  0  0.180016  0.253805  0  4.021258  0
C  C77  1  0.25822958  0.35017934  0.52484040  1  0.872821  0  0.179915  0.254963  0  4.021039  0
C  C78  1  0.10040447  0.34462656  0.56342712  1  0.833084  0  0.175283  0.230188  0  4.045946  0
C  C79  1  0.90533692  0.65973016  0.55956510  1  0.843537  0  0.176053  0.23006  0  4.045868  0
N  N80  1  0.49558059  0.30902311  0.48648377  1  -1.254658  0  -0.31163  -0.273845  0  3.511967  0
N  N81  1  0.50619064  0.69158109  0.50098998  1  -1.245003  0  -0.311318  -0.273051  0  3.50951  0
N  N82  1  0.58026435  0.10456020  0.32891035  1  -1.076478  0  -0.287937  -0.31464  0  2.652257  0
N  N83  1  0.42005538  0.89643626  0.66061773  1  -1.07437  0  -0.289348  -0.316808  0  2.651124  0
N  N84  1  0.72996998  0.71348616  0.50874069  1  -1.094484  0  -0.31157  -0.358194  0  2.690175  0
N  N85  1  0.27813823  0.29202121  0.51295357  1  -1.104728  0  -0.310816  -0.356677  0  2.684869  0
N  N86  1  0.06025485  0.29002558  0.56455954  1  -1.116389  0  -0.305709  -0.343672  0  2.65469  0
N  N87  1  0.94488784  0.71456036  0.56477499  1  -1.096092  0  -0.304333  -0.340561  0  2.653137  0
O  O88  1  0.50556286  0.44664294  0.38996998  1  -1.16129  0  -0.316148  -0.546796  0  2.362125  0
O  O89  1  0.50886913  0.54865707  0.59632478  1  -1.168774  0  -0.318253  -0.557441  0  2.379088  0
O  O90  1  0.49023684  0.56801698  0.39338418  1  -1.168858  0  -0.317107  -0.55369  0  2.330179  0
O  O91  1  0.49955648  0.42486342  0.59550663  1  -1.154267  0  -0.316764  -0.550034  0  2.327646  0
O  O92  1  0.38216606  0.43750313  0.49635932  1  -1.155578  0  -0.301372  -0.530913  0  2.371668  0
O  O93  1  0.62159062  0.56909333  0.49139049  1  -1.150633  0  -0.30356  -0.529991  0  2.354181  0
O  O94  1  0.38133465  0.56052018  0.50898715  1  -1.159827  0  -0.316004  -0.543191  0  2.298097  0
O  O95  1  0.62043736  0.44612792  0.50161379  1  -1.165651  0  -0.313892  -0.544029  0  2.311378  0
F  F96  1  0.61168707  0.43681331  0.06251398  1  -0.629866  0  -0.107746  -0.147068  0  1.336559  0
F  F97  1  0.38306066  0.56389545  0.92420020  1  -0.628254  0  -0.110072  -0.149978  0  1.331486  0
F  F98  1  0.40937091  0.15136411  0.39426855  1  -0.611076  0  -0.072922  -0.088703  0  1.380034  0
F  F99  1  0.58702755  0.84774382  0.59835236  1  -0.611669  0  -0.070855  -0.086345  0  1.385078  0
F  F100  1  0.41460323  0.29898517  0.39379671  1  -0.600567  0  -0.050858  -0.090347  0  1.368163  0
F  F101  1  0.58003873  0.70032515  0.59813786  1  -0.607605  0  -0.050487  -0.090769  0  1.388508  0
F  F102  1  0.50063371  0.62472350  0.83928135  1  -0.626259  0  -0.108237  -0.150182  0  1.331656  0
F  F103  1  0.49450428  0.37419321  0.14552435  1  -0.628572  0  -0.107864  -0.150065  0  1.332286  0
