# generated using pymatgen
data_Zn4H18C42O13F6
_symmetry_space_group_name_H-M   'P 1'
_cell_length_a   24.42030964
_cell_length_b   24.49258144
_cell_length_c   24.65620700
_cell_angle_alpha   120.04565939
_cell_angle_beta   89.99392795
_cell_angle_gamma   119.72882257
_symmetry_Int_Tables_number   1
_chemical_formula_structural   Zn4H18C42O13F6
_chemical_formula_sum   'Zn8 H36 C84 O26 F12'
_cell_volume   10463.81506011
_cell_formula_units_Z   2
loop_
 _symmetry_equiv_pos_site_id
 _symmetry_equiv_pos_as_xyz
  1  'x, y, z'
loop_
 _atom_site_type_symbol
 _atom_site_label
 _atom_site_symmetry_multiplicity
 _atom_site_fract_x
 _atom_site_fract_y
 _atom_site_fract_z
 _atom_site_occupancy
 _atom_site_pbe_bader_charge
 _atom_site_pbe_bader_spin_density
 _atom_site_pbe_cm5_charge
 _atom_site_pbe_ddec_charge
 _atom_site_pbe_ddec_spin_density
 _atom_site_pbe_ddec_sum_bond_order
 _atom_site_pbe_magmom
Zn  Zn0  1  0.03917475  0.07365516  0.10792505  1  1.324591  0  0.677769  0.970396  0  2.384622  0
Zn  Zn1  1  0.04081576  0.94216115  0.98134070  1  1.319095  0  0.675009  0.969853  0  2.365669  0
Zn  Zn2  1  0.04304831  0.07267266  0.97812238  1  1.311401  0  0.671972  0.966218  0  2.371055  0
Zn  Zn3  1  0.90937427  0.94289711  0.97773855  1  1.30331  0  0.669208  0.965181  0  2.358865  0
Zn  Zn4  1  0.47427279  0.94321028  0.41362713  1  1.309137  0  0.669077  0.963967  0  2.367757  0
Zn  Zn5  1  0.47568271  0.07403494  0.54750162  1  1.319872  0  0.672163  0.967048  0  2.364743  0
Zn  Zn6  1  0.60564670  0.07412897  0.54293113  1  1.32483  0  0.677652  0.969961  0  2.379666  0
Zn  Zn7  1  0.47801984  0.94079636  0.54192804  1  1.317008  0  0.675336  0.969906  0  2.369661  0
H  H8  1  0.18817772  0.95957281  0.08711503  1  0.116564  0  0.113265  0.120113  0  0.981988  0
H  H9  1  0.26250899  0.96143237  0.15817441  1  0.061282  0  0.105591  0.109128  0  0.998806  0
H  H10  1  0.19354114  0.05600369  0.31961873  1  0.094404  0  0.113631  0.138094  0  0.984241  0
H  H11  1  0.25678972  0.90005270  0.21117875  1  0.082527  0  0.105516  0.109549  0  0.998285  0
H  H12  1  0.33128224  0.90485889  0.28499981  1  0.109662  0  0.111447  0.118203  0  0.986621  0
H  H13  1  0.31060013  0.12325717  0.37469042  1  0.101503  0  0.113807  0.138519  0  0.984254  0
H  H14  1  0.13097594  0.30828625  0.07720799  1  0.073602  0  0.11261  0.118894  0  0.984335  0
H  H15  1  0.19747120  0.45136073  0.14627296  1  0.069016  0  0.104813  0.10826  0  0.998516  0
H  H16  1  0.26257012  0.45665102  0.31300966  1  0.120814  0  0.113917  0.138521  0  0.984688  0
H  H17  1  0.31287678  0.56333184  0.20240500  1  0.038009  0  0.105051  0.108844  0  0.997892  0
H  H18  1  0.38250631  0.70650331  0.27676922  1  0.103258  0  0.11158  0.117614  0  0.986381  0
H  H19  1  0.24621340  0.55823612  0.36335615  1  0.096674  0  0.114181  0.138689  0  0.983007  0
H  H20  1  0.77440628  0.89922837  0.07938864  1  0.119717  0  0.111265  0.117655  0  0.985613  0
H  H21  1  0.70096584  0.89340663  0.14955158  1  0.053526  0  0.104923  0.108488  0  0.999408  0
H  H22  1  0.86137471  0.12267703  0.31341857  1  0.1128  0  0.114383  0.138893  0  0.981762  0
H  H23  1  0.64437655  0.95417917  0.20512842  1  0.054117  0  0.104482  0.107906  0  0.998392  0
H  H24  1  0.57513352  0.95251817  0.27938841  1  0.098706  0  0.111156  0.117871  0  0.98823  0
H  H25  1  0.81229087  0.05454117  0.36484819  1  0.109178  0  0.114285  0.139835  0  0.981333  0
H  H26  1  0.18777715  0.11041271  0.88855623  1  0.092649  0  0.112325  0.119187  0  0.983503  0
H  H27  1  0.26138191  0.11333208  0.81852198  1  0.098601  0  0.105106  0.108221  0  0.99828  0
H  H28  1  0.19460078  0.88294928  0.74975341  1  0.086689  0  0.114256  0.13967  0  0.983267  0
H  H29  1  0.25391322  0.05303952  0.70291404  1  0.05788  0  0.105969  0.109872  0  0.997165  0
H  H30  1  0.33014602  0.05629204  0.63561087  1  0.106269  0  0.112623  0.119579  0  0.984968  0
H  H31  1  0.31418740  0.94817864  0.76420434  1  0.085343  0  0.113351  0.137527  0  0.983876  0
H  H32  1  0.77607638  0.70866404  0.83502388  1  0.1002  0  0.111315  0.11786  0  0.987531  0
H  H33  1  0.70168535  0.56563300  0.75919605  1  0.065421  0  0.105613  0.109268  0  0.997838  0
H  H34  1  0.86211418  0.55772881  0.82038481  1  0.093333  0  0.113919  0.138888  0  0.983518  0
H  H35  1  0.64384142  0.45260897  0.76077543  1  0.073333  0  0.104942  0.108116  0  0.998282  0
H  H36  1  0.57485599  0.30949449  0.68581844  1  0.117481  0  0.1126  0.119834  0  0.98525  0
H  H37  1  0.81270581  0.45713648  0.70366097  1  0.105457  0  0.114334  0.138933  0  0.983737  0
H  H38  1  0.77911349  0.95877307  0.88752536  1  0.119658  0  0.11163  0.11819  0  0.985209  0
H  H39  1  0.70631467  0.96037388  0.81828380  1  0.04913  0  0.105914  0.110101  0  0.998381  0
H  H40  1  0.86870431  0.05382864  0.74979285  1  0.080414  0  0.114315  0.139693  0  0.9832  0
H  H41  1  0.65063940  0.89868561  0.70379441  1  0.076751  0  0.105308  0.108662  0  0.999622  0
H  H42  1  0.58111732  0.90383885  0.63489295  1  0.118228  0  0.113347  0.121517  0  0.983266  0
H  H43  1  0.81893791  0.12216297  0.76304209  1  0.094563  0  0.113165  0.137358  0  0.98526  0
C  C44  1  0.10912735  0.00802759  0.11827083  1  1.556865  0  0.227281  0.621656  0  4.1703  0
C  C45  1  0.15066070  0.00792364  0.16259562  1  0.070336  0  -0.025279  -0.157202  0  3.959165  0
C  C46  1  0.19016886  0.98055652  0.13833392  1  0.018021  0  -0.075222  -0.054515  0  3.981104  0
C  C47  1  0.23110940  0.98108664  0.17792490  1  -0.064447  0  -0.095115  -0.157907  0  3.996272  0
C  C48  1  0.23407095  0.00930734  0.24428845  1  -0.004002  0  0.001848  0.105913  0  4.005661  0
C  C49  1  0.19448313  0.03601786  0.26917673  1  0.022573  0  -0.0995  -0.266945  0  3.96547  0
C  C50  1  0.15379817  0.03494963  0.22876161  1  0.408705  0  0.111429  0.297415  0  4.03687  0
C  C51  1  0.27775759  0.01094547  0.28730300  1  0.010451  0  0.003225  0.107245  0  4.005021  0
C  C52  1  0.28493933  0.95000023  0.26255229  1  -0.049138  0  -0.095133  -0.156757  0  3.996979  0
C  C53  1  0.32593449  0.95215172  0.30365101  1  -0.044477  0  -0.077704  -0.058992  0  3.993422  0
C  C54  1  0.36141705  0.01434992  0.37079537  1  0.038634  0  -0.025772  -0.157465  0  3.964183  0
C  C55  1  0.40401327  0.01257393  0.41250806  1  1.570824  0  0.226083  0.623829  0  4.172129  0
C  C56  1  0.35385680  0.07478679  0.39430754  1  0.446058  0  0.110214  0.295139  0  4.038182  0
C  C57  1  0.31308911  0.07374666  0.35398746  1  0.018768  0  -0.099507  -0.265914  0  3.96691  0
C  C58  1  0.11473317  0.21583096  0.11240506  1  1.573904  0  0.226967  0.622803  0  4.173373  0
C  C59  1  0.15760385  0.30166668  0.15533136  1  -0.003448  0  -0.025786  -0.157264  0  3.965808  0
C  C60  1  0.16029318  0.34205864  0.12910760  1  0.047445  0  -0.076976  -0.057518  0  3.987859  0
C  C61  1  0.19784607  0.42189630  0.16770239  1  -0.019524  0  -0.095181  -0.157461  0  3.995436  0
C  C62  1  0.23466145  0.46491762  0.23494332  1  -0.090934  0  0.003039  0.10791  0  4.002167  0
C  C63  1  0.23310603  0.42563074  0.26176653  1  -0.017119  0  -0.099152  -0.266633  0  3.966334  0
C  C64  1  0.19533412  0.34580967  0.22235941  1  0.488598  0  0.111402  0.297079  0  4.040876  0
C  C65  1  0.27493955  0.54982215  0.27731461  1  0.060622  0  0.002284  0.105507  0  4.0035  0
C  C66  1  0.31284235  0.59288944  0.25327481  1  0.018373  0  -0.095485  -0.157332  0  3.994855  0
C  C67  1  0.35220808  0.67276884  0.29474635  1  0.028134  0  -0.077484  -0.059008  0  3.9926  0
C  C68  1  0.35582789  0.71319718  0.36148357  1  -0.062895  0  -0.025827  -0.155742  0  3.963984  0
C  C69  1  0.40125837  0.79900617  0.40477319  1  1.604802  0  0.226426  0.622745  0  4.175298  0
C  C70  1  0.31641100  0.66903420  0.38396031  1  0.489786  0  0.109244  0.293768  0  4.042049  0
C  C71  1  0.27671588  0.58917597  0.34331478  1  -0.06119  0  -0.098843  -0.264633  0  3.96682  0
C  C72  1  0.90121711  0.01113090  0.11258160  1  1.567381  0  0.227444  0.624789  0  4.170224  0
C  C73  1  0.85857284  0.01216233  0.15598451  1  0.049282  0  -0.025555  -0.157842  0  3.964666  0
C  C74  1  0.79238616  0.94774454  0.13082553  1  -0.025433  0  -0.077559  -0.058555  0  3.993442  0
C  C75  1  0.75150080  0.94490059  0.16991100  1  -0.011238  0  -0.096172  -0.158285  0  3.99829  0
C  C76  1  0.77569942  0.00717364  0.23668728  1  -0.024312  0  0.002693  0.107196  0  4.004837  0
C  C77  1  0.84130624  0.07225065  0.26252256  1  -0.010466  0  -0.098157  -0.264248  0  3.961817  0
C  C78  1  0.88130560  0.07417256  0.22254420  1  0.450105  0  0.111317  0.296712  0  4.035704  0
C  C79  1  0.73345792  0.00483645  0.27943044  1  -0.066507  0  0.002318  0.10543  0  4.009021  0
C  C80  1  0.66582988  0.97494153  0.25568874  1  0.029204  0  -0.095104  -0.156109  0  3.997843  0
C  C81  1  0.62725583  0.97442266  0.29703364  1  0.025359  0  -0.077794  -0.060058  0  3.996061  0
C  C82  1  0.65374004  0.00310228  0.36323119  1  0.028839  0  -0.025633  -0.156205  0  3.962395  0
C  C83  1  0.61052436  0.00355833  0.40605920  1  1.571163  0  0.228241  0.625199  0  4.167735  0
C  C84  1  0.72113816  0.03160993  0.38552319  1  0.415154  0  0.112049  0.296845  0  4.037589  0
C  C85  1  0.76065613  0.03299515  0.34506016  1  0.038422  0  -0.09832  -0.265811  0  3.966629  0
C  C86  1  0.11055137  0.00084988  0.90564983  1  1.585192  0  0.228045  0.624124  0  4.169005  0
C  C87  1  0.15147045  0.99745224  0.86056893  1  0.010726  0  -0.025857  -0.156186  0  3.960088  0
C  C88  1  0.19013758  0.06116204  0.85776746  1  -0.044831  0  -0.075937  -0.056021  0  3.984586  0
C  C89  1  0.23061892  0.06230068  0.81826925  1  0.017045  0  -0.095007  -0.156313  0  3.99277  0
C  C90  1  0.23404869  0.99884722  0.77942362  1  0.004914  0  0.003237  0.107319  0  4.00071  0
C  C91  1  0.19512445  0.93430764  0.78075029  1  -0.023004  0  -0.100185  -0.267661  0  3.966656  0
C  C92  1  0.15481304  0.93422257  0.82052550  1  0.491478  0  0.109964  0.293242  0  4.042487  0
C  C93  1  0.27804815  0.00012369  0.73831281  1  -0.024904  0  0.001965  0.105296  0  4.002855  0
C  C94  1  0.28381281  0.03138912  0.70214292  1  -0.01447  0  -0.094949  -0.156393  0  3.9955  0
C  C95  1  0.32580633  0.03273521  0.66417036  1  -0.046161  0  -0.077186  -0.058595  0  3.988272  0
C  C96  1  0.36367853  0.00327775  0.66027633  1  0.02662  0  -0.026222  -0.15759  0  3.959425  0
C  C97  1  0.40704940  0.00524576  0.61762678  1  1.574031  0  0.228339  0.625385  0  4.169639  0
C  C98  1  0.35740350  0.97273142  0.69707159  1  0.42668  0  0.111876  0.29811  0  4.034755  0
C  C99  1  0.31560316  0.97074586  0.73532308  1  0.050427  0  -0.099359  -0.266162  0  3.96392  0
C  C100  1  0.90301749  0.79996574  0.91158456  1  1.590086  0  0.227333  0.623642  0  4.171333  0
C  C101  1  0.86025198  0.71406196  0.86910833  1  0.051929  0  -0.026008  -0.157474  0  3.960334  0
C  C102  1  0.79380374  0.67426870  0.83110966  1  -0.096211  0  -0.077654  -0.058937  0  3.989462  0
C  C103  1  0.75237337  0.59447877  0.78921737  1  0.025968  0  -0.095317  -0.156724  0  3.995655  0
C  C104  1  0.77622230  0.55067615  0.78350632  1  0.082117  0  0.002771  0.106381  0  4.004629  0
C  C105  1  0.84209100  0.58925444  0.82155524  1  -0.041985  0  -0.098973  -0.266244  0  3.965845  0
C  C106  1  0.88264809  0.66908334  0.86334284  1  0.436426  0  0.111681  0.298158  0  4.037097  0
C  C107  1  0.73362757  0.46583045  0.73848083  1  -0.013389  0  0.002383  0.106082  0  4.004488  0
C  C108  1  0.66572613  0.42297205  0.73179367  1  -0.012281  0  -0.094796  -0.15595  0  3.994915  0
C  C109  1  0.62716808  0.34315072  0.69038093  1  -0.040703  0  -0.076105  -0.05719  0  3.987793  0
C  C110  1  0.65381939  0.30237215  0.65366987  1  0.006088  0  -0.025823  -0.156699  0  3.960548  0
C  C111  1  0.61066478  0.21653656  0.61193469  1  1.626032  0  0.226576  0.62002  0  4.170969  0
C  C112  1  0.72142327  0.34644708  0.66013037  1  0.366688  0  0.111815  0.297149  0  4.03584  0
C  C113  1  0.76090216  0.42631115  0.70164624  1  0.055644  0  -0.099114  -0.266317  0  3.965923  0
C  C114  1  0.90636610  0.00721764  0.90421518  1  1.568576  0  0.226105  0.622701  0  4.171214  0
C  C115  1  0.86440617  0.00670346  0.85965283  1  0.005837  0  -0.025956  -0.156556  0  3.967278  0
C  C116  1  0.79776547  0.97947288  0.85694893  1  -0.046498  0  -0.077857  -0.059786  0  3.994302  0
C  C117  1  0.75719152  0.97983689  0.81786321  1  0.022281  0  -0.094799  -0.157109  0  3.997275  0
C  C118  1  0.78208413  0.00777842  0.77933666  1  0.017443  0  0.003276  0.108353  0  4.006108  0
C  C119  1  0.84810589  0.03413514  0.78059598  1  0.034074  0  -0.099832  -0.268485  0  3.970846  0
C  C120  1  0.88783721  0.03326074  0.82002029  1  0.434142  0  0.109933  0.296044  0  4.041222  0
C  C121  1  0.73997167  0.00969220  0.73829858  1  -0.018455  0  0.002565  0.10631  0  4.006743  0
C  C122  1  0.67219181  0.94880824  0.70236296  1  -0.004593  0  -0.09484  -0.156337  0  3.996348  0
C  C123  1  0.63343669  0.95119971  0.66357079  1  -0.057998  0  -0.075529  -0.056223  0  3.983909  0
C  C124  1  0.65978136  0.01387674  0.65893586  1  0.055676  0  -0.025716  -0.15879  0  3.960504  0
C  C125  1  0.61559531  0.01220552  0.61547637  1  1.560652  0  0.227079  0.621817  0  4.165831  0
C  C126  1  0.72742737  0.07447097  0.69587664  1  0.464968  0  0.112992  0.299819  0  4.036499  0
C  C127  1  0.76712328  0.07283391  0.73460805  1  -0.009339  0  -0.099456  -0.267003  0  3.968366  0
O  O128  1  0.00738136  0.00721777  0.01034193  1  -1.216205  0  -0.572026  -1.033539  0  2.536994  0
O  O129  1  0.10000642  0.96707772  0.05628534  1  -1.173917  0  -0.314525  -0.546366  0  2.32123  0
O  O130  1  0.08712652  0.04931273  0.14554543  1  -1.150462  0  -0.310533  -0.537867  0  2.356682  0
O  O131  1  0.42213723  0.05869279  0.47527640  1  -1.164859  0  -0.313599  -0.543402  0  2.354582  0
O  O132  1  0.41785293  0.96343991  0.38080990  1  -1.17224  0  -0.317224  -0.550432  0  2.328174  0
O  O133  1  0.09617306  0.18346020  0.04977710  1  -1.166465  0  -0.316589  -0.548772  0  2.317477  0
O  O134  1  0.09940413  0.18213211  0.14141980  1  -1.157688  0  -0.310648  -0.538552  0  2.36447  0
O  O135  1  0.41961508  0.83175195  0.46717414  1  -1.159086  0  -0.311847  -0.540114  0  2.354295  0
O  O136  1  0.41881420  0.83212139  0.37493682  1  -1.173972  0  -0.3171  -0.550501  0  2.32115  0
O  O137  1  0.87094548  0.95890796  0.05026095  1  -1.179556  0  -0.318239  -0.553466  0  2.31758  0
O  O138  1  0.96393980  0.06126745  0.14097191  1  -1.162352  0  -0.311299  -0.538608  0  2.363359  0
O  O139  1  0.63957552  0.04572614  0.46844438  1  -1.163781  0  -0.311217  -0.538459  0  2.357674  0
O  O140  1  0.54763411  0.96198309  0.37600327  1  -1.178708  0  -0.318464  -0.553519  0  2.32013  0
O  O141  1  0.10078525  0.05369054  0.92680366  1  -1.17558  0  -0.31621  -0.548901  0  2.329105  0
O  O142  1  0.08982249  0.95239019  0.92015694  1  -1.162205  0  -0.312929  -0.541989  0  2.35048  0
O  O143  1  0.42688561  0.96164308  0.60141995  1  -1.154273  0  -0.311953  -0.541011  0  2.354501  0
O  O144  1  0.41970251  0.05048075  0.60039483  1  -1.16351  0  -0.316851  -0.550027  0  2.325122  0
O  O145  1  0.87265129  0.83244285  0.92097215  1  -1.175685  0  -0.317655  -0.551622  0  2.324189  0
O  O146  1  0.96567031  0.83365009  0.93407631  1  -1.173251  0  -0.31274  -0.54087  0  2.357064  0
O  O147  1  0.63878459  0.18207170  0.58670421  1  -1.163648  0  -0.311819  -0.538743  0  2.36088  0
O  O148  1  0.54855152  0.18447839  0.60560109  1  -1.177135  0  -0.315689  -0.547754  0  2.318001  0
O  O149  1  0.87476893  0.96402638  0.92350843  1  -1.174521  0  -0.316496  -0.549881  0  2.321401  0
O  O150  1  0.96948376  0.05112309  0.92001892  1  -1.154412  0  -0.313358  -0.542398  0  2.353714  0
O  O151  1  0.64212333  0.06607070  0.60724751  1  -1.159634  0  -0.31154  -0.539043  0  2.353445  0
O  O152  1  0.55402481  0.95558826  0.58940341  1  -1.177615  0  -0.31587  -0.548086  0  2.324541  0
O  O153  1  0.50735330  0.00740974  0.51081605  1  -1.22969  0  -0.572307  -1.033313  0  2.540175  0
F  F154  1  0.11540906  0.05937287  0.25561164  1  -0.624176  0  -0.099163  -0.136614  0  1.341096  0
F  F155  1  0.38796597  0.13842187  0.45769320  1  -0.627067  0  -0.103084  -0.141083  0  1.338671  0
F  F156  1  0.19799886  0.31197151  0.25109280  1  -0.626525  0  -0.099202  -0.136319  0  1.342885  0
F  F157  1  0.31419656  0.70322468  0.44656666  1  -0.62244  0  -0.100284  -0.138141  0  1.338638  0
F  F158  1  0.94337812  0.13990200  0.25033186  1  -0.623986  0  -0.098533  -0.135554  0  1.341847  0
F  F159  1  0.75024846  0.05742706  0.44761104  1  -0.622605  0  -0.099267  -0.136021  0  1.341938  0
F  F160  1  0.11704289  0.86903206  0.81781978  1  -0.624896  0  -0.100483  -0.137577  0  1.340844  0
F  F161  1  0.39396257  0.94583212  0.69839890  1  -0.628853  0  -0.101712  -0.139818  0  1.337993  0
F  F162  1  0.94503038  0.70202437  0.89983393  1  -0.623369  0  -0.100636  -0.138225  0  1.341013  0
F  F163  1  0.75112034  0.31276369  0.62503665  1  -0.625207  0  -0.097891  -0.134544  0  1.344371  0
F  F164  1  0.95050275  0.05745973  0.81725185  1  -0.624286  0  -0.102832  -0.140837  0  1.338424  0
F  F165  1  0.75692321  0.13831220  0.69620959  1  -0.621739  0  -0.099013  -0.136098  0  1.343983  0
