# generated using pymatgen
data_NaH2C7O3F5
_symmetry_space_group_name_H-M   'P 1'
_cell_length_a   5.43288770
_cell_length_b   9.25936949
_cell_length_c   16.79437059
_cell_angle_alpha   95.08027481
_cell_angle_beta   90.00023769
_cell_angle_gamma   89.99969502
_symmetry_Int_Tables_number   1
_chemical_formula_structural   NaH2C7O3F5
_chemical_formula_sum   'Na4 H8 C28 O12 F20'
_cell_volume   841.52386606
_cell_formula_units_Z   4
loop_
 _symmetry_equiv_pos_site_id
 _symmetry_equiv_pos_as_xyz
  1  'x, y, z'
loop_
 _atom_site_type_symbol
 _atom_site_label
 _atom_site_symmetry_multiplicity
 _atom_site_fract_x
 _atom_site_fract_y
 _atom_site_fract_z
 _atom_site_occupancy
 _atom_site_hle17_bader_spin_density
 _atom_site_hle17_ddec_charge
 _atom_site_hle17_ddec_spin_density
 _atom_site_hle17_ddec_sum_bond_order
 _atom_site_hle17_magmom
 _atom_site_hse06_10hf_bader_spin_density
 _atom_site_hse06_10hf_ddec_charge
 _atom_site_hse06_10hf_ddec_spin_density
 _atom_site_hse06_10hf_ddec_sum_bond_order
 _atom_site_hse06_10hf_magmom
 _atom_site_hse06_bader_spin_density
 _atom_site_hse06_ddec_charge
 _atom_site_hse06_ddec_spin_density
 _atom_site_hse06_ddec_sum_bond_order
 _atom_site_hse06_magmom
 _atom_site_pbe_bader_spin_density
 _atom_site_pbe_cm5_charge
 _atom_site_pbe_ddec_charge
 _atom_site_pbe_ddec_spin_density
 _atom_site_pbe_ddec_sum_bond_order
 _atom_site_pbe_magmom
Na  Na0  1  0.69365603  0.59400763  0.44437847  1  0  0.92025  0  0.351147  0  0  0.878165  0  0.50094  0  0  0.888683  0  0.478807  0  0  0.664489  0.87038  0  0.517116  0
Na  Na1  1  0.19366183  0.40600050  0.55562006  1  0  0.920261  0  0.351133  0  0  0.878185  0  0.500917  0  0  0.8887  0  0.478785  0  0  0.664502  0.870406  0  0.517091  0
Na  Na2  1  0.70219461  0.21809693  0.41555254  1  0  0.912781  0  0.372852  0  0  0.870721  0  0.523708  0  0  0.880747  0  0.501923  0  0  0.673092  0.863168  0  0.539726  0
Na  Na3  1  0.20218783  0.78190464  0.58444745  1  0  0.912793  0  0.372851  0  0  0.870718  0  0.523691  0  0  0.880756  0  0.501891  0  0  0.673069  0.86316  0  0.539711  0
H  H4  1  0.40596974  0.86901034  0.44215523  1  0  0.410556  0  0.89597  0  0  0.384608  0  0.953439  0  0  0.394591  0  0.938584  0  0  0.288626  0.377283  0  0.964287  0
H  H5  1  0.90597865  0.13098530  0.55784243  1  0  0.410523  0  0.896036  0  0  0.384565  0  0.953505  0  0  0.394548  0  0.938651  0  0  0.28859  0.377239  0  0.964355  0
H  H6  1  0.21492448  0.74848510  0.41716706  1  0  0.419315  0  0.886505  0  0  0.392288  0  0.944642  0  0  0.402358  0  0.929848  0  0  0.291921  0.385073  0  0.955309  0
H  H7  1  0.71493797  0.25151320  0.58283160  1  0  0.419316  0  0.886516  0  0  0.392277  0  0.944647  0  0  0.402349  0  0.929852  0  0  0.291935  0.385071  0  0.955296  0
H  H8  1  0.36817641  0.05849058  0.51438109  1  0  0.405562  0  0.91089  0  0  0.375052  0  0.976014  0  0  0.386017  0  0.959815  0  0  0.293518  0.367404  0  0.987293  0
H  H9  1  0.86816025  0.94151062  0.48561322  1  0  0.405626  0  0.910801  0  0  0.37508  0  0.975988  0  0  0.386049  0  0.959781  0  0  0.293524  0.367431  0  0.98727  0
H  H10  1  0.20950906  0.05680948  0.43435037  1  0  0.421382  0  0.874792  0  0  0.396656  0  0.929367  0  0  0.405742  0  0.916093  0  0  0.302802  0.390251  0  0.93877  0
H  H11  1  0.70949913  0.94319323  0.56564255  1  0  0.421228  0  0.87491  0  0  0.396498  0  0.929576  0  0  0.405584  0  0.9163  0  0  0.302768  0.390096  0  0.938977  0
C  C12  1  0.89850844  0.87504717  0.34394474  1  0  0.724232  0  3.870608  0  0  0.670532  0  4.177027  0  0  0.70498  0  4.16467  0  0  0.226007  0.647383  0  4.18406  0
C  C13  1  0.39851603  0.12494956  0.65605415  1  0  0.724133  0  3.870812  0  0  0.670446  0  4.177236  0  0  0.70487  0  4.164919  0  0  0.226027  0.647312  0  4.184242  0
C  C14  1  0.83324803  0.88651989  0.25712427  1  0  -0.22518  0  3.746788  0  0  -0.238481  0  4.030487  0  0  -0.244631  0  4.043141  0  0  -0.032549  -0.234308  0  4.021433  0
C  C15  1  0.33321051  0.11347169  0.74286531  1  0  -0.22482  0  3.746504  0  0  -0.238198  0  4.030151  0  0  -0.244336  0  4.042758  0  0  -0.032451  -0.233996  0  4.021015  0
C  C16  1  0.62937991  0.96365074  0.23351987  1  0  0.223505  0  3.802823  0  0  0.178768  0  4.121718  0  0  0.192034  0  4.126478  0  0  0.091462  0.170648  0  4.117853  0
C  C17  1  0.12934335  0.03633707  0.76646618  1  0  0.222933  0  3.802821  0  0  0.178307  0  4.121657  0  0  0.191626  0  4.126373  0  0  0.091136  0.170182  0  4.117798  0
C  C18  1  0.57186129  0.97352994  0.15354983  1  0  0.108798  0  3.816594  0  0  0.063865  0  4.143336  0  0  0.071314  0  4.147628  0  0  0.076466  0.058855  0  4.139841  0
C  C19  1  0.07180162  0.02645803  0.84643553  1  0  0.109037  0  3.815893  0  0  0.063924  0  4.142804  0  0  0.071228  0  4.147494  0  0  0.076493  0.058935  0  4.139289  0
C  C20  1  0.72164357  0.90591553  0.09399455  1  0  0.164886  0  3.797576  0  0  0.120426  0  4.120471  0  0  0.131188  0  4.125537  0  0  0.092361  0.113337  0  4.117268  0
C  C21  1  0.22156353  0.09407846  0.90599972  1  0  0.165004  0  3.797172  0  0  0.120508  0  4.120161  0  0  0.130619  0  4.12573  0  0  0.092443  0.113406  0  4.116962  0
C  C22  1  0.92910829  0.82951909  0.11548107  1  0  0.114029  0  3.81081  0  0  0.068964  0  4.134191  0  0  0.075498  0  4.141242  0  0  0.078613  0.064302  0  4.129774  0
C  C23  1  0.42904021  0.17048408  0.88451642  1  0  0.113737  0  3.810427  0  0  0.068597  0  4.13383  0  0  0.075031  0  4.141218  0  0  0.078409  0.063933  0  4.129425  0
C  C24  1  0.98014233  0.82052752  0.19613683  1  0  0.228327  0  3.773855  0  0  0.188898  0  4.082245  0  0  0.200121  0  4.090047  0  0  0.093483  0.181088  0  4.077388  0
C  C25  1  0.48008263  0.17947014  0.80385630  1  0  0.228206  0  3.77362  0  0  0.188885  0  4.081832  0  0  0.200111  0  4.08961  0  0  0.093528  0.181075  0  4.076988  0
C  C26  1  0.70290788  0.59668022  0.62079047  1  0  0.734042  0  3.912198  0  0  0.690872  0  4.208298  0  0  0.724847  0  4.195982  0  0  0.214323  0.667389  0  4.217914  0
C  C27  1  0.20287898  0.40332992  0.37922069  1  0  0.734184  0  3.912263  0  0  0.691027  0  4.208313  0  0  0.725003  0  4.195994  0  0  0.214364  0.667499  0  4.217937  0
C  C28  1  0.71204336  0.60243673  0.71146192  1  0  -0.226143  0  3.715521  0  0  -0.235515  0  3.988632  0  0  -0.242459  0  4.002776  0  0  -0.025292  -0.231401  0  3.980133  0
C  C29  1  0.21204499  0.39756577  0.28855005  1  0  -0.226133  0  3.71545  0  0  -0.235461  0  3.988492  0  0  -0.24242  0  4.002632  0  0  -0.02531  -0.231168  0  3.979744  0
C  C30  1  0.53133087  0.67333518  0.75969778  1  0  0.232215  0  3.760844  0  0  0.194984  0  4.067282  0  0  0.206215  0  4.074939  0  0  0.099497  0.18717  0  4.062762  0
C  C31  1  0.03131618  0.32667107  0.24031287  1  0  0.231973  0  3.760538  0  0  0.194656  0  4.067107  0  0  0.205913  0  4.074721  0  0  0.099351  0.186789  0  4.062551  0
C  C32  1  0.53023606  0.67435968  0.84259878  1  0  0.112805  0  3.804813  0  0  0.067606  0  4.125869  0  0  0.07371  0  4.133493  0  0  0.078504  0.063091  0  4.121243  0
C  C33  1  0.03021327  0.32564013  0.15740559  1  0  0.11307  0  3.804956  0  0  0.067939  0  4.125996  0  0  0.074012  0  4.133682  0  0  0.078694  0.063418  0  4.12138  0
C  C34  1  0.71446826  0.60081714  0.88046160  1  0  0.164086  0  3.802861  0  0  0.121454  0  4.123186  0  0  0.132489  0  4.127724  0  0  0.093545  0.114074  0  4.120453  0
C  C35  1  0.21444810  0.39918432  0.11954555  1  0  0.163874  0  3.803699  0  0  0.121109  0  4.124097  0  0  0.132102  0  4.128717  0  0  0.093358  0.113728  0  4.121361  0
C  C36  1  0.89944737  0.53041035  0.83452535  1  0  0.108459  0  3.819072  0  0  0.063225  0  4.144389  0  0  0.069828  0  4.150648  0  0  0.077599  0.058307  0  4.140692  0
C  C37  1  0.39943062  0.46959277  0.16548459  1  0  0.10828  0  3.819478  0  0  0.063181  0  4.144621  0  0  0.06978  0  4.150877  0  0  0.07756  0.05826  0  4.140936  0
C  C38  1  0.89623691  0.53226579  0.75165223  1  0  0.235417  0  3.770554  0  0  0.193052  0  4.084532  0  0  0.204758  0  4.091679  0  0  0.099068  0.185018  0  4.080189  0
C  C39  1  0.39620252  0.46774384  0.24835746  1  0  0.235469  0  3.770987  0  0  0.193135  0  4.084908  0  0  0.204844  0  4.092049  0  0  0.09904  0.185047  0  4.080529  0
O  O40  1  0.93950943  0.75025760  0.36532797  1  0  -0.658517  0  1.955311  0  0  -0.614076  0  2.185875  0  0  -0.637062  0  2.174132  0  0  -0.349827  -0.597604  0  2.193359  0
O  O41  1  0.43952483  0.24975199  0.63467583  1  0  -0.658451  0  1.954823  0  0  -0.614051  0  2.185428  0  0  -0.637019  0  2.173684  0  0  -0.349849  -0.597606  0  2.192937  0
O  O42  1  0.90960529  0.99359250  0.38904216  1  0  -0.704597  0  1.98784  0  0  -0.650787  0  2.21817  0  0  -0.674613  0  2.204277  0  0  -0.373387  -0.633576  0  2.226872  0
O  O43  1  0.40960995  0.00641724  0.61095505  1  0  -0.704511  0  1.988175  0  0  -0.650697  0  2.218463  0  0  -0.674529  0  2.204627  0  0  -0.373345  -0.633492  0  2.227152  0
O  O44  1  0.90550161  0.60057342  0.58345809  1  0  -0.770358  0  1.946964  0  0  -0.736423  0  2.198521  0  0  -0.756575  0  2.181529  0  0  -0.466102  -0.722516  0  2.211281  0
O  O45  1  0.40551726  0.39942643  0.41655170  1  0  -0.770585  0  1.946518  0  0  -0.736634  0  2.198027  0  0  -0.756794  0  2.181036  0  0  -0.466252  -0.72273  0  2.210813  0
O  O46  1  0.49325131  0.58822423  0.58809701  1  0  -0.748004  0  1.952259  0  0  -0.714642  0  2.20304  0  0  -0.734964  0  2.187157  0  0  -0.448232  -0.700199  0  2.214465  0
O  O47  1  0.99326170  0.41178738  0.41190699  1  0  -0.747843  0  1.952832  0  0  -0.714513  0  2.203654  0  0  -0.734827  0  2.187765  0  0  -0.44808  -0.700064  0  2.215064  0
O  O48  1  0.36980902  0.76569018  0.44816104  1  0  -0.912639  0  1.770461  0  0  -0.870608  0  1.936455  0  0  -0.886268  0  1.904332  0  0  -0.693658  -0.859332  0  1.95983  0
O  O49  1  0.86982424  0.23430878  0.55183970  1  0  -0.912604  0  1.770552  0  0  -0.870533  0  1.936648  0  0  -0.886193  0  1.904522  0  0  -0.693625  -0.859256  0  1.96002  0
O  O50  1  0.37812846  0.06658963  0.45568668  1  0  -0.876344  0  1.858746  0  0  -0.831949  0  2.028695  0  0  -0.849804  0  1.997694  0  0  -0.635178  -0.818485  0  2.05054  0
O  O51  1  0.87812211  0.93340615  0.54430498  1  0  -0.876286  0  1.85872  0  0  -0.831832  0  2.028686  0  0  -0.849676  0  1.997679  0  0  -0.63516  -0.818369  0  2.050524  0
F  F52  1  0.47614021  0.03105611  0.28886615  1  0  -0.173412  0  1.246423  0  0  -0.112923  0  1.410049  0  0  -0.126682  0  1.405646  0  0  -0.079555  -0.106711  0  1.416756  0
F  F53  1  0.97612398  0.96892755  0.71111850  1  0  -0.173114  0  1.246508  0  0  -0.112717  0  1.410187  0  0  -0.126566  0  1.405855  0  0  -0.079374  -0.106511  0  1.416892  0
F  F54  1  0.37150814  0.04858456  0.13362359  1  0  -0.146137  0  1.27968  0  0  -0.099246  0  1.454771  0  0  -0.108263  0  1.446162  0  0  -0.082853  -0.092505  0  1.460362  0
F  F55  1  0.87144195  0.95140165  0.86635208  1  0  -0.14637  0  1.279501  0  0  -0.099348  0  1.454579  0  0  -0.108273  0  1.445961  0  0  -0.082896  -0.092614  0  1.460163  0
F  F56  1  0.66720067  0.91602966  0.01679248  1  0  -0.131064  0  1.275769  0  0  -0.08741  0  1.447867  0  0  -0.096385  0  1.437568  0  0  -0.075835  -0.081927  0  1.455518  0
F  F57  1  0.16708462  0.08396564  0.98319402  1  0  -0.131085  0  1.276053  0  0  -0.087309  0  1.448099  0  0  -0.094681  0  1.436728  0  0  -0.075803  -0.081824  0  1.455754  0
F  F58  1  0.08086146  0.76739290  0.05896996  1  0  -0.131178  0  1.242956  0  0  -0.089031  0  1.407399  0  0  -0.09587  0  1.396783  0  0  -0.083617  -0.084066  0  1.414657  0
F  F59  1  0.58078267  0.23261867  0.94103808  1  0  -0.131028  0  1.242785  0  0  -0.088846  0  1.407179  0  0  -0.095727  0  1.396646  0  0  -0.083541  -0.083877  0  1.414436  0
F  F60  1  0.18768758  0.74986512  0.21465497  1  0  -0.16829  0  1.280264  0  0  -0.110404  0  1.448412  0  0  -0.120855  0  1.44052  0  0  -0.079944  -0.102802  0  1.453668  0
F  F61  1  0.68762377  0.25016239  0.78535826  1  0  -0.16825  0  1.280095  0  0  -0.110356  0  1.448175  0  0  -0.120807  0  1.440274  0  0  -0.079907  -0.102754  0  1.453432  0
F  F62  1  0.34662933  0.74747437  0.72688029  1  0  -0.192342  0  1.284108  0  0  -0.140398  0  1.464313  0  0  -0.149157  0  1.454174  0  0  -0.092218  -0.134007  0  1.471302  0
F  F63  1  0.84660319  0.25252674  0.27312767  1  0  -0.192355  0  1.283977  0  0  -0.140394  0  1.46423  0  0  -0.149166  0  1.454087  0  0  -0.092268  -0.134006  0  1.471236  0
F  F64  1  0.35256245  0.74525211  0.88644946  1  0  -0.138822  0  1.25941  0  0  -0.091873  0  1.427272  0  0  -0.100103  0  1.41837  0  0  -0.082066  -0.08592  0  1.433404  0
F  F65  1  0.85253485  0.25473599  0.11355546  1  0  -0.138853  0  1.259233  0  0  -0.091916  0  1.427088  0  0  -0.100196  0  1.418296  0  0  -0.08204  -0.085962  0  1.433221  0
F  F66  1  0.71197826  0.59640661  0.96003451  1  0  -0.124046  0  1.257269  0  0  -0.082021  0  1.423659  0  0  -0.090126  0  1.412154  0  0  -0.073945  -0.076852  0  1.431842  0
F  F67  1  0.21195733  0.40357749  0.03997471  1  0  -0.123978  0  1.257513  0  0  -0.081894  0  1.423918  0  0  -0.090026  0  1.412511  0  0  -0.073895  -0.076725  0  1.4321  0
F  F68  1  0.07574414  0.45624602  0.87010711  1  0  -0.139416  0  1.258164  0  0  -0.094973  0  1.428881  0  0  -0.103495  0  1.42014  0  0  -0.08296  -0.08883  0  1.434951  0
F  F69  1  0.57572861  0.54374171  0.12989968  1  0  -0.139256  0  1.258342  0  0  -0.094853  0  1.428996  0  0  -0.103375  0  1.420257  0  0  -0.082863  -0.088715  0  1.435066  0
F  F70  1  0.07504950  0.45543058  0.71085496  1  0  -0.174191  0  1.273813  0  0  -0.119438  0  1.448546  0  0  -0.128165  0  1.438772  0  0  -0.078171  -0.11325  0  1.455471  0
F  F71  1  0.57500411  0.54458210  0.28915194  1  0  -0.174092  0  1.27392  0  0  -0.119426  0  1.448701  0  0  -0.128154  0  1.438924  0  0  -0.078116  -0.113243  0  1.455637  0
