# generated using pymatgen
data_CdH24C19N6O5
_symmetry_space_group_name_H-M   'P 1'
_cell_length_a   10.32064875
_cell_length_b   11.22844698
_cell_length_c   11.86387360
_cell_angle_alpha   70.21274566
_cell_angle_beta   65.24213248
_cell_angle_gamma   68.00815310
_symmetry_Int_Tables_number   1
_chemical_formula_structural   CdH24C19N6O5
_chemical_formula_sum   'Cd2 H48 C38 N12 O10'
_cell_volume   1130.35669635
_cell_formula_units_Z   2
loop_
 _symmetry_equiv_pos_site_id
 _symmetry_equiv_pos_as_xyz
  1  'x, y, z'
loop_
 _atom_site_type_symbol
 _atom_site_label
 _atom_site_symmetry_multiplicity
 _atom_site_fract_x
 _atom_site_fract_y
 _atom_site_fract_z
 _atom_site_occupancy
 _atom_site_hle17_bader_spin_density
 _atom_site_hle17_ddec_charge
 _atom_site_hle17_ddec_spin_density
 _atom_site_hle17_ddec_sum_bond_order
 _atom_site_hle17_magmom
 _atom_site_hse06_10hf_bader_spin_density
 _atom_site_hse06_10hf_ddec_charge
 _atom_site_hse06_10hf_ddec_spin_density
 _atom_site_hse06_10hf_ddec_sum_bond_order
 _atom_site_hse06_10hf_magmom
 _atom_site_hse06_bader_spin_density
 _atom_site_hse06_ddec_charge
 _atom_site_hse06_ddec_spin_density
 _atom_site_hse06_ddec_sum_bond_order
 _atom_site_hse06_magmom
 _atom_site_pbe_bader_spin_density
 _atom_site_pbe_cm5_charge
 _atom_site_pbe_ddec_charge
 _atom_site_pbe_ddec_spin_density
 _atom_site_pbe_ddec_sum_bond_order
 _atom_site_pbe_magmom
Cd  Cd0  1  0.56730878  0.18622092  0.07820744  1  0  1.138488  0  1.736933  0  0  0.953611  0  2.19222  0  0  1.008985  0  2.139  0  0  0.769522  0.911195  0  2.231439  0
Cd  Cd1  1  0.43269207  0.81378026  0.92179267  1  0  1.138436  0  1.737015  0  0  0.953552  0  2.192313  0  0  1.008925  0  2.139093  0  0  0.769506  0.911134  0  2.231532  0
H  H2  1  0.82656753  0.99391316  0.98773196  1  0  0.436338  0  0.818992  0  0  0.414982  0  0.879888  0  0  0.424402  0  0.865995  0  0  0.314452  0.408079  0  0.888524  0
H  H3  1  0.17343404  0.00609289  0.01225621  1  0  0.436306  0  0.819021  0  0  0.414973  0  0.879866  0  0  0.42439  0  0.865998  0  0  0.314493  0.408072  0  0.888504  0
H  H4  1  0.71785877  0.92778935  0.97535098  1  0  0.439764  0  0.863487  0  0  0.404212  0  0.933887  0  0  0.416704  0  0.915607  0  0  0.28257  0.39521  0  0.947022  0
H  H5  1  0.28214153  0.07221378  0.02464281  1  0  0.439719  0  0.863558  0  0  0.404177  0  0.933941  0  0  0.416671  0  0.915659  0  0  0.282568  0.395176  0  0.947075  0
H  H6  1  0.06390974  0.18000240  0.08555488  1  0  0.084335  0  0.998151  0  0  0.09304  0  1.068294  0  0  0.09688  0  1.064106  0  0  0.100166  0.090192  0  1.071658  0
H  H7  1  0.93609437  0.81999874  0.91443649  1  0  0.084302  0  0.998131  0  0  0.093003  0  1.068289  0  0  0.096844  0  1.064102  0  0  0.100137  0.090153  0  1.071653  0
H  H8  1  0.67778074  0.49871012  0.18004446  1  0  0.105136  0  0.956159  0  0  0.112744  0  1.02126  0  0  0.116008  0  1.019632  0  0  0.102849  0.110414  0  1.022363  0
H  H9  1  0.32221527  0.50128226  0.81996698  1  0  0.105122  0  0.956183  0  0  0.112755  0  1.021232  0  0  0.116008  0  1.019621  0  0  0.102874  0.110419  0  1.022354  0
H  H10  1  0.09196406  0.50284164  0.18377978  1  0  0.099399  0  0.954025  0  0  0.109536  0  1.017196  0  0  0.112991  0  1.014743  0  0  0.102555  0.107067  0  1.018884  0
H  H11  1  0.90803781  0.49715266  0.81622219  1  0  0.099379  0  0.953954  0  0  0.109515  0  1.017136  0  0  0.112968  0  1.014686  0  0  0.102549  0.107046  0  1.018826  0
H  H12  1  0.87578656  0.67865072  0.24644888  1  0  0.10277  0  0.944245  0  0  0.126018  0  1.001157  0  0  0.127759  0  1.000337  0  0  0.088936  0.124882  0  1.001523  0
H  H13  1  0.12421228  0.32134654  0.75355407  1  0  0.102735  0  0.944316  0  0  0.12599  0  1.001223  0  0  0.127731  0  1.000404  0  0  0.088954  0.124854  0  1.001593  0
H  H14  1  0.69896603  0.64660205  0.30640543  1  0  0.107223  0  0.962019  0  0  0.125819  0  1.02901  0  0  0.127103  0  1.02936  0  0  0.090072  0.125009  0  1.028655  0
H  H15  1  0.30103280  0.35339521  0.69359752  1  0  0.107188  0  0.961976  0  0  0.125756  0  1.029014  0  0  0.127033  0  1.02937  0  0  0.090057  0.124947  0  1.028656  0
H  H16  1  0.77007437  0.72359993  0.14547736  1  0  0.114543  0  0.961321  0  0  0.134521  0  1.027213  0  0  0.135407  0  1.027852  0  0  0.092443  0.133869  0  1.026743  0
H  H17  1  0.22992476  0.27639634  0.85452580  1  0  0.114605  0  0.961396  0  0  0.13458  0  1.027278  0  0  0.135463  0  1.027921  0  0  0.092481  0.133929  0  1.026806  0
H  H18  1  0.59741208  0.16410218  0.77918455  1  0  0.096537  0  0.917378  0  0  0.110294  0  0.970715  0  0  0.111948  0  0.969434  0  0  0.136963  0.109015  0  0.971708  0
H  H19  1  0.40258252  0.83590197  0.22081855  1  0  0.096509  0  0.917369  0  0  0.110272  0  0.970694  0  0  0.111929  0  0.969412  0  0  0.136929  0.109001  0  0.971679  0
H  H20  1  0.62132514  0.48596867  0.86920796  1  0  0.134677  0  0.926746  0  0  0.142838  0  0.989139  0  0  0.146158  0  0.98503  0  0  0.148156  0.140062  0  0.992751  0
H  H21  1  0.37866935  0.51403940  0.13079138  1  0  0.134727  0  0.92672  0  0  0.142787  0  0.989235  0  0  0.146104  0  0.985127  0  0  0.148158  0.140012  0  0.992838  0
H  H22  1  0.55284823  0.65749041  0.64980665  1  0  0.093049  0  0.930832  0  0  0.103056  0  1.002755  0  0  0.104341  0  1.001809  0  0  0.112379  0.10199  0  1.003722  0
H  H23  1  0.44715250  0.34251470  0.35019140  1  0  0.092997  0  0.930812  0  0  0.103026  0  1.002757  0  0  0.104311  0  1.00181  0  0  0.112368  0.101955  0  1.003722  0
H  H24  1  0.62000785  0.57327320  0.52524117  1  0  0.087727  0  0.922356  0  0  0.101092  0  0.988512  0  0  0.102919  0  0.986332  0  0  0.116716  0.099664  0  0.990179  0
H  H25  1  0.37999425  0.42673093  0.47475671  1  0  0.087698  0  0.922315  0  0  0.101077  0  0.988484  0  0  0.102905  0  0.986301  0  0  0.116699  0.099645  0  0.990149  0
H  H26  1  0.79644289  0.68961527  0.49254707  1  0  0.063192  0  0.938801  0  0  0.083306  0  1.000153  0  0  0.08371  0  1.00087  0  0  0.089628  0.08289  0  0.999817  0
H  H27  1  0.20356145  0.31038493  0.50745294  1  0  0.063221  0  0.938746  0  0  0.08334  0  1.00009  0  0  0.083736  0  1.000816  0  0  0.089635  0.082922  0  0.999758  0
H  H28  1  0.80106128  0.61891192  0.64940485  1  0  0.073066  0  0.963853  0  0  0.087706  0  1.033169  0  0  0.0888  0  1.03335  0  0  0.088997  0.0868  0  1.033093  0
H  H29  1  0.19893956  0.38108926  0.35059611  1  0  0.073078  0  0.963892  0  0  0.087719  0  1.033195  0  0  0.088821  0  1.033369  0  0  0.089012  0.086828  0  1.033106  0
H  H30  1  0.91661400  0.46349798  0.44061591  1  0  0.064721  0  0.939246  0  0  0.08668  0  0.996254  0  0  0.086623  0  0.998278  0  0  0.088411  0.086648  0  0.994908  0
H  H31  1  0.08338503  0.53650221  0.55938265  1  0  0.064712  0  0.939311  0  0  0.086686  0  0.996306  0  0  0.086629  0  0.998328  0  0  0.08842  0.086654  0  0.994958  0
H  H32  1  0.92184925  0.39582581  0.59661176  1  0  0.055313  0  0.934016  0  0  0.073733  0  0.994008  0  0  0.07438  0  0.99459  0  0  0.08427  0.07311  0  0.993939  0
H  H33  1  0.07814899  0.60417341  0.40339077  1  0  0.055341  0  0.93398  0  0  0.07375  0  0.993991  0  0  0.074386  0  0.994584  0  0  0.084276  0.073127  0  0.993922  0
H  H34  1  0.27380496  0.14794203  0.36969924  1  0  0.108889  0  0.931353  0  0  0.120697  0  0.992557  0  0  0.122976  0  0.989851  0  0  0.145795  0.118974  0  0.994463  0
H  H35  1  0.72619663  0.85206015  0.63030282  1  0  0.108919  0  0.931321  0  0  0.120707  0  0.992548  0  0  0.12299  0  0.989832  0  0  0.145798  0.118979  0  0.994463  0
H  H36  1  0.69859075  0.88832708  0.26820305  1  0  0.094977  0  0.941038  0  0  0.107217  0  0.999601  0  0  0.109018  0  0.99746  0  0  0.13831  0.105839  0  1.00105  0
H  H37  1  0.30140568  0.11167115  0.73179624  1  0  0.094993  0  0.941017  0  0  0.107231  0  0.999585  0  0  0.109034  0  0.99744  0  0  0.138298  0.105854  0  1.001034  0
H  H38  1  0.30169140  0.85021534  0.64613895  1  0  0.095811  0  0.924358  0  0  0.109676  0  0.989972  0  0  0.110454  0  0.989733  0  0  0.1198  0.109087  0  0.990038  0
H  H39  1  0.69830823  0.14978288  0.35386003  1  0  0.095778  0  0.924358  0  0  0.109637  0  0.989991  0  0  0.11042  0  0.989744  0  0  0.119792  0.109055  0  0.990061  0
H  H40  1  0.18161914  0.00797907  0.61153796  1  0  0.071815  0  0.919722  0  0  0.089436  0  0.980499  0  0  0.089862  0  0.980207  0  0  0.112083  0.08906  0  0.980755  0
H  H41  1  0.81838047  0.99201917  0.38846355  1  0  0.071786  0  0.919722  0  0  0.089412  0  0.980502  0  0  0.089837  0  0.980211  0  0  0.112085  0.08904  0  0.98076  0
H  H42  1  0.08888784  0.81334244  0.64324317  1  0  0.076094  0  0.963458  0  0  0.095178  0  1.022636  0  0  0.094378  0  1.026256  0  0  0.091277  0.095599  0  1.020195  0
H  H43  1  0.91111179  0.18665579  0.35675496  1  0  0.07614  0  0.963432  0  0  0.095179  0  1.022663  0  0  0.094366  0  1.026297  0  0  0.091273  0.095599  0  1.020223  0
H  H44  1  0.23726429  0.77070816  0.50632689  1  0  0.08433  0  0.95849  0  0  0.094008  0  1.030433  0  0  0.096135  0  1.029218  0  0  0.092311  0.092357  0  1.031449  0
H  H45  1  0.76273960  0.22929006  0.49367140  1  0  0.08433  0  0.958487  0  0  0.094009  0  1.030429  0  0  0.09614  0  1.029209  0  0  0.092304  0.092357  0  1.031446  0
H  H46  1  0.13344426  0.99414455  0.37577837  1  0  0.054102  0  0.943786  0  0  0.071373  0  1.008249  0  0  0.07189  0  1.008872  0  0  0.084447  0.070912  0  1.007923  0
H  H47  1  0.86656391  0.00585366  0.62421754  1  0  0.05407  0  0.943908  0  0  0.071374  0  1.008327  0  0  0.071891  0  1.008949  0  0  0.084452  0.070922  0  1.00799  0
H  H48  1  0.02241652  0.88543694  0.44383705  1  0  0.057319  0  0.935811  0  0  0.078981  0  0.991404  0  0  0.079558  0  0.991885  0  0  0.086515  0.078303  0  0.991456  0
H  H49  1  0.97758926  0.11456223  0.55615520  1  0  0.05734  0  0.935732  0  0  0.078999  0  0.991318  0  0  0.079575  0  0.991799  0  0  0.086504  0.07832  0  0.991376  0
C  C50  1  0.25715519  0.27281262  0.11536922  1  0  0.62949  0  3.933898  0  0  0.579055  0  4.225986  0  0  0.612961  0  4.220398  0  0  0.193872  0.555927  0  4.228907  0
C  C51  1  0.74284171  0.72718758  0.88463010  1  0  0.629438  0  3.934017  0  0  0.578986  0  4.22612  0  0  0.612892  0  4.220534  0  0  0.193819  0.555851  0  4.229034  0
C  C52  1  0.09560497  0.33401518  0.13452107  1  0  -0.076886  0  3.807081  0  0  -0.051554  0  4.046362  0  0  -0.060726  0  4.070074  0  0  -0.027  -0.046035  0  4.031219  0
C  C53  1  0.90439815  0.66598206  0.86547865  1  0  -0.076982  0  3.806979  0  0  -0.051631  0  4.046249  0  0  -0.060807  0  4.06997  0  0  -0.026954  -0.046085  0  4.031068  0
C  C54  1  0.01339739  0.27359703  0.11452283  1  0  -0.08368  0  3.745902  0  0  -0.120624  0  3.993192  0  0  -0.118215  0  4.012047  0  0  -0.085852  -0.122358  0  3.981837  0
C  C55  1  0.98660300  0.72640218  0.88547724  1  0  -0.083593  0  3.7457  0  0  -0.120575  0  3.99297  0  0  -0.118168  0  4.01183  0  0  -0.08587  -0.122315  0  3.981605  0
C  C56  1  0.86317377  0.33313098  0.13105291  1  0  -0.059131  0  3.780637  0  0  -0.032334  0  4.012758  0  0  -0.041142  0  4.035721  0  0  -0.021424  -0.027033  0  3.998028  0
C  C57  1  0.13682992  0.66686431  0.86895061  1  0  -0.059211  0  3.780517  0  0  -0.032317  0  4.012508  0  0  -0.041124  0  4.035466  0  0  -0.021383  -0.027017  0  3.997776  0
C  C58  1  0.79490731  0.45351172  0.16859341  1  0  -0.099563  0  3.645786  0  0  -0.131261  0  3.885615  0  0  -0.129598  0  3.903539  0  0  -0.079061  -0.131186  0  3.872836  0
C  C59  1  0.20509299  0.54648063  0.83141396  1  0  -0.099634  0  3.645761  0  0  -0.131338  0  3.885581  0  0  -0.129669  0  3.903505  0  0  -0.079156  -0.131266  0  3.872799  0
C  C60  1  0.87523554  0.51642132  0.18868875  1  0  0.137635  0  3.765359  0  0  0.167741  0  4.003989  0  0  0.166129  0  4.029064  0  0  -0.007313  0.168546  0  3.986605  0
C  C61  1  0.12476204  0.48357300  0.81131728  1  0  0.137716  0  3.765318  0  0  0.16776  0  4.004016  0  0  0.166152  0  4.029085  0  0  -0.007289  0.168567  0  3.986631  0
C  C62  1  0.02557410  0.45537440  0.17125036  1  0  -0.118907  0  3.696648  0  0  -0.153183  0  3.94413  0  0  -0.152354  0  3.96368  0  0  -0.081945  -0.152627  0  3.930349  0
C  C63  1  0.97442717  0.54462187  0.82875203  1  0  -0.118832  0  3.696507  0  0  -0.153089  0  3.944009  0  0  -0.15226  0  3.96356  0  0  -0.081938  -0.152543  0  3.930221  0
C  C64  1  0.77663468  0.26722455  0.10831349  1  0  0.617942  0  3.975117  0  0  0.573756  0  4.262712  0  0  0.60735  0  4.257446  0  0  0.181663  0.550935  0  4.265181  0
C  C65  1  0.22336326  0.73277566  0.89168968  1  0  0.618079  0  3.975117  0  0  0.573873  0  4.262691  0  0  0.607466  0  4.257421  0  0  0.181724  0.55105  0  4.265159  0
C  C66  1  0.80143016  0.64793582  0.22425763  1  0  -0.341746  0  3.737104  0  0  -0.423385  0  3.972218  0  0  -0.426024  0  3.983386  0  0  -0.242799  -0.421386  0  3.964293  0
C  C67  1  0.19856958  0.35205849  0.77574510  1  0  -0.341741  0  3.737138  0  0  -0.423358  0  3.972292  0  0  -0.425989  0  3.983472  0  0  -0.24284  -0.421358  0  3.964363  0
C  C68  1  0.60702174  0.25989405  0.77111919  1  0  0.195811  0  3.739668  0  0  0.143058  0  4.030949  0  0  0.154303  0  4.04491  0  0  0.141881  0.135616  0  4.0214  0
C  C69  1  0.39297744  0.74010910  0.22888089  1  0  0.195833  0  3.739726  0  0  0.143089  0  4.031002  0  0  0.15433  0  4.044967  0  0  0.141913  0.135643  0  4.021452  0
C  C70  1  0.61859614  0.42076551  0.82073352  1  0  0.188063  0  3.590869  0  0  0.110187  0  3.853496  0  0  0.125115  0  3.863494  0  0  0.168429  0.10025  0  3.847201  0
C  C71  1  0.38140063  0.57923862  0.17926459  1  0  0.187997  0  3.590776  0  0  0.110192  0  3.853418  0  0  0.125125  0  3.863414  0  0  0.168398  0.100258  0  3.847121  0
C  C72  1  0.64126649  0.57784040  0.60656294  1  0  -0.017961  0  3.615122  0  0  -0.096881  0  3.880063  0  0  -0.092904  0  3.889604  0  0  -0.049788  -0.099276  0  3.873201  0
C  C73  1  0.35873239  0.42216374  0.39343778  1  0  -0.017792  0  3.614916  0  0  -0.096785  0  3.879926  0  0  -0.092808  0  3.889465  0  0  -0.049752  -0.099165  0  3.873059  0
C  C74  1  0.79355784  0.59916272  0.56779232  1  0  -0.134569  0  3.695128  0  0  -0.178813  0  3.964798  0  0  -0.180944  0  3.980249  0  0  -0.166631  -0.176917  0  3.953898  0
C  C75  1  0.20644408  0.40083846  0.43220657  1  0  -0.134653  0  3.695137  0  0  -0.178879  0  3.964848  0  0  -0.181011  0  3.980292  0  0  -0.166649  -0.177002  0  3.953944  0
C  C76  1  0.92548330  0.48571456  0.52044152  1  0  -0.105384  0  3.694107  0  0  -0.14449  0  3.958131  0  0  -0.145652  0  3.97396  0  0  -0.169579  -0.143559  0  3.947158  0
C  C77  1  0.07451602  0.51428466  0.47955978  1  0  -0.105378  0  3.694125  0  0  -0.144512  0  3.958169  0  0  -0.145666  0  3.973999  0  0  -0.16958  -0.143581  0  3.947201  0
C  C78  1  0.36915458  0.06300751  0.36936201  1  0  0.167065  0  3.655461  0  0  0.087681  0  3.924257  0  0  0.102239  0  3.936035  0  0  0.161902  0.078244  0  3.916113  0
C  C79  1  0.63084656  0.93699269  0.63063916  1  0  0.16701  0  3.655422  0  0  0.087648  0  3.924222  0  0  0.102206  0  3.936001  0  0  0.161884  0.078209  0  3.916076  0
C  C80  1  0.58395551  0.92924845  0.32150062  1  0  0.193024  0  3.732251  0  0  0.138641  0  4.025265  0  0  0.149588  0  4.039465  0  0  0.144296  0.131632  0  4.015196  0
C  C81  1  0.41604610  0.07075371  0.67849974  1  0  0.192952  0  3.732288  0  0  0.138569  0  4.025292  0  0  0.149519  0  4.039492  0  0  0.14428  0.131562  0  4.01522  0
C  C82  1  0.25042905  0.91809395  0.57548851  1  0  -0.006414  0  3.608471  0  0  -0.08393  0  3.872279  0  0  -0.079674  0  3.882949  0  0  -0.045728  -0.086473  0  3.864689  0
C  C83  1  0.74957104  0.08190625  0.42451051  1  0  -0.006306  0  3.608334  0  0  -0.083836  0  3.872187  0  0  -0.079578  0  3.882845  0  0  -0.045716  -0.0864  0  3.864621  0
C  C84  1  0.16043495  0.85456729  0.54991521  1  0  -0.142932  0  3.672136  0  0  -0.181435  0  3.930845  0  0  -0.183871  0  3.945941  0  0  -0.16991  -0.179467  0  3.920347  0
C  C85  1  0.83956894  0.14543093  0.45008392  1  0  -0.14298  0  3.672156  0  0  -0.181462  0  3.930851  0  0  -0.183894  0  3.945949  0  0  -0.169889  -0.179491  0  3.92036  0
C  C86  1  0.06476801  0.94692888  0.46803273  1  0  -0.105982  0  3.701138  0  0  -0.144607  0  3.963384  0  0  -0.145675  0  3.979265  0  0  -0.170214  -0.143649  0  3.952358  0
C  C87  1  0.93523805  0.05306932  0.53196226  1  0  -0.105992  0  3.701226  0  0  -0.144593  0  3.963427  0  0  -0.145658  0  3.979299  0  0  -0.170202  -0.143643  0  3.952401  0
N  N88  1  0.60669422  0.29737565  0.86926457  1  0  -0.426752  0  3.226237  0  0  -0.353815  0  3.5225  0  0  -0.377332  0  3.536433  0  0  -0.352954  -0.337697  0  3.512846  0
N  N89  1  0.39330055  0.70263145  0.13073667  1  0  -0.426715  0  3.22624  0  0  -0.35377  0  3.522476  0  0  -0.377291  0  3.536411  0  0  -0.352931  -0.337655  0  3.512824  0
N  N90  1  0.62632056  0.45409210  0.69848921  1  0  0.048117  0  3.544038  0  0  0.173084  0  3.725548  0  0  0.163378  0  3.747491  0  0  -0.130204  0.17882  0  3.711998  0
N  N91  1  0.37367833  0.54591203  0.30151066  1  0  0.048131  0  3.543973  0  0  0.173107  0  3.725506  0  0  0.16341  0  3.747433  0  0  -0.130182  0.178836  0  3.711954  0
N  N92  1  0.61911408  0.35253068  0.66485608  1  0  -0.282833  0  2.858893  0  0  -0.28436  0  3.125306  0  0  -0.292032  0  3.137631  0  0  -0.22467  -0.279286  0  3.11735  0
N  N93  1  0.38088588  0.64747345  0.33514257  1  0  -0.28288  0  2.858898  0  0  -0.284409  0  3.125326  0  0  -0.292084  0  3.137651  0  0  -0.224691  -0.279337  0  3.117378  0
N  N94  1  0.50226397  0.05073724  0.27888232  1  0  -0.405101  0  3.208513  0  0  -0.335001  0  3.50446  0  0  -0.357216  0  3.518343  0  0  -0.347892  -0.319919  0  3.49457  0
N  N95  1  0.49773368  0.94926395  0.72111895  1  0  -0.405081  0  3.208492  0  0  -0.334979  0  3.50443  0  0  -0.357194  0  3.518314  0  0  -0.347906  -0.319896  0  3.494537  0
N  N96  1  0.50890635  0.86614582  0.43277549  1  0  -0.272013  0  2.841785  0  0  -0.271293  0  3.112829  0  0  -0.27935  0  3.127462  0  0  -0.219114  -0.265868  0  3.103115  0
N  N97  1  0.49109253  0.13385142  0.56722239  1  0  -0.272012  0  2.841829  0  0  -0.271274  0  3.112864  0  0  -0.279332  0  3.1275  0  0  -0.219069  -0.26585  0  3.103148  0
N  N98  1  0.37181401  0.95324917  0.46189645  1  0  0.037439  0  3.559102  0  0  0.158384  0  3.749192  0  0  0.147225  0  3.774444  0  0  -0.133932  0.164791  0  3.733724  0
N  N99  1  0.62818424  0.04675005  0.53810439  1  0  0.037481  0  3.559091  0  0  0.158412  0  3.749192  0  0  0.147249  0  3.774448  0  0  -0.133935  0.164827  0  3.733719  0
O  O100  1  0.32328250  0.32856280  0.14372857  1  0  -0.637234  0  1.982329  0  0  -0.576367  0  2.225367  0  0  -0.603858  0  2.216265  0  0  -0.32753  -0.556116  0  2.232548  0
O  O101  1  0.67671651  0.67143740  0.85627252  1  0  -0.637223  0  1.982404  0  0  -0.576359  0  2.225447  0  0  -0.603848  0  2.216346  0  0  -0.327535  -0.556108  0  2.232627  0
O  O102  1  0.32541474  0.16714040  0.07250724  1  0  -0.665664  0  1.975775  0  0  -0.599084  0  2.202527  0  0  -0.627202  0  2.191892  0  0  -0.330305  -0.578424  0  2.208524  0
O  O103  1  0.67458625  0.83285684  0.92749156  1  0  -0.665603  0  1.975895  0  0  -0.599013  0  2.202649  0  0  -0.627136  0  2.192025  0  0  -0.330259  -0.578354  0  2.208647  0
O  O104  1  0.84074101  0.15945663  0.07196939  1  0  -0.652817  0  1.869417  0  0  -0.600628  0  2.080437  0  0  -0.625436  0  2.070355  0  0  -0.354421  -0.582445  0  2.086278  0
O  O105  1  0.15925495  0.84055041  0.92801796  1  0  -0.652885  0  1.869462  0  0  -0.600711  0  2.080498  0  0  -0.625518  0  2.070413  0  0  -0.354452  -0.58253  0  2.08634  0
O  O106  1  0.63761488  0.32575149  0.12912269  1  0  -0.663741  0  1.99214  0  0  -0.604343  0  2.246686  0  0  -0.633502  0  2.237031  0  0  -0.344284  -0.582786  0  2.253889  0
O  O107  1  0.36237807  0.67424386  0.87089310  1  0  -0.663747  0  1.992177  0  0  -0.604363  0  2.246743  0  0  -0.63352  0  2.237088  0  0  -0.34432  -0.582804  0  2.253946  0
O  O108  1  0.72532427  0.98806527  0.01769218  1  0  -0.854894  0  1.857325  0  0  -0.793945  0  2.060629  0  0  -0.814962  0  2.025199  0  0  -0.589111  -0.778464  0  2.083768  0
O  O109  1  0.27467834  0.01194080  0.98229898  1  0  -0.854827  0  1.857446  0  0  -0.793896  0  2.06076  0  0  -0.814912  0  2.025342  0  0  -0.589149  -0.778419  0  2.083901  0
