# generated using pymatgen
data_SrB2H28C24(N8O)2
_symmetry_space_group_name_H-M   'P 1'
_cell_length_a   9.38901167
_cell_length_b   9.88226575
_cell_length_c   10.43975018
_cell_angle_alpha   93.97448142
_cell_angle_beta   107.52539395
_cell_angle_gamma   118.53813537
_symmetry_Int_Tables_number   1
_chemical_formula_structural   SrB2H28C24(N8O)2
_chemical_formula_sum   'Sr1 B2 H28 C24 N16 O2'
_cell_volume   784.74677582
_cell_formula_units_Z   1
loop_
 _symmetry_equiv_pos_site_id
 _symmetry_equiv_pos_as_xyz
  1  'x, y, z'
loop_
 _atom_site_type_symbol
 _atom_site_label
 _atom_site_symmetry_multiplicity
 _atom_site_fract_x
 _atom_site_fract_y
 _atom_site_fract_z
 _atom_site_occupancy
 _atom_site_hle17_bader_spin_density
 _atom_site_hle17_ddec_charge
 _atom_site_hle17_ddec_spin_density
 _atom_site_hle17_ddec_sum_bond_order
 _atom_site_hle17_magmom
 _atom_site_hse06_10hf_bader_spin_density
 _atom_site_hse06_10hf_ddec_charge
 _atom_site_hse06_10hf_ddec_spin_density
 _atom_site_hse06_10hf_ddec_sum_bond_order
 _atom_site_hse06_10hf_magmom
 _atom_site_hse06_bader_spin_density
 _atom_site_hse06_ddec_charge
 _atom_site_hse06_ddec_spin_density
 _atom_site_hse06_ddec_sum_bond_order
 _atom_site_hse06_magmom
 _atom_site_pbe_bader_spin_density
 _atom_site_pbe_cm5_charge
 _atom_site_pbe_ddec_charge
 _atom_site_pbe_ddec_spin_density
 _atom_site_pbe_ddec_sum_bond_order
 _atom_site_pbe_magmom
Sr  Sr0  1  0.50000027  0.49999915  0.50000020  1  0  1.501361  0  1.203371  0  0  1.33618  0  1.572962  0  0  1.369882  0  1.536112  0  0  0.998626  1.311406  0  1.599965  0
B  B1  1  0.76435156  0.12448876  0.85482514  1  0  0.712746  0  3.010007  0  0  0.546894  0  3.319567  0  0  0.57031  0  3.317365  0  0  0.107806  0.530148  0  3.322831  0
B  B2  1  0.23564697  0.87551190  0.14517487  1  0  0.712746  0  3.009977  0  0  0.546972  0  3.319414  0  0  0.570415  0  3.317124  0  0  0.107857  0.530229  0  3.322675  0
H  H3  1  0.13186143  0.24783190  0.01798913  1  0  0.106273  0  0.976063  0  0  0.112616  0  1.043798  0  0  0.115125  0  1.043175  0  0  0.117091  0.110978  0  1.04429  0
H  H4  1  0.86813866  0.75216759  0.98201123  1  0  0.106301  0  0.976038  0  0  0.112643  0  1.043773  0  0  0.115152  0  1.043151  0  0  0.117098  0.111005  0  1.044265  0
H  H5  1  0.51773114  0.88385750  0.95308407  1  0  0.102665  0  0.964402  0  0  0.10964  0  1.031383  0  0  0.112471  0  1.030215  0  0  0.117278  0.107616  0  1.032195  0
H  H6  1  0.48226693  0.11613842  0.04691359  1  0  0.10265  0  0.964395  0  0  0.109603  0  1.031409  0  0  0.112429  0  1.030237  0  0  0.11726  0.107578  0  1.032225  0
H  H7  1  0.82134941  0.16620842  0.59855195  1  0  0.080801  0  0.949421  0  0  0.089513  0  1.014562  0  0  0.091718  0  1.0126  0  0  0.131994  0.088103  0  1.015514  0
H  H8  1  0.17865136  0.83379225  0.40144963  1  0  0.080811  0  0.949442  0  0  0.089519  0  1.014588  0  0  0.091722  0  1.012627  0  0  0.132004  0.088109  0  1.015539  0
H  H9  1  0.79901560  0.39357536  0.74355059  1  0  0.068501  0  0.983541  0  0  0.074454  0  1.057167  0  0  0.076743  0  1.054743  0  0  0.127526  0.072736  0  1.058927  0
H  H10  1  0.20098381  0.60642293  0.25644950  1  0  0.068484  0  0.983557  0  0  0.074444  0  1.057172  0  0  0.076733  0  1.054749  0  0  0.127529  0.072726  0  1.058933  0
H  H11  1  0.24852413  0.10322172  0.57023085  1  0  0.097373  0  0.963345  0  0  0.104653  0  1.028513  0  0  0.107573  0  1.026731  0  0  0.116179  0.102438  0  1.030004  0
H  H12  1  0.75147665  0.89677895  0.42976977  1  0  0.097392  0  0.963323  0  0  0.104676  0  1.028489  0  0  0.107596  0  1.026706  0  0  0.116181  0.10246  0  1.029978  0
H  H13  1  0.38230495  0.93896597  0.71551869  1  0  0.10576  0  0.982811  0  0  0.111708  0  1.050578  0  0  0.114462  0  1.049634  0  0  0.115052  0.109707  0  1.051334  0
H  H14  1  0.61769582  0.06103470  0.28448193  1  0  0.105781  0  0.982766  0  0  0.111702  0  1.050561  0  0  0.114455  0  1.049619  0  0  0.115063  0.109702  0  1.051314  0
H  H15  1  0.78937347  0.40859431  0.98418923  1  0  0.099979  0  0.971516  0  0  0.108321  0  1.036997  0  0  0.110849  0  1.036243  0  0  0.116508  0.106135  0  1.038457  0
H  H16  1  0.21062843  0.59140638  0.01581074  1  0  0.099973  0  0.971518  0  0  0.108314  0  1.037001  0  0  0.110841  0  1.036248  0  0  0.116504  0.106127  0  1.03846  0
H  H17  1  0.87485380  0.04969656  0.11763771  1  0  0.075626  0  0.961294  0  0  0.080263  0  1.036565  0  0  0.082258  0  1.034978  0  0  0.125323  0.078199  0  1.038726  0
H  H18  1  0.12513931  0.95030050  0.88236346  1  0  0.075584  0  0.961344  0  0  0.080239  0  1.036594  0  0  0.082235  0  1.035008  0  0  0.125291  0.078174  0  1.038754  0
H  H19  1  0.41396760  0.57673579  0.83300805  1  0  0.088373  0  0.983354  0  0  0.096659  0  1.048202  0  0  0.098933  0  1.047665  0  0  0.111981  0.094794  0  1.049139  0
H  H20  1  0.58603295  0.42326252  0.16698757  1  0  0.088363  0  0.983326  0  0  0.09666  0  1.048159  0  0  0.09894  0  1.047616  0  0  0.111974  0.094794  0  1.049095  0
H  H21  1  0.91504278  0.47694228  0.27125162  1  0  0.095483  0  0.965391  0  0  0.104493  0  1.025877  0  0  0.106886  0  1.024977  0  0  0.113423  0.102872  0  1.026616  0
H  H22  1  0.08495755  0.52305958  0.72874896  1  0  0.095471  0  0.965425  0  0  0.104492  0  1.025899  0  0  0.106888  0  1.024991  0  0  0.113426  0.102871  0  1.026638  0
H  H23  1  0.33478403  0.30919212  0.85933601  1  0  0.093712  0  0.961449  0  0  0.103452  0  1.021895  0  0  0.10575  0  1.021791  0  0  0.112846  0.102202  0  1.021625  0
H  H24  1  0.66521606  0.69080737  0.14066435  1  0  0.093712  0  0.961448  0  0  0.103453  0  1.021892  0  0  0.10575  0  1.021789  0  0  0.112843  0.102202  0  1.021622  0
H  H25  1  0.79454074  0.89561632  0.69657840  1  0  0.081541  0  0.95686  0  0  0.088893  0  1.026711  0  0  0.091423  0  1.023558  0  0  0.136531  0.087013  0  1.028928  0
H  H26  1  0.20546319  0.10438794  0.30342237  1  0  0.081505  0  0.956873  0  0  0.08887  0  1.026725  0  0  0.091399  0  1.023575  0  0  0.136524  0.086986  0  1.028947  0
H  H27  1  0.91942274  0.70017932  0.60719446  1  0  0.390226  0  0.933673  0  0  0.349091  0  1.0131  0  0  0.360688  0  0.996532  0  0  0.273121  0.340622  0  1.025195  0
H  H28  1  0.08057555  0.29981897  0.39280533  1  0  0.390244  0  0.933643  0  0  0.349109  0  1.013071  0  0  0.360705  0  0.996505  0  0  0.273122  0.34064  0  1.025166  0
H  H29  1  0.84696950  0.70160019  0.44546337  1  0  0.386737  0  0.93876  0  0  0.34511  0  1.019612  0  0  0.356591  0  1.003203  0  0  0.272671  0.336668  0  1.031643  0
H  H30  1  0.15303059  0.29839930  0.55453699  1  0  0.386757  0  0.938732  0  0  0.345135  0  1.019577  0  0  0.356615  0  1.003169  0  0  0.272681  0.336693  0  1.031608  0
C  C31  1  0.09787477  0.24027362  0.90775838  1  0  -0.032027  0  3.698379  0  0  -0.069676  0  3.957788  0  0  -0.067528  0  3.977324  0  0  -0.001862  -0.071606  0  3.946488  0
C  C32  1  0.90212532  0.75972586  0.09224293  1  0  -0.032082  0  3.698382  0  0  -0.069735  0  3.957796  0  0  -0.067586  0  3.977333  0  0  -0.001859  -0.071666  0  3.946496  0
C  C33  1  0.56007240  0.84088989  0.88266346  1  0  -0.035648  0  3.719586  0  0  -0.072842  0  3.97972  0  0  -0.071273  0  3.99909  0  0  2.7e-05  -0.073711  0  3.966252  0
C  C34  1  0.43992658  0.15910959  0.11733372  1  0  -0.03569  0  3.719615  0  0  -0.072867  0  3.97978  0  0  -0.071285  0  3.999134  0  0  2.7e-05  -0.073737  0  3.96631  0
C  C35  1  0.93554175  0.19866590  0.69015123  1  0  0.178721  0  3.718248  0  0  0.123482  0  3.987684  0  0  0.135504  0  4.00082  0  0  0.137638  0.116065  0  3.97748  0
C  C36  1  0.06445858  0.80133595  0.30985127  1  0  0.178688  0  3.718274  0  0  0.12345  0  3.987718  0  0  0.135476  0  4.000855  0  0  0.137621  0.116032  0  3.977512  0
C  C37  1  0.66626449  0.29288726  0.71421051  1  0  0.189481  0  3.731897  0  0  0.137144  0  3.995382  0  0  0.150464  0  4.00683  0  0  0.139039  0.128716  0  3.986999  0
C  C38  1  0.33373493  0.70711104  0.28578959  1  0  0.189521  0  3.73187  0  0  0.13719  0  3.995359  0  0  0.150508  0  4.006809  0  0  0.139056  0.128761  0  3.986975  0
C  C39  1  0.38390788  0.13926919  0.62659231  1  0  -0.007823  0  3.789306  0  0  -0.03715  0  4.058928  0  0  -0.036904  0  4.079713  0  0  -0.007908  -0.037371  0  4.04471  0
C  C40  1  0.61609154  0.86072910  0.37340875  1  0  -0.007885  0  3.789261  0  0  -0.037226  0  4.058902  0  0  -0.036979  0  4.079688  0  0  -0.007938  -0.037448  0  4.044684  0
C  C41  1  0.44891849  0.05695156  0.69926213  1  0  -0.031291  0  3.695978  0  0  -0.069803  0  3.951991  0  0  -0.067533  0  3.970789  0  0  -0.003991  -0.071197  0  3.939072  0
C  C42  1  0.55108092  0.94304673  0.30073892  1  0  -0.031338  0  3.695877  0  0  -0.069811  0  3.951917  0  0  -0.067544  0  3.970722  0  0  -0.004008  -0.071206  0  3.938996  0
C  C43  1  0.82691736  0.34526365  0.05446257  1  0  -0.031481  0  3.704262  0  0  -0.072147  0  3.966717  0  0  -0.070233  0  3.986069  0  0  -0.002582  -0.073283  0  3.95442  0
C  C44  1  0.17308521  0.65473823  0.94553862  1  0  -0.031483  0  3.704234  0  0  -0.072151  0  3.9667  0  0  -0.07024  0  3.986056  0  0  -0.002568  -0.073283  0  3.954402  0
C  C45  1  0.87066923  0.15782438  0.12277788  1  0  0.188147  0  3.703182  0  0  0.131837  0  3.973812  0  0  0.144768  0  3.985833  0  0  0.136308  0.123429  0  3.965673  0
C  C46  1  0.12933043  0.84217629  0.87722053  1  0  0.188122  0  3.703221  0  0  0.131797  0  3.973848  0  0  0.144724  0  3.985878  0  0  0.136327  0.123396  0  3.965706  0
C  C47  1  0.51020480  0.68885666  0.82270242  1  0  -0.002672  0  3.795459  0  0  -0.027942  0  4.054103  0  0  -0.026665  0  4.073701  0  0  -0.002804  -0.028837  0  4.040921  0
C  C48  1  0.48979574  0.31114165  0.17729511  1  0  -0.002654  0  3.795432  0  0  -0.027928  0  4.054069  0  0  -0.026659  0  4.073664  0  0  -0.002795  -0.028823  0  4.040886  0
C  C49  1  0.89095317  0.37839470  0.19715364  1  0  -0.019429  0  3.791882  0  0  -0.045941  0  4.057138  0  0  -0.045287  0  4.077089  0  0  -0.010762  -0.046446  0  4.044109  0
C  C50  1  0.10904760  0.62160598  0.80284699  1  0  -0.019444  0  3.791864  0  0  -0.045969  0  4.05712  0  0  -0.045313  0  4.077071  0  0  -0.010785  -0.046475  0  4.044093  0
C  C51  1  0.19740780  0.27120329  0.82770220  1  0  -0.025428  0  3.793341  0  0  -0.05382  0  4.059288  0  0  -0.053737  0  4.080031  0  0  -0.012176  -0.054012  0  4.046626  0
C  C52  1  0.80259118  0.72879619  0.17229786  1  0  -0.025443  0  3.793287  0  0  -0.053834  0  4.059231  0  0  -0.053752  0  4.079973  0  0  -0.01219  -0.054026  0  4.046567  0
C  C53  1  0.70572403  0.84923767  0.75058528  1  0  0.198421  0  3.714616  0  0  0.140381  0  3.986229  0  0  0.153724  0  3.998743  0  0  0.14456  0.131647  0  3.97713  0
C  C54  1  0.29427855  0.15076421  0.24941496  1  0  0.198461  0  3.714758  0  0  0.14042  0  3.986368  0  0  0.153759  0  3.998887  0  0  0.144576  0.131685  0  3.977268  0
N  N55  1  0.63013753  0.15560777  0.75501672  1  0  -0.326268  0  3.494764  0  0  -0.22402  0  3.722319  0  0  -0.242063  0  3.74351  0  0  -0.233122  -0.211819  0  3.707708  0
N  N56  1  0.36986145  0.84439170  0.24498333  1  0  -0.326278  0  3.49472  0  0  -0.224064  0  3.722274  0  0  -0.242113  0  3.743461  0  0  -0.233158  -0.211865  0  3.707662  0
N  N57  1  0.68548740  0.94346951  0.83616036  1  0  -0.331614  0  3.50673  0  0  -0.230418  0  3.73839  0  0  -0.248656  0  3.760018  0  0  -0.233828  -0.217922  0  3.723193  0
N  N58  1  0.31451450  0.05653118  0.16383961  1  0  -0.331558  0  3.506752  0  0  -0.230408  0  3.738424  0  0  -0.248644  0  3.760029  0  0  -0.233827  -0.21791  0  3.723218  0
N  N59  1  0.81285953  0.20318706  0.00695978  1  0  -0.333102  0  3.501667  0  0  -0.23155  0  3.733619  0  0  -0.249599  0  3.754785  0  0  -0.235584  -0.21903  0  3.718797  0
N  N60  1  0.18713833  0.79681241  0.99303902  1  0  -0.333031  0  3.501716  0  0  -0.231492  0  3.733637  0  0  -0.249544  0  3.754798  0  0  -0.235589  -0.218977  0  3.718815  0
N  N61  1  0.93019196  0.19430519  0.81925123  1  0  -0.335957  0  3.51529  0  0  -0.235502  0  3.74776  0  0  -0.254319  0  3.771177  0  0  -0.235594  -0.222504  0  3.731922  0
N  N62  1  0.06980881  0.80569549  0.18075035  1  0  -0.335958  0  3.515227  0  0  -0.235511  0  3.747664  0  0  -0.254334  0  3.771078  0  0  -0.235618  -0.222512  0  3.731822  0
N  N63  1  0.52140887  0.28744124  0.63602761  1  0  -0.455673  0  3.141149  0  0  -0.392218  0  3.411568  0  0  -0.408171  0  3.427277  0  0  -0.411219  -0.381228  0  3.400517  0
N  N64  1  0.47859123  0.71255824  0.36397276  1  0  -0.455622  0  3.14122  0  0  -0.392171  0  3.411649  0  0  -0.408125  0  3.427359  0  0  -0.411182  -0.381184  0  3.400601  0
N  N65  1  0.60248931  0.69496170  0.73985057  1  0  -0.461021  0  3.147  0  0  -0.397683  0  3.417991  0  0  -0.413534  0  3.432947  0  0  -0.418671  -0.38665  0  3.40763  0
N  N66  1  0.39751147  0.30503898  0.26014718  1  0  -0.461014  0  3.147029  0  0  -0.397677  0  3.418028  0  0  -0.413529  0  3.432989  0  0  -0.418665  -0.386643  0  3.407664  0
N  N67  1  0.91820333  0.26029141  0.23908242  1  0  -0.378525  0  3.128589  0  0  -0.316211  0  3.381107  0  0  -0.331018  0  3.394693  0  0  -0.337781  -0.305868  0  3.371779  0
N  N68  1  0.08179497  0.73970688  0.76091641  1  0  -0.378498  0  3.128561  0  0  -0.316184  0  3.381078  0  0  -0.330991  0  3.394667  0  0  -0.337773  -0.305842  0  3.371752  0
N  N69  1  0.09439755  0.24508462  0.69142885  1  0  -0.372285  0  3.137306  0  0  -0.310251  0  3.392305  0  0  -0.324923  0  3.406761  0  0  -0.333754  -0.29972  0  3.382278  0
N  N70  1  0.90560322  0.75491605  0.30857273  1  0  -0.372242  0  3.137249  0  0  -0.310207  0  3.392241  0  0  -0.324879  0  3.406695  0  0  -0.333747  -0.299675  0  3.382212  0
O  O71  1  0.80973313  0.66610449  0.52426553  1  0  -0.911002  0  1.826418  0  0  -0.839516  0  2.026115  0  0  -0.85974  0  1.991648  0  0  -0.670569  -0.824578  0  2.051118  0
O  O72  1  0.19026584  0.33389499  0.47573453  1  0  -0.911028  0  1.82639  0  0  -0.839548  0  2.026078  0  0  -0.859769  0  1.991613  0  0  -0.670583  -0.824606  0  2.051079  0
