# generated using pymatgen
data_CdH11C13N2O5
_symmetry_space_group_name_H-M   'P 1'
_cell_length_a   10.26513978
_cell_length_b   10.26536047
_cell_length_c   13.25819639
_cell_angle_alpha   74.86955667
_cell_angle_beta   74.86886863
_cell_angle_gamma   83.09145665
_symmetry_Int_Tables_number   1
_chemical_formula_structural   CdH11C13N2O5
_chemical_formula_sum   'Cd4 H44 C52 N8 O20'
_cell_volume   1299.85886808
_cell_formula_units_Z   4
loop_
 _symmetry_equiv_pos_site_id
 _symmetry_equiv_pos_as_xyz
  1  'x, y, z'
loop_
 _atom_site_type_symbol
 _atom_site_label
 _atom_site_symmetry_multiplicity
 _atom_site_fract_x
 _atom_site_fract_y
 _atom_site_fract_z
 _atom_site_occupancy
 _atom_site_hle17_bader_spin_density
 _atom_site_hle17_ddec_charge
 _atom_site_hle17_ddec_spin_density
 _atom_site_hle17_ddec_sum_bond_order
 _atom_site_hle17_magmom
 _atom_site_hse06_10hf_bader_spin_density
 _atom_site_hse06_10hf_ddec_charge
 _atom_site_hse06_10hf_ddec_spin_density
 _atom_site_hse06_10hf_ddec_sum_bond_order
 _atom_site_hse06_10hf_magmom
 _atom_site_hse06_bader_spin_density
 _atom_site_hse06_ddec_charge
 _atom_site_hse06_ddec_spin_density
 _atom_site_hse06_ddec_sum_bond_order
 _atom_site_hse06_magmom
 _atom_site_pbe_bader_spin_density
 _atom_site_pbe_cm5_charge
 _atom_site_pbe_ddec_charge
 _atom_site_pbe_ddec_spin_density
 _atom_site_pbe_ddec_sum_bond_order
 _atom_site_pbe_magmom
Cd  Cd0  1  0.11043854  0.03265511  0.09727655  1  0  1.19235  0  1.622505  0  0  1.008725  0  2.064384  0  0  1.067967  0  2.009874  0  0  0.785461  0.963642  0  2.102731  0
Cd  Cd1  1  0.96735752  0.88955868  0.40271772  1  0  1.192301  0  1.62248  0  0  1.008662  0  2.064349  0  0  1.067909  0  2.009848  0  0  0.785437  0.963581  0  2.102691  0
Cd  Cd2  1  0.88955430  0.96734416  0.90272683  1  0  1.192378  0  1.622452  0  0  1.00873  0  2.064334  0  0  1.06798  0  2.009817  0  0  0.785455  0.963651  0  2.102676  0
Cd  Cd3  1  0.03264628  0.11044445  0.59728124  1  0  1.192303  0  1.622449  0  0  1.00868  0  2.064323  0  0  1.06792  0  2.00983  0  0  0.785431  0.963601  0  2.102666  0
H  H4  1  0.62060037  0.03757867  0.08554119  1  0  0.113434  0  0.956863  0  0  0.118075  0  1.027848  0  0  0.122646  0  1.023615  0  0  0.104842  0.114711  0  1.030903  0
H  H5  1  0.96242927  0.37938947  0.41446628  1  0  0.113437  0  0.956857  0  0  0.118108  0  1.027808  0  0  0.122674  0  1.023578  0  0  0.104853  0.114744  0  1.030865  0
H  H6  1  0.37938758  0.96241564  0.91446563  1  0  0.113428  0  0.956702  0  0  0.11809  0  1.02769  0  0  0.12264  0  1.023481  0  0  0.104835  0.114726  0  1.030746  0
H  H7  1  0.03757962  0.62061359  0.58552868  1  0  0.113443  0  0.956672  0  0  0.118099  0  1.027667  0  0  0.122657  0  1.023447  0  0  0.104837  0.114733  0  1.030726  0
H  H8  1  0.00656501  0.52153233  0.83914389  1  0  0.108899  0  0.998282  0  0  0.116563  0  1.066106  0  0  0.117546  0  1.06803  0  0  0.118588  0.115841  0  1.064762  0
H  H9  1  0.47847268  0.99342702  0.66086220  1  0  0.108716  0  0.998246  0  0  0.116396  0  1.066112  0  0  0.117387  0  1.068027  0  0  0.118517  0.115673  0  1.064769  0
H  H10  1  0.99342680  0.47846800  0.16085722  1  0  0.108775  0  0.998268  0  0  0.116419  0  1.066137  0  0  0.117406  0  1.068055  0  0  0.118505  0.115698  0  1.064792  0
H  H11  1  0.52152411  0.00657629  0.33913282  1  0  0.108741  0  0.99817  0  0  0.116389  0  1.066085  0  0  0.117372  0  1.068006  0  0  0.118531  0.115666  0  1.06474  0
H  H12  1  0.91043440  0.27291459  0.96237684  1  0  0.116267  0  0.943346  0  0  0.129125  0  0.997831  0  0  0.131465  0  0.99687  0  0  0.120613  0.127308  0  0.998881  0
H  H13  1  0.72709783  0.08955825  0.53763163  1  0  0.116191  0  0.94351  0  0  0.129088  0  0.997947  0  0  0.131428  0  0.996983  0  0  0.120608  0.12727  0  0.998997  0
H  H14  1  0.08955935  0.72708563  0.03763145  1  0  0.116266  0  0.943541  0  0  0.129189  0  0.997916  0  0  0.131531  0  0.996952  0  0  0.120635  0.12737  0  0.99897  0
H  H15  1  0.27290422  0.91043784  0.46236906  1  0  0.116166  0  0.943428  0  0  0.129097  0  0.997818  0  0  0.131439  0  0.996855  0  0  0.120614  0.127279  0  0.99887  0
H  H16  1  0.35534109  0.73369079  0.29693893  1  0  0.129798  0  0.977961  0  0  0.134076  0  1.049467  0  0  0.139065  0  1.044989  0  0  0.1044  0.130149  0  1.053187  0
H  H17  1  0.26630784  0.64465392  0.20305437  1  0  0.129675  0  0.977995  0  0  0.134019  0  1.049452  0  0  0.139011  0  1.044969  0  0  0.104346  0.130092  0  1.053171  0
H  H18  1  0.64465796  0.26630224  0.70307124  1  0  0.129782  0  0.977886  0  0  0.134054  0  1.049409  0  0  0.139055  0  1.044923  0  0  0.104392  0.130126  0  1.053127  0
H  H19  1  0.73368598  0.35534742  0.79694238  1  0  0.129754  0  0.977866  0  0  0.134097  0  1.049317  0  0  0.139097  0  1.044832  0  0  0.104416  0.13017  0  1.053035  0
H  H20  1  0.30314645  0.29775106  0.99581958  1  0  0.113368  0  0.941814  0  0  0.123115  0  1.003707  0  0  0.125998  0  1.000032  0  0  0.138707  0.12087  0  1.006442  0
H  H21  1  0.70225922  0.69686590  0.50416362  1  0  0.113392  0  0.941706  0  0  0.12303  0  1.003759  0  0  0.125914  0  1.000081  0  0  0.138724  0.120828  0  1.006434  0
H  H22  1  0.69685235  0.70225220  0.00417581  1  0  0.113415  0  0.941754  0  0  0.123066  0  1.003748  0  0  0.125949  0  1.000068  0  0  0.1387  0.120807  0  1.006499  0
H  H23  1  0.29774473  0.30313213  0.49584009  1  0  0.113398  0  0.94164  0  0  0.123021  0  1.003714  0  0  0.125905  0  1.000036  0  0  0.138742  0.120821  0  1.006386  0
H  H24  1  0.44999292  0.57510457  0.42022020  1  0  0.38621  0  0.819361  0  0  0.374042  0  0.87176  0  0  0.381899  0  0.863193  0  0  0.334487  0.3684  0  0.877911  0
H  H25  1  0.42489656  0.55000620  0.07976892  1  0  0.386365  0  0.819154  0  0  0.374125  0  0.871642  0  0  0.381981  0  0.863079  0  0  0.334543  0.368484  0  0.877792  0
H  H26  1  0.55001125  0.42488634  0.57979014  1  0  0.386209  0  0.819352  0  0  0.374037  0  0.871756  0  0  0.381894  0  0.863189  0  0  0.334479  0.368396  0  0.877905  0
H  H27  1  0.57511394  0.45000479  0.92023549  1  0  0.386306  0  0.819252  0  0  0.374154  0  0.871634  0  0  0.382013  0  0.863062  0  0  0.334565  0.368513  0  0.877785  0
H  H28  1  0.77208881  0.71671207  0.31733656  1  0  0.138316  0  0.976424  0  0  0.144861  0  1.042718  0  0  0.149437  0  1.039  0  0  0.108788  0.141323  0  1.045841  0
H  H29  1  0.28328780  0.22791426  0.18265083  1  0  0.13844  0  0.976354  0  0  0.144951  0  1.042672  0  0  0.149551  0  1.038925  0  0  0.108795  0.141412  0  1.045793  0
H  H30  1  0.22791234  0.28328204  0.68266168  1  0  0.138272  0  0.976433  0  0  0.144824  0  1.042714  0  0  0.149397  0  1.039002  0  0  0.108774  0.141286  0  1.045837  0
H  H31  1  0.71673003  0.77209163  0.81734484  1  0  0.138269  0  0.976497  0  0  0.144865  0  1.042734  0  0  0.149408  0  1.039055  0  0  0.10878  0.141328  0  1.045851  0
H  H32  1  0.37140412  0.50559003  0.81914291  1  0  0.063396  0  0.935774  0  0  0.079729  0  0.999309  0  0  0.079853  0  0.999761  0  0  0.106117  0.079313  0  0.999424  0
H  H33  1  0.49441558  0.62860172  0.68084660  1  0  0.063447  0  0.935825  0  0  0.079695  0  0.999431  0  0  0.079812  0  0.999886  0  0  0.106051  0.079321  0  0.999495  0
H  H34  1  0.62859275  0.49441021  0.18085571  1  0  0.063371  0  0.935784  0  0  0.079724  0  0.999307  0  0  0.079855  0  0.999752  0  0  0.106108  0.079308  0  0.999421  0
H  H35  1  0.50558439  0.37139748  0.31914936  1  0  0.063436  0  0.935834  0  0  0.079671  0  0.999457  0  0  0.079788  0  0.999908  0  0  0.106047  0.079296  0  0.99952  0
H  H36  1  0.29209836  0.58885736  0.92253469  1  0  0.070329  0  0.923274  0  0  0.086204  0  0.986701  0  0  0.086932  0  0.986047  0  0  0.108599  0.085509  0  0.987152  0
H  H37  1  0.41115038  0.70790199  0.57745436  1  0  0.070415  0  0.923299  0  0  0.086261  0  0.986706  0  0  0.086974  0  0.986065  0  0  0.108648  0.085563  0  0.987165  0
H  H38  1  0.70789646  0.41114394  0.07746337  1  0  0.070328  0  0.923368  0  0  0.086227  0  0.986791  0  0  0.086966  0  0.986125  0  0  0.108609  0.085532  0  0.987242  0
H  H39  1  0.58885257  0.29209816  0.42254082  1  0  0.070367  0  0.923357  0  0  0.086251  0  0.986727  0  0  0.086949  0  0.986097  0  0  0.108616  0.085553  0  0.987185  0
H  H40  1  0.13205919  0.71637251  0.81666834  1  0  0.081897  0  0.933379  0  0  0.099155  0  0.994404  0  0  0.099603  0  0.995324  0  0  0.096671  0.098778  0  0.993795  0
H  H41  1  0.28362926  0.86793830  0.68332316  1  0  0.081834  0  0.933428  0  0  0.099192  0  0.994353  0  0  0.099639  0  0.99527  0  0  0.096655  0.098806  0  0.993745  0
H  H42  1  0.86793953  0.28363276  0.18332818  1  0  0.081794  0  0.933388  0  0  0.099109  0  0.994325  0  0  0.099556  0  0.995246  0  0  0.096628  0.098729  0  0.993718  0
H  H43  1  0.71637170  0.13206191  0.31667089  1  0  0.081803  0  0.93335  0  0  0.099089  0  0.994343  0  0  0.099535  0  0.995264  0  0  0.096623  0.098711  0  0.993737  0
H  H44  1  0.20035259  0.63088997  0.71294975  1  0  0.082959  0  0.923221  0  0  0.104083  0  0.976232  0  0  0.104643  0  0.976897  0  0  0.098607  0.103609  0  0.975728  0
H  H45  1  0.36910928  0.79964657  0.78704002  1  0  0.082837  0  0.923324  0  0  0.10397  0  0.976365  0  0  0.104523  0  0.97703  0  0  0.098577  0.103491  0  0.975869  0
H  H46  1  0.79964224  0.36911134  0.28704755  1  0  0.082929  0  0.923156  0  0  0.104017  0  0.976202  0  0  0.104577  0  0.976869  0  0  0.098602  0.10354  0  0.975707  0
H  H47  1  0.63089061  0.20035466  0.21295480  1  0  0.082894  0  0.923195  0  0  0.10397  0  0.976264  0  0  0.104527  0  0.976932  0  0  0.098583  0.103494  0  0.975766  0
C  C48  1  0.47930872  0.88869904  0.18330160  1  0  -0.021044  0  3.765997  0  0  0.005465  0  3.997782  0  0  -0.000289  0  4.018475  0  0  -0.015376  0.009162  0  3.983599  0
C  C49  1  0.11130392  0.52068334  0.31669603  1  0  -0.021075  0  3.766198  0  0  0.005521  0  3.997819  0  0  -0.00023  0  4.018512  0  0  -0.015443  0.009217  0  3.983638  0
C  C50  1  0.52068329  0.11129415  0.81670690  1  0  -0.020863  0  3.765808  0  0  0.005576  0  3.997684  0  0  -0.000178  0  4.01838  0  0  -0.015327  0.009274  0  3.983498  0
C  C51  1  0.88869583  0.47932089  0.68330125  1  0  -0.021072  0  3.765934  0  0  0.005492  0  3.997657  0  0  -0.000261  0  4.01835  0  0  -0.015452  0.009187  0  3.983476  0
C  C52  1  0.60469435  0.94582795  0.14965287  1  0  -0.103278  0  3.730105  0  0  -0.147428  0  3.991642  0  0  -0.145871  0  4.009036  0  0  -0.090409  -0.14771  0  3.979644  0
C  C53  1  0.05417629  0.39530130  0.35034967  1  0  -0.103192  0  3.730122  0  0  -0.147387  0  3.991607  0  0  -0.145814  0  4.00899  0  0  -0.090398  -0.14767  0  3.979606  0
C  C54  1  0.39530361  0.05417026  0.85034594  1  0  -0.103294  0  3.730113  0  0  -0.147497  0  3.991759  0  0  -0.14592  0  4.009163  0  0  -0.090395  -0.147776  0  3.97976  0
C  C55  1  0.94582455  0.60469983  0.64965253  1  0  -0.103242  0  3.730082  0  0  -0.147439  0  3.991685  0  0  -0.145878  0  4.009099  0  0  -0.09034  -0.14772  0  3.979689  0
C  C56  1  0.05233329  0.43927954  0.89049559  1  0  -0.051735  0  3.663766  0  0  -0.092398  0  3.923745  0  0  -0.090579  0  3.944492  0  0  0.001398  -0.093701  0  3.910213  0
C  C57  1  0.56072998  0.94766328  0.60950389  1  0  -0.051601  0  3.663808  0  0  -0.092272  0  3.923759  0  0  -0.090458  0  3.944513  0  0  0.001435  -0.093569  0  3.910219  0
C  C58  1  0.94766144  0.56072376  0.10950436  1  0  -0.051558  0  3.663795  0  0  -0.092192  0  3.923765  0  0  -0.090373  0  3.944511  0  0  0.001478  -0.093496  0  3.910232  0
C  C59  1  0.43926492  0.05233495  0.39049854  1  0  -0.051642  0  3.664012  0  0  -0.092319  0  3.924032  0  0  -0.090501  0  3.944785  0  0  0.001402  -0.093614  0  3.910492  0
C  C60  1  0.00524247  0.31678599  0.95228434  1  0  0.002626  0  3.736212  0  0  -0.035076  0  4.008674  0  0  -0.033283  0  4.029491  0  0  -0.006901  -0.036491  0  3.994783  0
C  C61  1  0.68321565  0.99475879  0.54771558  1  0  0.00278  0  3.736351  0  0  -0.034966  0  4.008765  0  0  -0.033171  0  4.029577  0  0  -0.006846  -0.036383  0  3.994875  0
C  C62  1  0.99475441  0.68321322  0.04771751  1  0  0.002515  0  3.736505  0  0  -0.035228  0  4.008899  0  0  -0.033437  0  4.029714  0  0  -0.006931  -0.036643  0  3.99501  0
C  C63  1  0.31678520  0.00524236  0.45228510  1  0  0.002831  0  3.736552  0  0  -0.034909  0  4.008948  0  0  -0.033115  0  4.029762  0  0  -0.00681  -0.036325  0  3.995056  0
C  C64  1  0.36637646  0.95499618  0.13252771  1  0  0.641493  0  3.917394  0  0  0.594197  0  4.20284  0  0  0.628378  0  4.197254  0  0  0.196532  0.571173  0  4.205178  0
C  C65  1  0.04500563  0.63361576  0.36747130  1  0  0.641142  0  3.917594  0  0  0.593883  0  4.202943  0  0  0.628056  0  4.197362  0  0  0.196508  0.570859  0  4.205276  0
C  C66  1  0.63361761  0.04499598  0.86747983  1  0  0.641337  0  3.91708  0  0  0.594102  0  4.20246  0  0  0.628277  0  4.196873  0  0  0.196482  0.571077  0  4.2048  0
C  C67  1  0.95499645  0.36638140  0.63252238  1  0  0.641453  0  3.917019  0  0  0.594154  0  4.202462  0  0  0.628335  0  4.196871  0  0  0.196591  0.571131  0  4.204801  0
C  C68  1  0.45664477  0.77248874  0.26770991  1  0  -0.222308  0  3.710117  0  0  -0.25436  0  3.957955  0  0  -0.256428  0  3.974868  0  0  -0.104411  -0.253202  0  3.947245  0
C  C69  1  0.22751146  0.54335018  0.23228218  1  0  -0.222274  0  3.710159  0  0  -0.254409  0  3.957914  0  0  -0.256492  0  3.974849  0  0  -0.104427  -0.253251  0  3.947203  0
C  C70  1  0.54334808  0.22750847  0.73229915  1  0  -0.222365  0  3.710194  0  0  -0.254389  0  3.958049  0  0  -0.256472  0  3.974958  0  0  -0.104463  -0.253231  0  3.947339  0
C  C71  1  0.77248811  0.45666016  0.76770941  1  0  -0.222439  0  3.710079  0  0  -0.254546  0  3.95789  0  0  -0.256626  0  3.9748  0  0  -0.104486  -0.253385  0  3.947178  0
C  C72  1  0.20810228  0.32538766  0.97244259  1  0  0.159391  0  3.668372  0  0  0.09488  0  3.937996  0  0  0.108577  0  3.952909  0  0  0.139726  0.086047  0  3.927498  0
C  C73  1  0.67462073  0.79190921  0.52754974  1  0  0.159529  0  3.668417  0  0  0.095092  0  3.9381  0  0  0.108794  0  3.953006  0  0  0.139809  0.086231  0  3.927583  0
C  C74  1  0.79189263  0.67461163  0.02755509  1  0  0.15944  0  3.668174  0  0  0.095023  0  3.937776  0  0  0.108727  0  3.952679  0  0  0.139767  0.086199  0  3.927288  0
C  C75  1  0.32538117  0.20809091  0.47245094  1  0  0.159597  0  3.668238  0  0  0.095176  0  3.93794  0  0  0.10888  0  3.952845  0  0  0.139824  0.086314  0  3.927425  0
C  C76  1  0.70932666  0.88443390  0.19852337  1  0  -0.062783  0  3.804854  0  0  -0.035991  0  4.045996  0  0  -0.044075  0  4.068944  0  0  -0.024257  -0.030685  0  4.030156  0
C  C77  1  0.11556854  0.29067108  0.30147794  1  0  -0.062946  0  3.80495  0  0  -0.036194  0  4.046148  0  0  -0.044283  0  4.069106  0  0  -0.02431  -0.030881  0  4.030299  0
C  C78  1  0.29067146  0.11555818  0.80148340  1  0  -0.062869  0  3.804902  0  0  -0.036037  0  4.046072  0  0  -0.044119  0  4.069012  0  0  -0.024363  -0.030733  0  4.030237  0
C  C79  1  0.88444848  0.70932979  0.69851736  1  0  -0.062895  0  3.804901  0  0  -0.036116  0  4.046156  0  0  -0.044192  0  4.069079  0  0  -0.024416  -0.030812  0  4.03032  0
C  C80  1  0.68933822  0.76599214  0.28109006  1  0  -0.180364  0  3.660644  0  0  -0.218687  0  3.915444  0  0  -0.219483  0  3.932291  0  0  -0.100962  -0.218205  0  3.904754  0
C  C81  1  0.23401073  0.31066414  0.21890399  1  0  -0.180443  0  3.660665  0  0  -0.218744  0  3.915476  0  0  -0.219558  0  3.932311  0  0  -0.100921  -0.218262  0  3.904779  0
C  C82  1  0.31065990  0.23400099  0.71891197  1  0  -0.180207  0  3.660317  0  0  -0.218557  0  3.915132  0  0  -0.219349  0  3.931976  0  0  -0.100869  -0.218076  0  3.904446  0
C  C83  1  0.76600407  0.68934179  0.78109302  1  0  -0.180311  0  3.660467  0  0  -0.218683  0  3.915301  0  0  -0.219456  0  3.932166  0  0  -0.100874  -0.218197  0  3.904604  0
C  C84  1  0.84298828  0.94626189  0.16106767  1  0  0.654758  0  3.893961  0  0  0.60187  0  4.180443  0  0  0.637344  0  4.174349  0  0  0.204261  0.577917  0  4.183161  0
C  C85  1  0.05374321  0.15701181  0.33892947  1  0  0.654833  0  3.893902  0  0  0.601981  0  4.180346  0  0  0.637455  0  4.174249  0  0  0.2043  0.578027  0  4.183068  0
C  C86  1  0.15700951  0.05374033  0.83893264  1  0  0.654916  0  3.894023  0  0  0.601974  0  4.180573  0  0  0.637446  0  4.174477  0  0  0.2043  0.578023  0  4.183295  0
C  C87  1  0.94626576  0.84299028  0.66106114  1  0  0.654879  0  3.894012  0  0  0.601952  0  4.180547  0  0  0.637424  0  4.174445  0  0  0.204272  0.578  0  4.183269  0
C  C88  1  0.56193207  0.71226134  0.31605479  1  0  0.30778  0  3.835521  0  0  0.306306  0  4.10296  0  0  0.314301  0  4.119597  0  0  0.069394  0.300582  0  4.092222  0
C  C89  1  0.28774210  0.43806986  0.18393564  1  0  0.307898  0  3.835797  0  0  0.30643  0  4.103199  0  0  0.314422  0  4.119841  0  0  0.069496  0.300707  0  4.092456  0
C  C90  1  0.43807198  0.28773365  0.68395100  1  0  0.30762  0  3.835649  0  0  0.306165  0  4.103076  0  0  0.314161  0  4.119712  0  0  0.069336  0.300442  0  4.092333  0
C  C91  1  0.71226354  0.56193828  0.81606197  1  0  0.307921  0  3.835596  0  0  0.306432  0  4.103061  0  0  0.314429  0  4.119696  0  0  0.069454  0.300709  0  4.092318  0
C  C92  1  0.27475365  0.55155211  0.85683669  1  0  0.011384  0  3.634172  0  0  -0.054263  0  3.8985  0  0  -0.04937  0  3.909332  0  0  -0.050789  -0.057212  0  3.890968  0
C  C93  1  0.44845489  0.72525000  0.64315407  1  0  0.011055  0  3.634211  0  0  -0.054441  0  3.898427  0  0  -0.049525  0  3.909237  0  0  -0.050839  -0.057408  0  3.890882  0
C  C94  1  0.72524118  0.44844920  0.14316061  1  0  0.011353  0  3.634101  0  0  -0.054396  0  3.89854  0  0  -0.049516  0  3.909375  0  0  -0.050843  -0.057341  0  3.891005  0
C  C95  1  0.55154501  0.27475019  0.35684397  1  0  0.011122  0  3.634378  0  0  -0.054398  0  3.898521  0  0  -0.049468  0  3.909329  0  0  -0.050793  -0.057364  0  3.89098  0
C  C96  1  0.22537727  0.66847726  0.77577232  1  0  -0.120655  0  3.656253  0  0  -0.159333  0  3.912692  0  0  -0.160316  0  3.92572  0  0  -0.157748  -0.158542  0  3.903736  0
C  C97  1  0.33152211  0.77462115  0.72422138  1  0  -0.120382  0  3.656244  0  0  -0.159172  0  3.912702  0  0  -0.160143  0  3.925711  0  0  -0.157737  -0.158374  0  3.90374  0
C  C98  1  0.77461953  0.33152502  0.22422516  1  0  -0.120498  0  3.655973  0  0  -0.15913  0  3.912328  0  0  -0.160119  0  3.925372  0  0  -0.157681  -0.158339  0  3.903374  0
C  C99  1  0.66847474  0.22538012  0.27577554  1  0  -0.120411  0  3.656056  0  0  -0.159072  0  3.912372  0  0  -0.160051  0  3.92539  0  0  -0.157675  -0.158287  0  3.90343  0
N  N100  1  0.10315329  0.24743643  0.00348135  1  0  -0.416357  0  3.323068  0  0  -0.334186  0  3.612083  0  0  -0.358393  0  3.631952  0  0  -0.367804  -0.317253  0  3.597541  0
N  N101  1  0.75257533  0.89684880  0.49651419  1  0  -0.416418  0  3.323046  0  0  -0.33422  0  3.612007  0  0  -0.358427  0  3.631869  0  0  -0.367742  -0.317292  0  3.597481  0
N  N102  1  0.89684150  0.75256484  0.99651975  1  0  -0.416347  0  3.323029  0  0  -0.334184  0  3.612046  0  0  -0.358391  0  3.631905  0  0  -0.367763  -0.317251  0  3.597502  0
N  N103  1  0.24742864  0.10314924  0.50348875  1  0  -0.416464  0  3.323061  0  0  -0.3343  0  3.612078  0  0  -0.358505  0  3.631934  0  0  -0.367804  -0.317374  0  3.597557  0
N  N104  1  0.18073810  0.44293566  0.90417873  1  0  -0.066099  0  3.563381  0  0  0.03086  0  3.780123  0  0  0.015636  0  3.80695  0  0  -0.241808  0.040908  0  3.762014  0
N  N105  1  0.55707545  0.81926621  0.59581333  1  0  -0.066092  0  3.563301  0  0  0.030824  0  3.780007  0  0  0.015598  0  3.806823  0  0  -0.241902  0.040856  0  3.761928  0
N  N106  1  0.81925778  0.55706462  0.09581933  1  0  -0.066118  0  3.563282  0  0  0.030824  0  3.780023  0  0  0.015598  0  3.806853  0  0  -0.241851  0.040873  0  3.761911  0
N  N107  1  0.44292756  0.18073190  0.40418451  1  0  -0.066149  0  3.563355  0  0  0.030764  0  3.780059  0  0  0.015539  0  3.806867  0  0  -0.241939  0.040798  0  3.761977  0
O  O108  1  0.27438287  0.87781945  0.13559871  1  0  -0.642402  0  1.968168  0  0  -0.572935  0  2.210304  0  0  -0.603294  0  2.199251  0  0  -0.335916  -0.550535  0  2.217262  0
O  O109  1  0.12218545  0.72560569  0.36440196  1  0  -0.642189  0  1.968195  0  0  -0.572773  0  2.210354  0  0  -0.603126  0  2.199309  0  0  -0.33588  -0.550369  0  2.217305  0
O  O110  1  0.72561110  0.12217575  0.86440675  1  0  -0.64245  0  1.968192  0  0  -0.57297  0  2.210259  0  0  -0.603328  0  2.199213  0  0  -0.335918  -0.550571  0  2.21722  0
O  O111  1  0.87781342  0.27439555  0.63559381  1  0  -0.642241  0  1.968129  0  0  -0.572823  0  2.210324  0  0  -0.60318  0  2.199281  0  0  -0.335879  -0.550421  0  2.217279  0
O  O112  1  0.36394979  0.08067737  0.09210150  1  0  -0.632217  0  1.940307  0  0  -0.581281  0  2.171468  0  0  -0.607432  0  2.163136  0  0  -0.326267  -0.562144  0  2.176267  0
O  O113  1  0.91931583  0.63604197  0.40789564  1  0  -0.632075  0  1.940304  0  0  -0.581125  0  2.171366  0  0  -0.607295  0  2.163091  0  0  -0.326243  -0.561994  0  2.176172  0
O  O114  1  0.63604235  0.91931282  0.90790530  1  0  -0.632104  0  1.940195  0  0  -0.581104  0  2.171195  0  0  -0.607272  0  2.16291  0  0  -0.326187  -0.561968  0  2.175994  0
O  O115  1  0.08068626  0.36395519  0.59209804  1  0  -0.632246  0  1.940129  0  0  -0.581251  0  2.171206  0  0  -0.607422  0  2.162923  0  0  -0.326274  -0.562119  0  2.176014  0
O  O116  1  0.54430869  0.59832149  0.40036147  1  0  -0.527193  0  2.080501  0  0  -0.48534  0  2.287866  0  0  -0.501002  0  2.27866  0  0  -0.361782  -0.473958  0  2.293851  0
O  O117  1  0.40167219  0.45569524  0.09962271  1  0  -0.52732  0  2.080629  0  0  -0.48537  0  2.288039  0  0  -0.501034  0  2.278832  0  0  -0.36181  -0.473988  0  2.294019  0
O  O118  1  0.45569440  0.40167251  0.59964395  1  0  -0.527109  0  2.080473  0  0  -0.485248  0  2.28784  0  0  -0.500913  0  2.278629  0  0  -0.361709  -0.473868  0  2.293823  0
O  O119  1  0.59833722  0.54431883  0.90037829  1  0  -0.527278  0  2.080626  0  0  -0.485432  0  2.287975  0  0  -0.501095  0  2.278765  0  0  -0.361834  -0.47405  0  2.293955  0
O  O120  1  0.86955195  0.03453303  0.07160552  1  0  -0.668981  0  2.019056  0  0  -0.598449  0  2.271136  0  0  -0.628022  0  2.259712  0  0  -0.328991  -0.577192  0  2.278135  0
O  O121  1  0.96547417  0.13044575  0.42839314  1  0  -0.669017  0  2.019005  0  0  -0.598496  0  2.271071  0  0  -0.628073  0  2.25966  0  0  -0.329005  -0.577239  0  2.278074  0
O  O122  1  0.13044065  0.96547229  0.92839823  1  0  -0.66905  0  2.019044  0  0  -0.598513  0  2.271175  0  0  -0.628101  0  2.259779  0  0  -0.329007  -0.577254  0  2.278178  0
O  O123  1  0.03453250  0.86956238  0.57160277  1  0  -0.668992  0  2.019239  0  0  -0.598452  0  2.271368  0  0  -0.628046  0  2.26  0  0  -0.328974  -0.577197  0  2.278371  0
O  O124  1  0.93016503  0.90967256  0.21834435  1  0  -0.65925  0  2.048334  0  0  -0.581624  0  2.3075  0  0  -0.613453  0  2.296444  0  0  -0.323774  -0.558441  0  2.314369  0
O  O125  1  0.09033379  0.06983717  0.28165182  1  0  -0.659241  0  2.048294  0  0  -0.581618  0  2.307428  0  0  -0.613449  0  2.296378  0  0  -0.323799  -0.558436  0  2.314297  0
O  O126  1  0.06983694  0.09032554  0.78165595  1  0  -0.659315  0  2.048408  0  0  -0.581684  0  2.307606  0  0  -0.613512  0  2.296552  0  0  -0.323783  -0.558504  0  2.314476  0
O  O127  1  0.90967617  0.93016383  0.71834484  1  0  -0.659295  0  2.048199  0  0  -0.581653  0  2.307371  0  0  -0.613483  0  2.296316  0  0  -0.323771  -0.558468  0  2.314239  0
