# generated using pymatgen
data_CdH8C13N5ClO2
_symmetry_space_group_name_H-M   'P 1'
_cell_length_a   11.04949603
_cell_length_b   11.65392698
_cell_length_c   13.20000000
_cell_angle_alpha   110.55466454
_cell_angle_beta   98.73980237
_cell_angle_gamma   113.96686079
_symmetry_Int_Tables_number   1
_chemical_formula_structural   CdH8C13N5ClO2
_chemical_formula_sum   'Cd4 H32 C52 N20 Cl4 O8'
_cell_volume   1365.42342742
_cell_formula_units_Z   4
loop_
 _symmetry_equiv_pos_site_id
 _symmetry_equiv_pos_as_xyz
  1  'x, y, z'
loop_
 _atom_site_type_symbol
 _atom_site_label
 _atom_site_symmetry_multiplicity
 _atom_site_fract_x
 _atom_site_fract_y
 _atom_site_fract_z
 _atom_site_occupancy
 _atom_site_hle17_bader_spin_density
 _atom_site_hle17_ddec_charge
 _atom_site_hle17_ddec_spin_density
 _atom_site_hle17_ddec_sum_bond_order
 _atom_site_hle17_magmom
 _atom_site_hse06_10hf_bader_spin_density
 _atom_site_hse06_10hf_ddec_charge
 _atom_site_hse06_10hf_ddec_spin_density
 _atom_site_hse06_10hf_ddec_sum_bond_order
 _atom_site_hse06_10hf_magmom
 _atom_site_hse06_bader_spin_density
 _atom_site_hse06_ddec_charge
 _atom_site_hse06_ddec_spin_density
 _atom_site_hse06_ddec_sum_bond_order
 _atom_site_hse06_magmom
 _atom_site_pbe_bader_charge
 _atom_site_pbe_bader_spin_density
 _atom_site_pbe_cm5_charge
 _atom_site_pbe_ddec_charge
 _atom_site_pbe_ddec_spin_density
 _atom_site_pbe_ddec_sum_bond_order
 _atom_site_pbe_magmom
Cd  Cd0  1  0.14758846  0.22177146  0.11101786  1  0  1.125625  0  1.756927  0  0  0.943994  0  2.221007  0  0  0.996857  0  2.169467  0  1.270828  0  0.72889  0.905414  0  2.257149  0
Cd  Cd1  1  0.85241226  0.77822881  0.88898284  1  0  1.125622  0  1.756977  0  0  0.943999  0  2.221041  0  0  0.996849  0  2.169523  0  1.270786  0  0.728878  0.90542  0  2.257183  0
Cd  Cd2  1  0.63587061  0.44463777  0.60153232  1  0  1.083608  0  1.806982  0  0  0.907316  0  2.268059  0  0  0.959768  0  2.218925  0  1.23218  0  0.686368  0.869511  0  2.30194  0
Cd  Cd3  1  0.36412866  0.55536144  0.39846635  1  0  1.083588  0  1.807037  0  0  0.907316  0  2.268081  0  0  0.959765  0  2.218952  0  1.232175  0  0.686352  0.869509  0  2.301963  0
H  H4  1  0.22343845  0.53957952  0.12249395  1  0  0.090122  0  0.958913  0  0  0.095002  0  1.025253  0  0  0.097941  0  1.023243  0  0.154066  0  0.109314  0.092861  0  1.02667  0
H  H5  1  0.77656135  0.46042075  0.87750512  1  0  0.090127  0  0.958914  0  0  0.095001  0  1.025257  0  0  0.097938  0  1.023248  0  0.154043  0  0.109299  0.092859  0  1.026675  0
H  H6  1  0.31597121  0.67481436  0.01136881  1  0  0.080688  0  0.929969  0  0  0.089722  0  0.98984  0  0  0.092641  0  0.987775  0  0.092518  0  0.11627  0.087561  0  0.991512  0
H  H7  1  0.68402806  0.32518485  0.98862987  1  0  0.080687  0  0.929914  0  0  0.089696  0  0.989811  0  0  0.092631  0  0.987728  0  0.0925  0  0.116266  0.087536  0  0.991483  0
H  H8  1  0.39744053  0.36378763  0.81755313  1  0  0.107593  0  0.955761  0  0  0.109248  0  1.027164  0  0  0.113064  0  1.024364  0  0.151353  0  0.107386  0.106379  0  1.029375  0
H  H9  1  0.60255822  0.63621052  0.18244515  1  0  0.10758  0  0.955786  0  0  0.109248  0  1.027168  0  0  0.113068  0  1.02436  0  0.151304  0  0.107374  0.106379  0  1.029382  0
H  H10  1  0.22955142  0.92899112  0.97127655  1  0  0.12301  0  0.933273  0  0  0.132891  0  0.993555  0  0  0.135977  0  0.989565  0  0.231359  0  0.145674  0.130316  0  0.996888  0
H  H11  1  0.77045021  0.07100914  0.02872427  1  0  0.123049  0  0.93322  0  0  0.132944  0  0.993475  0  0  0.136019  0  0.989501  0  0.231367  0  0.14568  0.130368  0  0.99681  0
H  H12  1  0.51631132  0.08471010  0.75971863  1  0  0.119015  0  0.968656  0  0  0.123109  0  1.038774  0  0  0.127095  0  1.036286  0  0.122794  0  0.103571  0.119972  0  1.040869  0
H  H13  1  0.48368978  0.91528911  0.24027952  1  0  0.119039  0  0.968613  0  0  0.123136  0  1.038729  0  0  0.127123  0  1.036241  0  0.122816  0  0.103586  0.119999  0  1.040824  0
H  H14  1  0.61541210  0.93380974  0.66428446  1  0  0.104219  0  0.92802  0  0  0.116548  0  0.98328  0  0  0.119429  0  0.981942  0  0.091022  0  0.108087  0.114508  0  0.984117  0
H  H15  1  0.38458809  0.06618947  0.33571282  1  0  0.104224  0  0.928075  0  0  0.11655  0  0.983343  0  0  0.11943  0  0.982005  0  0.091053  0  0.108098  0.114508  0  0.98418  0
H  H16  1  0.44275600  0.66654859  0.82146906  1  0  0.107147  0  0.980792  0  0  0.105591  0  1.059629  0  0  0.110373  0  1.05541  0  0.146186  0  0.099741  0.102168  0  1.062582  0
H  H17  1  0.55724472  0.33345167  0.17853012  1  0  0.107141  0  0.980771  0  0  0.1056  0  1.059593  0  0  0.11038  0  1.055375  0  0.146185  0  0.099748  0.102177  0  1.062546  0
H  H18  1  0.33458042  0.80671186  0.90732103  1  0  0.103126  0  0.951145  0  0  0.116072  0  1.009654  0  0  0.118996  0  1.008255  0  0.053999  0  0.10751  0.113979  0  1.010783  0
H  H19  1  0.66542082  0.19328946  0.09267931  1  0  0.103111  0  0.951168  0  0  0.11606  0  1.009669  0  0  0.118984  0  1.008269  0  0.05397  0  0.107508  0.113965  0  1.010804  0
H  H20  1  0.64751298  0.15160589  0.56636393  1  0  0.091661  0  0.941722  0  0  0.09773  0  1.005777  0  0  0.100922  0  1.003653  0  0.134318  0  0.113153  0.095513  0  1.007173  0
H  H21  1  0.35248681  0.84839437  0.43363590  1  0  0.091649  0  0.941703  0  0  0.097722  0  1.005765  0  0  0.100913  0  1.003641  0  0.134246  0  0.113151  0.095504  0  1.007162  0
H  H22  1  0.75246421  0.00761434  0.46303713  1  0  0.087414  0  0.945401  0  0  0.094428  0  1.009454  0  0  0.097327  0  1.007617  0  0.098794  0  0.109487  0.092251  0  1.01112  0
H  H23  1  0.24753598  0.99238486  0.53696393  1  0  0.087417  0  0.945442  0  0  0.094427  0  1.00949  0  0  0.097325  0  1.007651  0  0.098801  0  0.109487  0.09225  0  1.011156  0
H  H24  1  0.92794054  0.29397470  0.33614066  1  0  0.104042  0  0.948199  0  0  0.107714  0  1.018572  0  0  0.111369  0  1.01555  0  0.150754  0  0.108819  0.104923  0  1.021017  0
H  H25  1  0.07205821  0.70602346  0.66385838  1  0  0.103993  0  0.948196  0  0  0.107711  0  1.018572  0  0  0.111368  0  1.01555  0  0.150736  0  0.10882  0.104909  0  1.021028  0
H  H26  1  0.74412934  0.71180178  0.47915098  1  0  0.126621  0  0.928529  0  0  0.133923  0  0.992817  0  0  0.137295  0  0.988339  0  0.235446  0  0.145502  0.13131  0  0.996186  0
H  H27  1  0.25586954  0.28819848  0.52084873  1  0  0.126605  0  0.928524  0  0  0.133942  0  0.992779  0  0  0.137316  0  0.988297  0  0.235464  0  0.145516  0.131329  0  0.996149  0
H  H28  1  0.86800355  0.87351896  0.42781284  1  0  0.105431  0  0.958966  0  0  0.116343  0  1.020999  0  0  0.119  0  1.020344  0  0.066798  0  0.106937  0.114376  0  1.021651  0
H  H29  1  0.13199533  0.12648130  0.57218914  1  0  0.105444  0  0.958983  0  0  0.116375  0  1.020991  0  0  0.119012  0  1.020361  0  0.066669  0  0.106938  0.114407  0  1.021645  0
H  H30  1  0.96129487  0.01870962  0.33033663  1  0  0.104449  0  0.986608  0  0  0.102056  0  1.067183  0  0  0.107067  0  1.062554  0  0.142918  0  0.098197  0.098415  0  1.070434  0
H  H31  1  0.03870454  0.98129170  0.66966575  1  0  0.104475  0  0.986583  0  0  0.10209  0  1.067165  0  0  0.107105  0  1.062532  0  0.142938  0  0.098216  0.098451  0  1.070412  0
H  H32  1  0.07126511  0.72022803  0.12988257  1  0  0.100359  0  0.933666  0  0  0.113136  0  0.987527  0  0  0.116389  0  0.985518  0  0.083268  0  0.103701  0.110734  0  0.989026  0
H  H33  1  0.92873560  0.27977224  0.87011737  1  0  0.100363  0  0.933773  0  0  0.11315  0  0.987616  0  0  0.116403  0  0.985608  0  0.083241  0  0.103715  0.110749  0  0.989113  0
H  H34  1  0.98503724  0.57667780  0.23343002  1  0  0.118519  0  0.972823  0  0  0.122969  0  1.043024  0  0  0.126886  0  1.040348  0  0.141759  0  0.09827  0.119753  0  1.045553  0
H  H35  1  0.01496256  0.42332247  0.76657057  1  0  0.118516  0  0.972924  0  0  0.122965  0  1.043113  0  0  0.126881  0  1.040439  0  0.141734  0  0.098284  0.119749  0  1.045642  0
C  C36  1  0.26309054  0.50208215  0.05451254  1  0  0.093601  0  3.69767  0  0  0.065524  0  3.951067  0  0  0.068121  0  3.969396  0  0.486971  0  0.057661  0.06358  0  3.939001  0
C  C37  1  0.73691018  0.49791812  0.94548665  1  0  0.093483  0  3.697764  0  0  0.065419  0  3.95113  0  0  0.068016  0  3.969463  0  0.486961  0  0.057614  0.063476  0  3.939062  0
C  C38  1  0.31306043  0.57458312  0.99213520  1  0  0.079428  0  3.695245  0  0  0.052075  0  3.962284  0  0  0.054361  0  3.978136  0  0.5321  0  0.056536  0.050223  0  3.951755  0
C  C39  1  0.68693923  0.42541504  0.00786396  1  0  0.079583  0  3.695278  0  0  0.052253  0  3.962303  0  0  0.054529  0  3.978153  0  0.53217  0  0.05663  0.050402  0  3.951774  0
C  C40  1  0.35916256  0.40447348  0.88611509  1  0  0.054295  0  3.646831  0  0  0.024842  0  3.903293  0  0  0.026706  0  3.918892  0  0.541629  0  0.058272  0.023717  0  3.892867  0
C  C41  1  0.64083998  0.59552678  0.11388584  1  0  0.054317  0  3.646816  0  0  0.024892  0  3.903225  0  0  0.026756  0  3.918825  0  0.5417  0  0.058296  0.023768  0  3.892799  0
C  C42  1  0.31178668  0.33214777  0.94997291  1  0  0.122926  0  3.775564  0  0  0.12436  0  4.014519  0  0  0.126739  0  4.035178  0  0.535571  0  0.132468  0.122458  0  4.000646  0
C  C43  1  0.68821443  0.66785144  0.05002751  1  0  0.123083  0  3.775532  0  0  0.124474  0  4.014527  0  0  0.126852  0  4.035184  0  0.535693  0  0.132541  0.122573  0  4.000651  0
C  C44  1  0.31355522  0.20244631  0.93318953  1  0  0.271173  0  3.793107  0  0  0.243955  0  4.072631  0  0  0.254857  0  4.088772  0  0.99653  0  0.225771  0.23683  0  4.061261  0
C  C45  1  0.68644588  0.79755289  0.06681166  1  0  0.271102  0  3.793074  0  0  0.243903  0  4.072563  0  0  0.254807  0  4.088699  0  0.996384  0  0.225747  0.236777  0  4.061192  0
C  C46  1  0.27074759  0.01565311  0.94972937  1  0  0.210408  0  3.590033  0  0  0.132541  0  3.857665  0  0  0.148189  0  3.867447  0  0.971351  0  0.177699  0.122714  0  3.850891  0
C  C47  1  0.72925312  0.98434715  0.05027209  1  0  0.210283  0  3.590109  0  0  0.132418  0  3.857721  0  0  0.148075  0  3.867509  0  0.971358  0  0.177665  0.122592  0  3.850945  0
C  C48  1  0.41999343  0.95428464  0.83865268  1  0  0.160526  0  3.793194  0  0  0.137047  0  4.048643  0  0  0.143454  0  4.071378  0  0.257502  0  0.094528  0.133102  0  4.032448  0
C  C49  1  0.58000820  0.04571563  0.16134663  1  0  0.160598  0  3.793209  0  0  0.137107  0  4.048693  0  0  0.143517  0  4.071427  0  0.257499  0  0.094603  0.133161  0  4.032499  0
C  C50  1  0.50203733  0.99337203  0.77283003  1  0  -0.156942  0  3.726189  0  0  -0.177263  0  3.984196  0  0  -0.182789  0  4.004709  0  -0.005104  0  -0.092198  -0.172628  0  3.969504  0
C  C51  1  0.49796391  0.00662929  0.22716804  1  0  -0.157022  0  3.726187  0  0  -0.177338  0  3.984199  0  0  -0.182866  0  4.004712  0  -0.004859  0  -0.092273  -0.172704  0  3.969507  0
C  C52  1  0.55720915  0.90967865  0.72054228  1  0  -0.043313  0  3.727313  0  0  -0.065138  0  3.972219  0  0  -0.064005  0  3.993132  0  0.001234  0  -0.078835  -0.065512  0  3.957573  0
C  C53  1  0.44279012  0.09032056  0.27945715  1  0  -0.043348  0  3.727261  0  0  -0.065179  0  3.972168  0  0  -0.064044  0  3.993075  0  0.001097  0  -0.07885  -0.065551  0  3.957522  0
C  C54  1  0.53566714  0.79138076  0.73682882  1  0  -0.070424  0  3.744032  0  0  -0.04699  0  3.97901  0  0  -0.056714  0  4.003035  0  -0.031926  0  -0.020612  -0.040956  0  3.963249  0
C  C55  1  0.46433357  0.20861951  0.26316885  1  0  -0.070344  0  3.744022  0  0  -0.046902  0  3.978991  0  0  -0.056626  0  4.003018  0  -0.031945  0  -0.020575  -0.040868  0  3.963233  0
C  C56  1  0.45929930  0.75790911  0.80750357  1  0  -0.05585  0  3.730881  0  0  -0.080813  0  3.987554  0  0  -0.079656  0  4.007291  0  -0.011804  0  -0.089186  -0.081399  0  3.974356  0
C  C57  1  0.54069906  0.24209010  0.19249651  1  0  -0.055886  0  3.730954  0  0  -0.080876  0  3.987664  0  0  -0.079719  0  4.007403  0  -0.011845  0  -0.089217  -0.081453  0  3.974441  0
C  C58  1  0.39913038  0.83747330  0.85687121  1  0  -0.155867  0  3.750019  0  0  -0.180835  0  4.018243  0  0  -0.186582  0  4.039843  0  -0.037173  0  -0.095169  -0.177118  0  4.003407  0
C  C59  1  0.60087047  0.16252908  0.14312789  1  0  -0.155855  0  3.749935  0  0  -0.180813  0  4.018172  0  0  -0.186559  0  4.03977  0  -0.037222  0  -0.095172  -0.177096  0  4.003339  0
C  C60  1  0.58202548  0.69283772  0.67148367  1  0  0.676225  0  3.87412  0  0  0.618848  0  4.171161  0  0  0.655455  0  4.162462  0  1.558975  0  0.207668  0.593887  0  4.176283  0
C  C61  1  0.41797379  0.30716149  0.32851576  1  0  0.676196  0  3.874173  0  0  0.618831  0  4.171202  0  0  0.655439  0  4.162503  0  1.558992  0  0.207659  0.593869  0  4.176328  0
C  C62  1  0.71101436  0.18184472  0.51482025  1  0  0.089373  0  3.691975  0  0  0.063445  0  3.942449  0  0  0.065495  0  3.961189  0  0.502783  0  0.056692  0.061878  0  3.929938  0
C  C63  1  0.28898491  0.81815449  0.48517994  1  0  0.089448  0  3.691954  0  0  0.063488  0  3.942447  0  0  0.065538  0  3.961188  0  0.502866  0  0.05671  0.061921  0  3.929935  0
C  C64  1  0.77039407  0.10472046  0.45876006  1  0  0.075811  0  3.683883  0  0  0.049013  0  3.947848  0  0  0.051386  0  3.964309  0  0.513007  0  0.050964  0.047192  0  3.937025  0
C  C65  1  0.22960573  0.89527981  0.54123977  1  0  0.075739  0  3.683947  0  0  0.048971  0  3.947882  0  0  0.051344  0  3.964343  0  0.513012  0  0.050946  0.04715  0  3.93706  0
C  C66  1  0.86464028  0.26063291  0.38712534  1  0  0.057494  0  3.641629  0  0  0.021641  0  3.908167  0  0  0.024585  0  3.921725  0  0.52885  0  0.054978  0.020049  0  3.898832  0
C  C67  1  0.13535900  0.73936630  0.61287410  1  0  0.057725  0  3.641378  0  0  0.021705  0  3.908099  0  0  0.024648  0  3.921659  0  0.528852  0  0.055014  0.020123  0  3.898767  0
C  C68  1  0.80357781  0.33789231  0.44186490  1  0  0.125174  0  3.766487  0  0  0.127101  0  4.00693  0  0  0.129786  0  4.027011  0  0.517147  0  0.130144  0.12491  0  3.99351  0
C  C69  1  0.19642199  0.66210795  0.55813569  1  0  0.125171  0  3.766466  0  0  0.127123  0  4.006923  0  0  0.129808  0  4.027002  0  0.517157  0  0.130151  0.124932  0  3.993501  0
C  C70  1  0.81492246  0.46260201  0.43229915  1  0  0.254445  0  3.814454  0  0  0.228024  0  4.094358  0  0  0.238059  0  4.112096  0  1.004282  0  0.220026  0.221716  0  4.081852  0
C  C71  1  0.18507825  0.53739826  0.56770155  1  0  0.25431  0  3.814622  0  0  0.227949  0  4.094435  0  0  0.237986  0  4.112173  0  1.004288  0  0.219984  0.221643  0  4.081926  0
C  C72  1  0.78113671  0.63631399  0.45560171  1  0  0.216855  0  3.554749  0  0  0.141043  0  3.818696  0  0  0.156778  0  3.827334  0  0.95716  0  0.180455  0.131161  0  3.812607  0
C  C73  1  0.21886217  0.36368627  0.54439952  1  0  0.216963  0  3.554789  0  0  0.141113  0  3.818731  0  0  0.156843  0  3.827377  0  0.957178  0  0.180501  0.131231  0  3.812643  0
C  C74  1  0.91851625  0.71489736  0.33423294  1  0  0.16932  0  3.779703  0  0  0.145544  0  4.033195  0  0  0.152165  0  4.055278  0  0.24699  0  0.09785  0.141818  0  4.01757  0
C  C75  1  0.08148446  0.28510291  0.66576701  1  0  0.169294  0  3.779681  0  0  0.145509  0  4.033178  0  0  0.152131  0  4.055254  0  0.247004  0  0.097824  0.141784  0  4.017553  0
C  C76  1  0.91415714  0.84037038  0.36383368  1  0  -0.152618  0  3.736772  0  0  -0.174339  0  3.997255  0  0  -0.180549  0  4.019663  0  -0.060418  0  -0.090579  -0.170153  0  3.981595  0
C  C77  1  0.08584174  0.15962988  0.63616830  1  0  -0.152656  0  3.736755  0  0  -0.174376  0  3.997257  0  0  -0.180573  0  4.019673  0  -0.060213  0  -0.090568  -0.17019  0  3.981599  0
C  C78  1  0.96785250  0.92263528  0.30936437  1  0  -0.058882  0  3.727191  0  0  -0.08069  0  3.976754  0  0  -0.07983  0  3.99643  0  0.00944  0  -0.086855  -0.08071  0  3.963179  0
C  C79  1  0.03214639  0.07736499  0.69063686  1  0  -0.058857  0  3.727164  0  0  -0.080715  0  3.976796  0  0  -0.079857  0  3.996461  0  0.009409  0  -0.086888  -0.080734  0  3.963217  0
C  C80  1  0.02250036  0.87855613  0.22341731  1  0  -0.076454  0  3.751141  0  0  -0.052271  0  3.981952  0  0  -0.062286  0  4.007517  0  -0.054124  0  -0.02299  -0.045951  0  3.964805  0
C  C81  1  0.97749944  0.12144414  0.77658404  1  0  -0.076503  0  3.751227  0  0  -0.052306  0  3.982052  0  0  -0.062321  0  4.007617  0  -0.053783  0  -0.022956  -0.045984  0  3.964904  0
C  C82  1  0.02903055  0.75413889  0.19698362  1  0  -0.057524  0  3.748587  0  0  -0.077323  0  3.991044  0  0  -0.076988  0  4.013034  0  -0.0171  0  -0.084325  -0.077361  0  3.975925  0
C  C83  1  0.97096742  0.24586138  0.80301825  1  0  -0.057526  0  3.748609  0  0  -0.077333  0  3.99107  0  0  -0.076998  0  4.013059  0  -0.017114  0  -0.084352  -0.07737  0  3.97595  0
C  C84  1  0.97937643  0.67290761  0.25291257  1  0  -0.147189  0  3.734497  0  0  -0.169455  0  3.994166  0  0  -0.174842  0  4.0153  0  -0.007789  0  -0.091444  -0.165436  0  3.979566  0
C  C85  1  0.02062441  0.32709477  0.74708880  1  0  -0.147155  0  3.734423  0  0  -0.169412  0  3.994095  0  0  -0.174798  0  4.015231  0  -0.007757  0  -0.091449  -0.165394  0  3.979493  0
C  C86  1  0.06320761  0.95809603  0.15456419  1  0  0.657853  0  3.91588  0  0  0.6023  0  4.217902  0  0  0.637826  0  4.210803  0  1.590003  0  0.200216  0.578265  0  4.221386  0
C  C87  1  0.93679284  0.04190740  0.84543897  1  0  0.658052  0  3.915682  0  0  0.602517  0  4.217675  0  0  0.638044  0  4.210575  0  1.589614  0  0.200365  0.57848  0  4.221161  0
N  N88  1  0.26223612  0.38085972  0.03262460  1  0  -0.300456  0  3.212496  0  0  -0.239435  0  3.469308  0  0  -0.254103  0  3.487844  0  -1.207645  0  -0.299111  -0.229367  0  3.456817  0
N  N89  1  0.73776511  0.61914160  0.96737574  1  0  -0.300488  0  3.212514  0  0  -0.239461  0  3.469328  0  0  -0.254128  0  3.487863  0  -1.207524  0  -0.299135  -0.229392  0  3.456837  0
N  N90  1  0.35964224  0.52575080  0.90782087  1  0  -0.243473  0  3.075279  0  0  -0.209425  0  3.346733  0  0  -0.216434  0  3.361502  0  -1.185318  0  -0.29513  -0.204432  0  3.33654  0
N  N91  1  0.64035781  0.47424629  0.09217649  1  0  -0.243563  0  3.075331  0  0  -0.209543  0  3.346798  0  0  -0.216554  0  3.361574  0  -1.185367  0  -0.295173  -0.20455  0  3.336605  0
N  N92  1  0.38384524  0.15323603  0.87451066  1  0  -0.255087  0  2.819646  0  0  -0.259449  0  3.086199  0  0  -0.267334  0  3.100675  0  -0.639078  0  -0.193758  -0.253833  0  3.076482  0
N  N93  1  0.61615639  0.84676423  0.12549091  1  0  -0.255093  0  2.819609  0  0  -0.259452  0  3.086166  0  0  -0.267337  0  3.10064  0  -0.639076  0  -0.193771  -0.253835  0  3.07645  0
N  N94  1  0.35637218  0.03449260  0.88601076  1  0  0.015166  0  3.5788  0  0  0.130633  0  3.761768  0  0  0.119048  0  3.785249  0  -0.858707  0  -0.108591  0.136662  0  3.748721  0
N  N95  1  0.64362997  0.96550872  0.11398969  1  0  0.015186  0  3.578817  0  0  0.130621  0  3.76182  0  0  0.11903  0  3.785312  0  -0.858773  0  -0.108636  0.136652  0  3.748772  0
N  N96  1  0.24323551  0.12097537  0.98108742  1  0  -0.422463  0  3.170495  0  0  -0.357739  0  3.4579  0  0  -0.379265  0  3.471003  0  -1.200986  0  -0.333529  -0.343082  0  3.448413  0
N  N97  1  0.75676756  0.87902595  0.01891467  1  0  -0.422423  0  3.170427  0  0  -0.357694  0  3.457817  0  0  -0.379219  0  3.470912  0  -1.201079  0  -0.333508  -0.343038  0  3.448332  0
N  N98  1  0.72817388  0.29775970  0.50613992  1  0  -0.303862  0  3.24836  0  0  -0.241914  0  3.502672  0  0  -0.256898  0  3.522511  0  -1.209141  0  -0.301611  -0.231452  0  3.489131  0
N  N99  1  0.27182683  0.70224057  0.49385926  1  0  -0.303895  0  3.248375  0  0  -0.241926  0  3.502679  0  0  -0.256908  0  3.522517  0  -1.20915  0  -0.30161  -0.231463  0  3.489137  0
N  N100  1  0.84842507  0.14498610  0.39627860  1  0  -0.239874  0  3.051536  0  0  -0.207686  0  3.328987  0  0  -0.214288  0  3.342345  0  -1.165871  0  -0.293537  -0.202724  0  3.319374  0
N  N101  1  0.15157420  0.85501311  0.60372083  1  0  -0.239979  0  3.051447  0  0  -0.207742  0  3.328943  0  0  -0.214343  0  3.342301  0  -1.165867  0  -0.293588  -0.202779  0  3.319326  0
N  N102  1  0.88202445  0.51650632  0.37062574  1  0  -0.261041  0  2.825187  0  0  -0.265547  0  3.089726  0  0  -0.273292  0  3.104876  0  -0.638006  0  -0.201421  -0.259805  0  3.079495  0
N  N103  1  0.11797535  0.48349394  0.62937485  1  0  -0.260965  0  2.825119  0  0  -0.265489  0  3.089631  0  0  -0.273234  0  3.10478  0  -0.638029  0  -0.201375  -0.259746  0  3.079397  0
N  N104  1  0.86031973  0.62742848  0.38634011  1  0  0.018564  0  3.560274  0  0  0.134159  0  3.742884  0  0  0.122713  0  3.766033  0  -0.822716  0  -0.10525  0.139875  0  3.73009  0
N  N105  1  0.13967954  0.37257073  0.61365933  1  0  0.018554  0  3.560235  0  0  0.134155  0  3.742858  0  0  0.122709  0  3.76601  0  -0.822757  0  -0.105269  0.13987  0  3.730064  0
N  N106  1  0.75181961  0.53355097  0.48577082  1  0  -0.409608  0  3.165684  0  0  -0.344988  0  3.446211  0  0  -0.366523  0  3.460881  0  -1.192527  0  -0.329741  -0.330454  0  3.435592  0
N  N107  1  0.24818111  0.46644930  0.51422988  1  0  -0.409689  0  3.16578  0  0  -0.345091  0  3.446316  0  0  -0.366623  0  3.460982  0  -1.192525  0  -0.329795  -0.330557  0  3.435698  0
Cl  Cl108  1  0.09226596  0.40423910  0.23324212  1  0  -0.588432  0  0.924226  0  0  -0.530008  0  1.199207  0  0  -0.548779  0  1.174356  0  -0.64301  0  -0.305597  -0.51606  0  1.217033  0
Cl  Cl109  1  0.90773672  0.59576328  0.76676024  1  0  -0.588435  0  0.924209  0  0  -0.530017  0  1.1992  0  0  -0.548779  0  1.174334  0  -0.643003  0  -0.305597  -0.516069  0  1.217024  0
Cl  Cl110  1  0.49097955  0.26607127  0.66050845  1  0  -0.631409  0  0.790113  0  0  -0.577243  0  1.037911  0  0  -0.595296  0  1.017021  0  -0.675406  0  -0.354683  -0.563766  0  1.052451  0
Cl  Cl111  1  0.50901933  0.73392899  0.33949050  1  0  -0.631398  0  0.790116  0  0  -0.577236  0  1.03791  0  0  -0.595289  0  1.017021  0  -0.675402  0  -0.354676  -0.563758  0  1.052451  0
O  O112  1  0.57338231  0.66857782  0.56919687  1  0  -0.629908  0  2.019831  0  0  -0.572014  0  2.278505  0  0  -0.599226  0  2.266761  0  -1.176604  0  -0.319787  -0.55245  0  2.28561  0
O  O113  1  0.42661500  0.33141928  0.43080090  1  0  -0.629844  0  2.019879  0  0  -0.571965  0  2.278563  0  0  -0.599169  0  2.266804  0  -1.176567  0  -0.31975  -0.552402  0  2.285672  0
O  O114  1  0.62346686  0.63327015  0.72395071  1  0  -0.669661  0  2.072608  0  0  -0.5866  0  2.33692  0  0  -0.619118  0  2.324599  0  -1.155066  0  -0.333471  -0.563232  0  2.344527  0
O  O115  1  0.37653621  0.36673117  0.27604835  1  0  -0.669673  0  2.072604  0  0  -0.586617  0  2.336924  0  0  -0.619137  0  2.324602  0  -1.155102  0  -0.333475  -0.56325  0  2.344534  0
O  O116  1  0.09480796  0.08735274  0.20238627  1  0  -0.621446  0  2.011477  0  0  -0.551577  0  2.262594  0  0  -0.581791  0  2.252627  0  -1.154366  0  -0.32603  -0.530109  0  2.268764  0
O  O117  1  0.90519184  0.91264752  0.79761584  1  0  -0.621588  0  2.011316  0  0  -0.55173  0  2.262442  0  0  -0.581942  0  2.252475  0  -1.154314  0  -0.326138  -0.530272  0  2.268638  0
O  O118  1  0.06006605  0.89109678  0.05344407  1  0  -0.679498  0  2.008555  0  0  -0.62113  0  2.27069  0  0  -0.64752  0  2.257033  0  -1.20199  0  -0.345353  -0.601979  0  2.279268  0
O  O119  1  0.93993322  0.10890243  0.94655688  1  0  -0.679538  0  2.008576  0  0  -0.62118  0  2.270713  0  0  -0.64757  0  2.257053  0  -1.201999  0  -0.345386  -0.60203  0  2.279293  0
