# generated using pymatgen
data_AlH7C13NO9
_symmetry_space_group_name_H-M   'P 1'
_cell_length_a   6.81922915
_cell_length_b   11.13793866
_cell_length_c   15.39899449
_cell_angle_alpha   82.44322596
_cell_angle_beta   75.64375047
_cell_angle_gamma   71.22639230
_symmetry_Int_Tables_number   1
_chemical_formula_structural   AlH7C13NO9
_chemical_formula_sum   'Al2 H14 C26 N2 O18'
_cell_volume   1071.07596384
_cell_formula_units_Z   2
loop_
 _symmetry_equiv_pos_site_id
 _symmetry_equiv_pos_as_xyz
  1  'x, y, z'
loop_
 _atom_site_type_symbol
 _atom_site_label
 _atom_site_symmetry_multiplicity
 _atom_site_fract_x
 _atom_site_fract_y
 _atom_site_fract_z
 _atom_site_occupancy
 _atom_site_pbe_bader_charge
 _atom_site_pbe_bader_spin_density
 _atom_site_pbe_cm5_charge
 _atom_site_pbe_ddec_charge
 _atom_site_pbe_ddec_spin_density
 _atom_site_pbe_ddec_sum_bond_order
 _atom_site_pbe_magmom
Al  Al0  1  0.49796847  0.49194339  0.50976118  1  2.507912  0  0.405212  1.640366  0  2.550371  0
Al  Al1  1  0.00047161  0.48670868  0.51062062  1  2.509448  0  0.402275  1.650641  0  2.547024  0
H  H2  1  0.23966303  0.40399901  0.61495109  1  0.620257  0  0.334966  0.411991  0  0.897914  0
H  H3  1  0.71921780  0.62736271  0.43654720  1  0.620466  0  0.339833  0.415364  0  0.885341  0
H  H4  1  0.85139362  0.46902909  0.94061591  1  0.064382  0  0.113607  0.119337  0  1.004545  0
H  H5  1  0.15564835  0.48431887  0.07762681  1  0.071703  0  0.113184  0.118003  0  1.005631  0
H  H6  1  0.68526117  0.52166379  0.23303511  1  0.186408  0  0.110374  0.099741  0  1.117893  0
H  H7  1  0.75654502  0.54467922  0.06647195  1  0.023472  0  0.103424  0.098665  0  1.014963  0
H  H8  1  0.26046578  0.57510212  0.78258989  1  0.166141  0  0.112516  0.112491  0  1.077047  0
H  H9  1  0.17851575  0.58217521  0.94861892  1  0.063882  0  0.105065  0.102804  0  1.005978  0
H  H10  1  0.25280584  0.22625467  0.38308143  1  0.045197  0  0.100407  0.115278  0  1.064953  0
H  H11  1  0.45457396  0.76007940  0.36907097  1  0.074273  0  0.099501  0.113802  0  1.049458  0
H  H12  1  0.76760773  0.77985095  0.54996095  1  0.632544  0  0.314386  0.354156  0  0.962465  0
H  H13  1  0.56243241  0.20932789  0.54537021  1  0.661066  0  0.316314  0.355841  0  0.966244  0
H  H14  1  0.57573986  0.21004543  0.29183896  1  0.605181  0  0.323699  0.348906  0  0.903236  0
H  H15  1  0.76411619  0.77842532  0.27293517  1  0.632207  0  0.310164  0.344304  0  0.957384  0
C  C16  1  0.87772583  0.26289606  0.49757907  1  1.489303  0  0.269242  0.669566  0  4.029363  0
C  C17  1  0.64446730  0.50821082  0.66927320  1  1.618032  0  0.276485  0.655258  0  4.07855  0
C  C18  1  0.13013550  0.71958386  0.49684011  1  1.517329  0  0.262786  0.661997  0  4.045015  0
C  C19  1  0.34669435  0.48464551  0.34920650  1  1.589474  0  0.267061  0.632315  0  4.117128  0
C  C20  1  0.59539388  0.52194726  0.76829196  1  0.080451  0  0.000953  -0.075907  0  3.918953  0
C  C21  1  0.38596877  0.49375815  0.24897279  1  0.041948  0  -0.005726  -0.092854  0  3.955523  0
C  C22  1  0.75566015  0.50056255  0.81539237  1  0.158345  0  0.093692  0.076825  0  3.959202  0
C  C23  1  0.71740224  0.49458532  0.90823704  1  0.008704  0  -0.076829  -0.182151  0  3.937403  0
C  C24  1  0.23665902  0.48974406  0.20246455  1  0.13455  0  0.092091  0.070789  0  3.973746  0
C  C25  1  0.27404244  0.49537919  0.10953621  1  0.094088  0  -0.076006  -0.179518  0  3.926826  0
C  C26  1  0.57418862  0.51205027  0.19688289  1  0.004346  0  -0.075762  -0.05958  0  3.965235  0
C  C27  1  0.61205513  0.52386739  0.10392290  1  -0.02296  0  -0.080125  -0.116706  0  3.937547  0
C  C28  1  0.38711437  0.55138564  0.81897295  1  -0.01793  0  -0.068628  -0.052337  0  3.941126  0
C  C29  1  0.34348714  0.55312091  0.91193768  1  -0.019254  0  -0.080538  -0.122777  0  3.942117  0
C  C30  1  0.50784242  0.51988123  0.95886542  1  0.063643  0  0.008131  0.094375  0  3.978489  0
C  C31  1  0.46501784  0.51286043  0.05787041  1  -0.07286  0  0.012259  0.102905  0  3.966822  0
C  C32  1  0.94102715  0.12736916  0.48090517  1  -0.008266  0  -0.031501  -0.235831  0  3.940756  0
C  C33  1  0.15162423  0.05997666  0.43275627  1  0.014993  0  -0.008657  0.088622  0  3.983325  0
C  C34  1  0.79015375  0.06196082  0.51508367  1  0.65693  0  0.096465  0.222888  0  4.030109  0
C  C35  1  0.29585432  0.12360933  0.38213601  1  0.036601  0  -0.118569  -0.276667  0  4.017185  0
C  C36  1  0.48893117  0.06032697  0.32974629  1  0.497771  0  0.06748  0.214867  0  4.091139  0
C  C37  1  0.06473582  0.85784223  0.47965717  1  0.030173  0  -0.034355  -0.235131  0  3.955987  0
C  C38  1  0.85369305  0.92610715  0.51575182  1  0.530407  0  0.09417  0.221161  0  4.02968  0
C  C39  1  0.21238799  0.92460625  0.43050280  1  -0.016438  0  -0.010309  0.088218  0  3.99415  0
C  C40  1  0.40999966  0.86214165  0.37520204  1  0.032071  0  -0.126484  -0.294057  0  4.025636  0
C  C41  1  0.54698955  0.92687193  0.32520045  1  0.50037  0  0.067113  0.220772  0  4.099354  0
N  N42  1  0.97313704  0.49447729  0.76655879  1  0.393454  0  0.059874  0.510794  0  4.231425  0
N  N43  1  0.02610017  0.48294145  0.25158584  1  0.404286  0  0.062657  0.520676  0  4.207634  0
O  O44  1  0.67477301  0.32187789  0.51862949  1  -1.266474  0  -0.245123  -0.626849  0  2.390855  0
O  O45  1  0.84051266  0.48205350  0.63057946  1  -1.262154  0  -0.231184  -0.605605  0  2.409932  0
O  O46  1  0.98307691  0.66306292  0.51692387  1  -1.261045  0  -0.246336  -0.625208  0  2.374853  0
O  O47  1  0.50173694  0.47030865  0.38508304  1  -1.240018  0  -0.225467  -0.562208  0  2.342035  0
O  O48  1  0.32573314  0.66046750  0.49329782  1  -1.275918  0  -0.232892  -0.592112  0  2.394895  0
O  O49  1  0.15658827  0.49303198  0.38992596  1  -1.255709  0  -0.228608  -0.591776  0  2.429564  0
O  O50  1  0.01703292  0.31732705  0.49510921  1  -1.256388  0  -0.227357  -0.568163  0  2.360141  0
O  O51  1  0.49147418  0.51902788  0.63290238  1  -1.241205  0  -0.222772  -0.567885  0  2.338677  0
O  O52  1  0.25710270  0.43281428  0.55169897  1  -1.429002  0  -0.449735  -0.97735  0  2.124635  0
O  O53  1  0.74206866  0.54642750  0.47074841  1  -1.425091  0  -0.452948  -0.989178  0  2.18384  0
O  O54  1  0.99879294  0.59857629  0.73751516  1  -0.42745  0  -0.090387  -0.277084  0  1.947022  0
O  O55  1  0.11356457  0.39068561  0.76150050  1  -0.445132  0  -0.109883  -0.310609  0  1.897209  0
O  O56  1  0.88766114  0.58705316  0.26750615  1  -0.488391  0  -0.104856  -0.317569  0  2.021922  0
O  O57  1  0.99696125  0.37823441  0.26850851  1  -0.396582  0  -0.076497  -0.25982  0  1.920403  0
O  O58  1  0.70089048  0.87310286  0.55672524  1  -1.127069  0  -0.338262  -0.400454  0  2.288316  0
O  O59  1  0.58539045  0.11569581  0.55310274  1  -1.15201  0  -0.337007  -0.397291  0  2.299039  0
O  O60  1  0.62990714  0.12038189  0.27932482  1  -1.122785  0  -0.357805  -0.423919  0  2.256151  0
O  O61  1  0.73731471  0.87025913  0.26994882  1  -1.151681  0  -0.364778  -0.437116  0  2.279083  0
