# generated using pymatgen
data_SnH25C30NO4
_symmetry_space_group_name_H-M   'P 1'
_cell_length_a   9.75024700
_cell_length_b   11.29765970
_cell_length_c   12.05710000
_cell_angle_alpha   73.13774263
_cell_angle_beta   87.08039865
_cell_angle_gamma   79.81652320
_symmetry_Int_Tables_number   1
_chemical_formula_structural   SnH25C30NO4
_chemical_formula_sum   'Sn2 H50 C60 N2 O8'
_cell_volume   1251.02223022
_cell_formula_units_Z   2
loop_
 _symmetry_equiv_pos_site_id
 _symmetry_equiv_pos_as_xyz
  1  'x, y, z'
loop_
 _atom_site_type_symbol
 _atom_site_label
 _atom_site_symmetry_multiplicity
 _atom_site_fract_x
 _atom_site_fract_y
 _atom_site_fract_z
 _atom_site_occupancy
 _atom_site_hle17_bader_spin_density
 _atom_site_hle17_ddec_charge
 _atom_site_hle17_ddec_spin_density
 _atom_site_hle17_ddec_sum_bond_order
 _atom_site_hle17_magmom
 _atom_site_hse06_10hf_bader_spin_density
 _atom_site_hse06_10hf_ddec_charge
 _atom_site_hse06_10hf_ddec_spin_density
 _atom_site_hse06_10hf_ddec_sum_bond_order
 _atom_site_hse06_10hf_magmom
 _atom_site_hse06_bader_spin_density
 _atom_site_hse06_ddec_charge
 _atom_site_hse06_ddec_spin_density
 _atom_site_hse06_ddec_sum_bond_order
 _atom_site_hse06_magmom
 _atom_site_pbe_bader_charge
 _atom_site_pbe_bader_spin_density
 _atom_site_pbe_cm5_charge
 _atom_site_pbe_ddec_charge
 _atom_site_pbe_ddec_spin_density
 _atom_site_pbe_ddec_sum_bond_order
 _atom_site_pbe_magmom
Sn  Sn0  1  0.12089156  0.21600647  0.36488627  1  0  1.231882  0  2.880063  0  0  1.040837  0  3.349619  0  0  1.08586  0  3.334715  0  1.713449  0  0.555655  1.010446  0  3.359196  0
Sn  Sn1  1  0.87910978  0.78399339  0.63511387  1  0  1.231843  0  2.880045  0  0  1.040805  0  3.349592  0  0  1.085822  0  3.334689  0  1.71346  0  0.555628  1.010411  0  3.359168  0
H  H2  1  0.00648389  0.11523430  0.61779299  1  0  0.085696  0  0.987497  0  0  0.094643  0  1.055456  0  0  0.097038  0  1.054565  0  0.068683  0  0.096882  0.092989  0  1.056021  0
H  H3  1  0.99351727  0.88476651  0.38220608  1  0  0.085701  0  0.987475  0  0  0.094649  0  1.055429  0  0  0.097048  0  1.054531  0  0.068679  0  0.096872  0.092994  0  1.055996  0
H  H4  1  0.10224451  0.00634231  0.81309504  1  0  0.078454  0  0.979081  0  0  0.090523  0  1.040384  0  0  0.092253  0  1.041273  0  0.064571  0  0.094027  0.089609  0  1.039673  0
H  H5  1  0.89775545  0.99365943  0.18690382  1  0  0.078457  0  0.979085  0  0  0.090528  0  1.040385  0  0  0.092258  0  1.041274  0  0.064552  0  0.094045  0.089614  0  1.039674  0
H  H6  1  0.36005925  0.95428229  0.84456010  1  0  0.082879  0  0.957083  0  0  0.095668  0  1.014674  0  0  0.098538  0  1.013554  0  0.098406  0  0.097516  0.09366  0  1.01551  0
H  H7  1  0.63994089  0.04571851  0.15543818  1  0  0.082857  0  0.957058  0  0  0.095662  0  1.014635  0  0  0.098531  0  1.013517  0  0.098333  0  0.097523  0.093656  0  1.01547  0
H  H8  1  0.51890091  0.00351089  0.67631729  1  0  0.082743  0  0.981806  0  0  0.093731  0  1.044107  0  0  0.095871  0  1.044438  0  0.056625  0  0.095322  0.092591  0  1.043546  0
H  H9  1  0.48109837  0.99648898  0.32368128  1  0  0.082754  0  0.981831  0  0  0.093752  0  1.044109  0  0  0.095892  0  1.044442  0  0.056629  0  0.095342  0.092612  0  1.043548  0
H  H10  1  0.42367060  0.10900179  0.47930690  1  0  0.073309  0  1.006803  0  0  0.083021  0  1.075855  0  0  0.08468  0  1.076131  0  0.050355  0  0.093016  0.081665  0  1.075556  0
H  H11  1  0.57633074  0.89099808  0.52069159  1  0  0.073321  0  1.006797  0  0  0.083033  0  1.075846  0  0  0.084691  0  1.076123  0  0.050396  0  0.093032  0.081677  0  1.075548  0
H  H12  1  0.03435787  0.23889904  0.10623144  1  0  0.072235  0  0.987253  0  0  0.083741  0  1.052908  0  0  0.086423  0  1.050626  0  0.047885  0  0.094591  0.081706  0  1.054759  0
H  H13  1  0.96564347  0.76110082  0.89376871  1  0  0.072286  0  0.987195  0  0  0.083776  0  1.052868  0  0  0.08646  0  1.050582  0  0.047797  0  0.094582  0.081741  0  1.05472  0
H  H14  1  0.09434756  0.11013830  0.96929500  1  0  0.078432  0  0.975912  0  0  0.08923  0  1.041176  0  0  0.091384  0  1.041022  0  0.085521  0  0.095819  0.087657  0  1.041428  0
H  H15  1  0.90565208  0.88985969  0.03070572  1  0  0.078471  0  0.975923  0  0  0.089279  0  1.041171  0  0  0.09143  0  1.04102  0  0.085517  0  0.095832  0.087707  0  1.041424  0
H  H16  1  0.23435806  0.89503546  0.03784506  1  0  0.082881  0  0.959956  0  0  0.094811  0  1.019149  0  0  0.097264  0  1.018904  0  0.057353  0  0.097436  0.09314  0  1.019185  0
H  H17  1  0.76564260  0.10496253  0.96215479  1  0  0.082888  0  0.959999  0  0  0.094813  0  1.019193  0  0  0.097265  0  1.018949  0  0.05737  0  0.097432  0.093141  0  1.019229  0
H  H18  1  0.31342502  0.81072533  0.24321857  1  0  0.091224  0  0.991245  0  0  0.098736  0  1.057654  0  0  0.101288  0  1.057539  0  0.07584  0  0.097939  0.096774  0  1.058133  0
H  H19  1  0.68657547  0.18927360  0.75678104  1  0  0.091225  0  0.991279  0  0  0.098726  0  1.0577  0  0  0.101279  0  1.057584  0  0.075858  0  0.097934  0.096765  0  1.058179  0
H  H20  1  0.26112447  0.94164460  0.37718311  1  0  0.081332  0  0.958832  0  0  0.092167  0  1.023476  0  0  0.09423  0  1.023153  0  0.077012  0  0.099269  0.090597  0  1.023884  0
H  H21  1  0.73887500  0.05835433  0.62281654  1  0  0.081332  0  0.958811  0  0  0.092181  0  1.02344  0  0  0.094245  0  1.023116  0  0.077013  0  0.099278  0.090612  0  1.023847  0
H  H22  1  0.04321942  0.42900790  0.12364584  1  0  0.076351  0  0.962435  0  0  0.090302  0  1.022401  0  0  0.09255  0  1.021073  0  0.04053  0  0.096652  0.088817  0  1.023138  0
H  H23  1  0.95678192  0.57099196  0.87635348  1  0  0.076344  0  0.962449  0  0  0.090297  0  1.022415  0  0  0.092546  0  1.021085  0  0.040527  0  0.096651  0.088814  0  1.023149  0
H  H24  1  0.00327169  0.66052385  0.05931697  1  0  0.073837  0  0.986374  0  0  0.087477  0  1.046121  0  0  0.089673  0  1.045256  0  0.045362  0  0.094834  0.08583  0  1.047134  0
H  H25  1  0.99672982  0.33947508  0.94068342  1  0  0.073809  0  0.986388  0  0  0.087445  0  1.04614  0  0  0.089642  0  1.045274  0  0.045357  0  0.094815  0.085798  0  1.047154  0
H  H26  1  0.02649947  0.78093298  0.19884454  1  0  0.075041  0  0.992993  0  0  0.083933  0  1.061492  0  0  0.085917  0  1.061801  0  0.075067  0  0.094273  0.082554  0  1.061403  0
H  H27  1  0.97350067  0.21906783  0.80115540  1  0  0.075045  0  0.992977  0  0  0.083953  0  1.061465  0  0  0.085937  0  1.061774  0  0.075079  0  0.094277  0.082574  0  1.061376  0
H  H28  1  0.09012451  0.66799986  0.40379839  1  0  0.089313  0  0.960393  0  0  0.09905  0  1.02386  0  0  0.101723  0  1.022938  0  0.056661  0  0.100581  0.097157  0  1.024796  0
H  H29  1  0.90987477  0.33200001  0.59620267  1  0  0.089315  0  0.960388  0  0  0.099053  0  1.023854  0  0  0.101725  0  1.02293  0  0.05666  0  0.100588  0.09716  0  1.02479  0
H  H30  1  0.12792713  0.43592645  0.46976879  1  0  0.073909  0  0.985962  0  0  0.086627  0  1.049685  0  0  0.08831  0  1.050174  0  0.040083  0  0.096917  0.085488  0  1.04947  0
H  H31  1  0.87207300  0.56407436  0.53023115  1  0  0.073901  0  0.985965  0  0  0.086616  0  1.049693  0  0  0.0883  0  1.050181  0  0.040084  0  0.096916  0.085478  0  1.049478  0
H  H32  1  0.68385772  0.30301946  0.50431481  1  0  0.136762  0  0.951728  0  0  0.142037  0  1.015021  0  0  0.146747  0  1.011748  0  0.136693  0  0.113442  0.138674  0  1.017551  0
H  H33  1  0.31614036  0.69698135  0.49568604  1  0  0.136807  0  0.951709  0  0  0.142092  0  1.014978  0  0  0.146802  0  1.011708  0  0.13671  0  0.113472  0.13873  0  1.017509  0
H  H34  1  0.45982770  0.32040873  0.44410978  1  0  0.12321  0  0.941374  0  0  0.130342  0  1.005085  0  0  0.13409  0  1.003007  0  0.094721  0  0.114755  0.127904  0  1.006274  0
H  H35  1  0.54017141  0.67959208  0.55589020  1  0  0.123215  0  0.941379  0  0  0.130345  0  1.005085  0  0  0.134093  0  1.00301  0  0.094728  0  0.114753  0.127907  0  1.006276  0
H  H36  1  0.33073186  0.25778239  0.10007988  1  0  0.113935  0  0.995245  0  0  0.118622  0  1.06227  0  0  0.121928  0  1.061624  0  0.113262  0  0.100637  0.116141  0  1.063057  0
H  H37  1  0.66926760  0.74221654  0.89991977  1  0  0.113945  0  0.995245  0  0  0.118633  0  1.062269  0  0  0.121939  0  1.061623  0  0.113267  0  0.100644  0.116155  0  1.063052  0
H  H38  1  0.28147265  0.29046622  0.89350401  1  0  0.088491  0  0.962683  0  0  0.099771  0  1.024754  0  0  0.101554  0  1.024919  0  0.07238  0  0.101111  0.098054  0  1.025409  0
H  H39  1  0.71852663  0.70953364  0.10649622  1  0  0.088556  0  0.962641  0  0  0.099825  0  1.024717  0  0  0.101612  0  1.024883  0  0.072384  0  0.101131  0.098107  0  1.025374  0
H  H40  1  0.67645734  0.41280301  0.79854061  1  0  0.09962  0  0.966977  0  0  0.106928  0  1.033451  0  0  0.10897  0  1.033598  0  0.116896  0  0.103185  0.104758  0  1.034835  0
H  H41  1  0.32354280  0.58719780  0.20145850  1  0  0.099635  0  0.966998  0  0  0.106955  0  1.033458  0  0  0.108994  0  1.033598  0  0.116901  0  0.103188  0.104785  0  1.034843  0
H  H42  1  0.72281606  0.38758486  0.00574138  1  0  0.107636  0  0.943478  0  0  0.119375  0  1.000898  0  0  0.122402  0  1.000181  0  0.082904  0  0.106472  0.117176  0  1.001675  0
H  H43  1  0.27718528  0.61241501  0.99425794  1  0  0.107676  0  0.943537  0  0  0.119414  0  1.000944  0  0  0.122441  0  1.000228  0  0.082898  0  0.106492  0.117215  0  1.001721  0
H  H44  1  0.30466941  0.41860193  0.57095897  1  0  0.133532  0  0.951305  0  0  0.154153  0  1.009758  0  0  0.156427  0  1.008397  0  0.0765  0  0.098544  0.152612  0  1.01066  0
H  H45  1  0.69532987  0.58139793  0.42904210  1  0  0.133515  0  0.951308  0  0  0.154135  0  1.009765  0  0  0.156408  0  1.008406  0  0.076492  0  0.098543  0.152593  0  1.010667  0
H  H46  1  0.22941505  0.44020502  0.70453230  1  0  0.131483  0  0.954584  0  0  0.14968  0  1.017375  0  0  0.150851  0  1.019103  0  0.063051  0  0.094105  0.148781  0  1.016741  0
H  H47  1  0.77058201  0.55979578  0.29546860  1  0  0.131483  0  0.954634  0  0  0.149678  0  1.017417  0  0  0.150852  0  1.019139  0  0.063081  0  0.094109  0.148779  0  1.016782  0
H  H48  1  0.27602437  0.28712895  0.68853287  1  0  0.135507  0  0.952248  0  0  0.154803  0  1.015602  0  0  0.155533  0  1.018106  0  0.095632  0  0.098659  0.154044  0  1.014669  0
H  H49  1  0.72397491  0.71287091  0.31146819  1  0  0.135541  0  0.952213  0  0  0.154819  0  1.015588  0  0  0.155548  0  1.018094  0  0.09566  0  0.098667  0.154058  0  1.014656  0
H  H50  1  0.66399011  0.32537897  0.19347486  1  0  0.300464  0  0.952452  0  0  0.280355  0  1.017445  0  0  0.289505  0  1.01065  0  0.532825  0  0.301093  0.27409  0  1.022076  0
H  H51  1  0.33601020  0.67462090  0.80652533  1  0  0.300543  0  0.952485  0  0  0.280431  0  1.017464  0  0  0.289583  0  1.010668  0  0.532819  0  0.301128  0.274166  0  1.022096  0
C  C52  1  0.20803522  0.12317016  0.53431750  1  0  -0.31173  0  3.699725  0  0  -0.254691  0  3.954127  0  0  -0.268236  0  3.984962  0  -0.348178  0  -0.10528  -0.245854  0  3.933092  0
C  C53  1  0.79196389  0.87683064  0.46568166  1  0  -0.311713  0  3.699855  0  0  -0.254669  0  3.954234  0  0  -0.268211  0  3.985068  0  -0.348156  0  -0.105252  -0.24583  0  3.933197  0
C  C54  1  0.11899444  0.09248250  0.62963125  1  0  -0.047676  0  3.804287  0  0  -0.069569  0  4.048227  0  0  -0.068968  0  4.072119  0  -0.042083  0  -0.094643  -0.069563  0  4.031786  0
C  C55  1  0.88100552  0.90751924  0.37036679  1  0  -0.047692  0  3.804358  0  0  -0.069581  0  4.048291  0  0  -0.068985  0  4.072191  0  -0.042073  0  -0.09464  -0.069576  0  4.03185  0
C  C56  1  0.17332261  0.03141218  0.74063181  1  0  -0.074962  0  3.762956  0  0  -0.084639  0  4.007841  0  0  -0.087371  0  4.029191  0  -0.084324  0  -0.096165  -0.083138  0  3.993568  0
C  C57  1  0.82667837  0.96858956  0.25936784  1  0  -0.075003  0  3.763058  0  0  -0.084684  0  4.007952  0  0  -0.087416  0  4.029302  0  -0.084375  0  -0.096227  -0.083182  0  3.993678  0
C  C58  1  0.31718825  0.00100418  0.75798538  1  0  -0.065686  0  3.768658  0  0  -0.078348  0  4.010583  0  0  -0.078679  0  4.03007  0  -0.046874  0  -0.094059  -0.077904  0  3.997278  0
C  C59  1  0.68281207  0.99899568  0.24201481  1  0  -0.065623  0  3.768632  0  0  -0.078297  0  4.010562  0  0  -0.078625  0  4.030047  0  -0.046789  0  -0.094027  -0.077853  0  3.997257  0
C  C60  1  0.40658760  0.02914854  0.66331164  1  0  -0.074566  0  3.759283  0  0  -0.082407  0  3.998992  0  0  -0.085687  0  4.021101  0  -0.129431  0  -0.098021  -0.080464  0  3.983565  0
C  C61  1  0.59341357  0.97085226  0.33668743  1  0  -0.074619  0  3.759388  0  0  -0.082469  0  3.999116  0  0  -0.085748  0  4.021223  0  -0.129432  0  -0.098059  -0.080526  0  3.983688  0
C  C62  1  0.35238224  0.08903167  0.55218498  1  0  -0.060618  0  3.836302  0  0  -0.079386  0  4.075433  0  0  -0.079655  0  4.101008  0  -0.010608  0  -0.098963  -0.078605  0  4.05767  0
C  C63  1  0.64761910  0.91096819  0.44781434  1  0  -0.060594  0  3.836488  0  0  -0.079369  0  4.075621  0  0  -0.079639  0  4.101197  0  -0.010614  0  -0.098962  -0.078588  0  4.057857  0
C  C64  1  0.14773921  0.10134559  0.24965340  1  0  -0.284011  0  3.689559  0  0  -0.233058  0  3.949833  0  0  -0.24497  0  3.978796  0  -0.364703  0  -0.096233  -0.225302  0  3.9303  0
C  C65  1  0.85226128  0.89865334  0.75034538  1  0  -0.283916  0  3.689397  0  0  -0.232962  0  3.949671  0  0  -0.244873  0  3.978633  0  -0.364694  0  -0.096195  -0.225206  0  3.930137  0
C  C66  1  0.09962811  0.14681259  0.13505136  1  0  -0.054129  0  3.825669  0  0  -0.074893  0  4.071677  0  0  -0.074668  0  4.094678  0  -0.071197  0  -0.092473  -0.074652  0  4.055982  0
C  C67  1  0.90037220  0.85318728  0.86494799  1  0  -0.054288  0  3.825546  0  0  -0.075041  0  4.071553  0  0  -0.074814  0  4.094552  0  -0.071097  0  -0.092534  -0.0748  0  4.055858  0
C  C68  1  0.13151057  0.07364514  0.05855750  1  0  -0.081817  0  3.773044  0  0  -0.091924  0  4.017799  0  0  -0.094719  0  4.039867  0  -0.070386  0  -0.095156  -0.090385  0  4.002825  0
C  C69  1  0.86848752  0.92635566  0.94144252  1  0  -0.081847  0  3.773115  0  0  -0.091961  0  4.017848  0  0  -0.094756  0  4.03992  0  -0.070386  0  -0.095143  -0.090425  0  4.002873  0
C  C70  1  0.20988361  0.95315235  0.09680516  1  0  -0.070895  0  3.769128  0  0  -0.081458  0  4.008937  0  0  -0.082717  0  4.029896  0  -0.100042  0  -0.09106  -0.08018  0  3.994397  0
C  C71  1  0.79011568  0.04684751  0.90319507  1  0  -0.0709  0  3.76923  0  0  -0.081459  0  4.009043  0  0  -0.082719  0  4.030001  0  -0.100073  0  -0.091068  -0.080184  0  3.994504  0
C  C72  1  0.25533527  0.90572485  0.21175766  1  0  -0.068111  0  3.738037  0  0  -0.076669  0  3.976359  0  0  -0.079378  0  3.997858  0  0.035348  0  -0.089318  -0.074883  0  3.961731  0
C  C73  1  0.74466402  0.09427501  0.78824257  1  0  -0.068105  0  3.738058  0  0  -0.076658  0  3.976379  0  0  -0.079366  0  3.997877  0  0.035574  0  -0.089306  -0.074873  0  3.961754  0
C  C74  1  0.22508440  0.97998470  0.28748515  1  0  -0.048413  0  3.801543  0  0  -0.065389  0  4.041326  0  0  -0.065079  0  4.063979  0  -0.08425  0  -0.088607  -0.065476  0  4.026121  0
C  C75  1  0.77491609  0.02001422  0.71251528  1  0  -0.048408  0  3.801506  0  0  -0.065393  0  4.04129  0  0  -0.065084  0  4.063943  0  -0.084472  0  -0.088612  -0.06548  0  4.026084  0
C  C76  1  0.08924713  0.41592536  0.30151072  1  0  -0.284731  0  3.709994  0  0  -0.234714  0  3.969058  0  0  -0.246842  0  3.998986  0  -0.360131  0  -0.098996  -0.225629  0  3.947927  0
C  C77  1  0.91075319  0.58407451  0.69848947  1  0  -0.284764  0  3.709911  0  0  -0.234741  0  3.968969  0  0  -0.246869  0  3.998894  0  -0.360132  0  -0.099012  -0.225655  0  3.947838  0
C  C78  1  0.05409026  0.48022972  0.18578935  1  0  -0.042436  0  3.81299  0  0  -0.063203  0  4.05718  0  0  -0.062194  0  4.079655  0  0.021619  0  -0.092646  -0.063812  0  4.041153  0
C  C79  1  0.94591005  0.51977015  0.81421167  1  0  -0.042404  0  3.812898  0  0  -0.063178  0  4.057091  0  0  -0.062169  0  4.079565  0  0.0216  0  -0.09262  -0.063786  0  4.041065  0
C  C80  1  0.03112704  0.61117902  0.14927608  1  0  -0.086717  0  3.784656  0  0  -0.095395  0  4.02774  0  0  -0.098096  0  4.049173  0  -0.108904  0  -0.097096  -0.093492  0  4.01364  0
C  C81  1  0.96887310  0.38882179  0.85072386  1  0  -0.08666  0  3.7846  0  0  -0.095333  0  4.027682  0  0  -0.098034  0  4.049113  0  -0.108902  0  -0.097065  -0.093431  0  4.013583  0
C  C82  1  0.04368110  0.67885536  0.22744670  1  0  -0.070588  0  3.774388  0  0  -0.084689  0  4.020291  0  0  -0.086167  0  4.042225  0  -0.073357  0  -0.092272  -0.083817  0  4.007087  0
C  C83  1  0.95631922  0.32114450  0.77255349  1  0  -0.070635  0  3.774344  0  0  -0.084752  0  4.020251  0  0  -0.086231  0  4.042185  0  -0.073354  0  -0.092292  -0.083881  0  4.007049  0
C  C84  1  0.07950770  0.61557584  0.34258575  1  0  -0.060531  0  3.738945  0  0  -0.070259  0  3.983566  0  0  -0.072365  0  4.003845  0  0.000401  0  -0.088679  -0.069656  0  3.972426  0
C  C85  1  0.92049244  0.38442496  0.65741420  1  0  -0.060521  0  3.738977  0  0  -0.070248  0  3.9836  0  0  -0.072351  0  4.003876  0  0.000411  0  -0.088688  -0.069644  0  3.97246  0
C  C86  1  0.10171176  0.48455146  0.37927759  1  0  -0.057924  0  3.812559  0  0  -0.076283  0  4.051169  0  0  -0.076692  0  4.075456  0  -0.055555  0  -0.0925  -0.076466  0  4.035803  0
C  C87  1  0.89828753  0.51544841  0.62072264  1  0  -0.057898  0  3.812616  0  0  -0.076259  0  4.051222  0  0  -0.076668  0  4.075508  0  -0.055553  0  -0.092496  -0.076442  0  4.035854  0
C  C88  1  0.80837917  0.26598573  0.35926783  1  0  0.674931  0  3.873243  0  0  0.627906  0  4.165859  0  0  0.662053  0  4.157024  0  1.558039  0  0.221821  0.604654  0  4.171264  0
C  C89  1  0.19162114  0.73401414  0.64073319  1  0  0.674907  0  3.873216  0  0  0.62792  0  4.165781  0  0  0.662067  0  4.156944  0  1.558048  0  0.221783  0.604668  0  4.171186  0
C  C90  1  0.67331976  0.29183735  0.41836866  1  0  -0.16813  0  3.616208  0  0  -0.185834  0  3.873032  0  0  -0.19032  0  3.884799  0  -0.121577  0  -0.077525  -0.182645  0  3.864529  0
C  C91  1  0.32668038  0.70816345  0.58163211  1  0  -0.168183  0  3.616318  0  0  -0.185907  0  3.873134  0  0  -0.190395  0  3.884902  0  -0.121576  0  -0.077551  -0.182717  0  3.864628  0
C  C92  1  0.54166583  0.30240099  0.38298239  1  0  -0.149528  0  3.656303  0  0  -0.171112  0  3.918336  0  0  -0.174815  0  3.932141  0  0.02206  0  -0.072133  -0.168199  0  3.907947  0
C  C93  1  0.45833430  0.69759981  0.61701755  1  0  -0.149511  0  3.65634  0  0  -0.171085  0  3.918371  0  0  -0.174788  0  3.932175  0  0.022049  0  -0.072119  -0.168174  0  3.907983  0
C  C94  1  0.48424844  0.28764137  0.27717785  1  0  0.588424  0  3.804628  0  0  0.542839  0  4.08975  0  0  0.573272  0  4.087315  0  1.380122  0  0.249062  0.522567  0  4.090737  0
C  C95  1  0.51575170  0.71235944  0.72282209  1  0  0.588445  0  3.804615  0  0  0.542855  0  4.089747  0  0  0.57329  0  4.087309  0  1.380125  0  0.24906  0.522584  0  4.090734  0
C  C96  1  0.52928455  0.32162407  0.06657399  1  0  0.274821  0  3.772209  0  0  0.266778  0  4.020625  0  0  0.277187  0  4.040772  0  0.32114  0  0.109831  0.260062  0  4.006913  0
C  C97  1  0.47071679  0.67837580  0.93342533  1  0  0.274795  0  3.772172  0  0  0.266709  0  4.020667  0  0  0.277117  0  4.040814  0  0.321152  0  0.109796  0.259994  0  4.006953  0
C  C98  1  0.40494201  0.29346470  0.03411623  1  0  -0.168051  0  3.706672  0  0  -0.186865  0  3.956038  0  0  -0.193837  0  3.976439  0  -0.019165  0  -0.097659  -0.18254  0  3.942439  0
C  C99  1  0.59505848  0.70653423  0.96588420  1  0  -0.168079  0  3.706745  0  0  -0.186885  0  3.956124  0  0  -0.193856  0  3.976526  0  -0.019171  0  -0.097689  -0.18256  0  3.942522  0
C  C100  1  0.37860678  0.31206462  0.91741855  1  0  -0.055741  0  3.748787  0  0  -0.075238  0  3.98999  0  0  -0.073662  0  4.011955  0  -0.054253  0  -0.08094  -0.075564  0  3.974827  0
C  C101  1  0.62139371  0.68793431  0.08258189  1  0  -0.055789  0  3.74884  0  0  -0.075265  0  3.990024  0  0  -0.073695  0  4.011995  0  -0.054263  0  -0.080933  -0.075591  0  3.974861  0
C  C102  1  0.47554972  0.35463074  0.83141037  1  0  -0.079681  0  3.781356  0  0  -0.062299  0  4.016122  0  0  -0.071881  0  4.042034  0  -0.009146  0  -0.030731  -0.05607  0  3.998133  0
C  C103  1  0.52445060  0.64536912  0.16858982  1  0  -0.079612  0  3.781347  0  0  -0.062244  0  4.016123  0  0  -0.071826  0  4.042033  0  -0.009136  0  -0.030747  -0.056017  0  3.998133  0
C  C104  1  0.60110770  0.37953543  0.86512070  1  0  -0.047935  0  3.744598  0  0  -0.074649  0  4.000494  0  0  -0.072441  0  4.021142  0  -0.101819  0  -0.080401  -0.075569  0  3.986812  0
C  C105  1  0.39889159  0.62046443  0.13487870  1  0  -0.048032  0  3.744633  0  0  -0.074762  0  4.000542  0  0  -0.072546  0  4.021197  0  -0.102039  0  -0.080425  -0.075682  0  3.986861  0
C  C106  1  0.62732245  0.36432534  0.98049725  1  0  -0.169231  0  3.713003  0  0  -0.187133  0  3.967456  0  0  -0.194197  0  3.988226  0  0.025737  0  -0.092229  -0.182778  0  3.953533  0
C  C107  1  0.37267701  0.63567359  0.01950240  1  0  -0.169224  0  3.713048  0  0  -0.187109  0  3.967506  0  0  -0.194173  0  3.988275  0  0.025953  0  -0.092212  -0.182754  0  3.953582  0
C  C108  1  0.45215686  0.37045273  0.70701286  1  0  0.483451  0  3.696733  0  0  0.473371  0  3.961208  0  0  0.495291  0  3.96427  0  0.934079  0  0.158747  0.458814  0  3.958182  0
C  C109  1  0.54784242  0.62954713  0.29298737  1  0  0.483427  0  3.696761  0  0  0.473368  0  3.961215  0  0  0.495285  0  3.96428  0  0.934082  0  0.158772  0.458811  0  3.958188  0
C  C110  1  0.30630879  0.38069822  0.66545444  1  0  -0.431088  0  3.677392  0  0  -0.51243  0  3.909901  0  0  -0.518133  0  3.915559  0  -0.151021  0  -0.247938  -0.508571  0  3.906658  0
C  C111  1  0.69369032  0.61930258  0.33454555  1  0  -0.431116  0  3.677466  0  0  -0.512431  0  3.909936  0  0  -0.518133  0  3.915593  0  -0.151057  0  -0.24796  -0.50857  0  3.906691  0
N  N112  1  0.56297938  0.31308757  0.17976137  1  0  -0.440392  0  3.363443  0  0  -0.381746  0  3.596169  0  0  -0.406509  0  3.606846  0  -1.294277  0  -0.383566  -0.36534  0  3.588712  0
N  N113  1  0.43702111  0.68691136  0.82023824  1  0  -0.440449  0  3.363475  0  0  -0.381786  0  3.596222  0  0  -0.406554  0  3.606901  0  -1.294281  0  -0.383565  -0.36538  0  3.588764  0
O  O114  1  0.91094658  0.21250778  0.43190775  1  0  -0.604672  0  2.034522  0  0  -0.530451  0  2.279144  0  0  -0.557713  0  2.270842  0  -1.165228  0  -0.278048  -0.510411  0  2.283534  0
O  O115  1  0.08905253  0.78749302  0.56809224  1  0  -0.604653  0  2.034502  0  0  -0.530456  0  2.279125  0  0  -0.55772  0  2.270822  0  -1.165237  0  -0.278044  -0.510418  0  2.283514  0
O  O116  1  0.82303765  0.29791970  0.25119361  1  0  -0.585639  0  1.949116  0  0  -0.537317  0  2.16442  0  0  -0.560653  0  2.158165  0  -1.176505  0  -0.290755  -0.521573  0  2.168154  0
O  O117  1  0.17696230  0.70208204  0.74880775  1  0  -0.585644  0  1.949054  0  0  -0.53732  0  2.164329  0  0  -0.560649  0  2.158064  0  -1.176519  0  -0.290713  -0.521577  0  2.168065  0
O  O118  1  0.36611519  0.25713952  0.28048848  1  0  -0.587187  0  2.009999  0  0  -0.524787  0  2.245719  0  0  -0.548914  0  2.240834  0  -1.171942  0  -0.270916  -0.508566  0  2.248744  0
O  O119  1  0.63388513  0.74286034  0.71951171  1  0  -0.587205  0  2.009995  0  0  -0.524806  0  2.245714  0  0  -0.548929  0  2.240825  0  -1.171955  0  -0.270927  -0.508588  0  2.248745  0
O  O120  1  0.55177984  0.37400022  0.63871859  1  0  -0.488959  0  1.910996  0  0  -0.444616  0  2.115142  0  0  -0.463258  0  2.112314  0  -1.121876  0  -0.26718  -0.431899  0  2.117581  0
O  O121  1  0.44821824  0.62600058  0.36128061  1  0  -0.488966  0  1.910976  0  0  -0.444639  0  2.115118  0  0  -0.463272  0  2.11228  0  -1.121891  0  -0.267205  -0.431921  0  2.117558  0
