# generated using pymatgen
data_ZnH10C14S2(NO2)2
_symmetry_space_group_name_H-M   'P 1'
_cell_length_a   11.28714131
_cell_length_b   15.43558111
_cell_length_c   15.35630000
_cell_angle_alpha   98.44587525
_cell_angle_beta   108.75826818
_cell_angle_gamma   107.69340696
_symmetry_Int_Tables_number   1
_chemical_formula_structural   ZnH10C14S2(NO2)2
_chemical_formula_sum   'Zn4 H40 C56 S8 N8 O16'
_cell_volume   2323.06422901
_cell_formula_units_Z   4
loop_
 _symmetry_equiv_pos_site_id
 _symmetry_equiv_pos_as_xyz
  1  'x, y, z'
loop_
 _atom_site_type_symbol
 _atom_site_label
 _atom_site_symmetry_multiplicity
 _atom_site_fract_x
 _atom_site_fract_y
 _atom_site_fract_z
 _atom_site_occupancy
 _atom_site_hle17_bader_spin_density
 _atom_site_hle17_ddec_charge
 _atom_site_hle17_ddec_spin_density
 _atom_site_hle17_ddec_sum_bond_order
 _atom_site_hle17_magmom
 _atom_site_hse06_10hf_bader_spin_density
 _atom_site_hse06_10hf_ddec_charge
 _atom_site_hse06_10hf_ddec_spin_density
 _atom_site_hse06_10hf_ddec_sum_bond_order
 _atom_site_hse06_10hf_magmom
 _atom_site_hse06_bader_spin_density
 _atom_site_hse06_ddec_charge
 _atom_site_hse06_ddec_spin_density
 _atom_site_hse06_ddec_sum_bond_order
 _atom_site_hse06_magmom
 _atom_site_pbe_bader_charge
 _atom_site_pbe_bader_spin_density
 _atom_site_pbe_cm5_charge
 _atom_site_pbe_ddec_charge
 _atom_site_pbe_ddec_spin_density
 _atom_site_pbe_ddec_sum_bond_order
 _atom_site_pbe_magmom
Zn  Zn0  1  0.35298973  0.54894693  0.92213142  1  0  0.992941  0  1.846831  0  0  0.794703  0  2.326758  0  0  0.843143  0  2.272092  0  1.244522  0  0.687873  0.760498  0  2.365429  0
Zn  Zn1  1  0.14869849  0.07587631  0.44963347  1  0  0.992528  0  1.846298  0  0  0.794083  0  2.326022  0  0  0.842569  0  2.271385  0  1.246457  0  0.687102  0.759844  0  2.364672  0
Zn  Zn2  1  0.64700992  0.45105144  0.07786937  1  0  0.992973  0  1.846931  0  0  0.794652  0  2.326867  0  0  0.843094  0  2.272198  0  1.244419  0  0.687838  0.760447  0  2.365539  0
Zn  Zn3  1  0.85130060  0.92412277  0.55036793  1  0  0.992538  0  1.846298  0  0  0.794098  0  2.326017  0  0  0.842591  0  2.271371  0  1.246431  0  0.687089  0.759852  0  2.364663  0
H  H4  1  0.14268793  0.23550207  0.82646262  1  0  0.120176  0  0.933579  0  0  0.128125  0  0.99213  0  0  0.133046  0  0.988771  0  0.107812  0  0.104925  0.124589  0  0.994697  0
H  H5  1  0.35920823  0.17536140  0.76726108  1  0  0.120762  0  0.931425  0  0  0.128568  0  0.98998  0  0  0.133482  0  0.986613  0  0.097207  0  0.105085  0.125011  0  0.992576  0
H  H6  1  0.85731228  0.76449560  0.17353688  1  0  0.120235  0  0.933533  0  0  0.128162  0  0.992111  0  0  0.133083  0  0.988752  0  0.107803  0  0.104967  0.124628  0  0.994678  0
H  H7  1  0.64080046  0.82464686  0.23273874  1  0  0.120641  0  0.931498  0  0  0.128478  0  0.990034  0  0  0.133393  0  0.986668  0  0.096942  0  0.105053  0.124923  0  0.992629  0
H  H8  1  0.02530866  0.24145142  0.61768767  1  0  0.113803  0  0.949654  0  0  0.120426  0  1.012427  0  0  0.124774  0  1.010337  0  0.104151  0  0.099883  0.11734  0  1.014042  0
H  H9  1  0.47229188  0.37995877  0.75629555  1  0  0.114378  0  0.948604  0  0  0.121309  0  1.011149  0  0  0.125646  0  1.008999  0  0.092686  0  0.100459  0.118224  0  1.012803  0
H  H10  1  0.97469137  0.75854766  0.38231135  1  0  0.113807  0  0.94968  0  0  0.120434  0  1.012443  0  0  0.124778  0  1.010358  0  0.104146  0  0.099887  0.117346  0  1.014058  0
H  H11  1  0.52771286  0.62004737  0.24370498  1  0  0.114442  0  0.948441  0  0  0.121361  0  1.011004  0  0  0.125711  0  1.008842  0  0.09286  0  0.100484  0.118276  0  1.01266  0
H  H12  1  0.33910894  0.51565006  0.72352692  1  0  0.099738  0  0.96372  0  0  0.107521  0  1.026677  0  0  0.110657  0  1.023243  0  0.186133  0  0.119342  0.105098  0  1.029425  0
H  H13  1  0.16080616  0.27315021  0.48253638  1  0  0.100827  0  0.967668  0  0  0.109066  0  1.030006  0  0  0.112243  0  1.026582  0  0.192163  0  0.119207  0.106599  0  1.032771  0
H  H14  1  0.66089352  0.48434832  0.27647452  1  0  0.099689  0  0.96374  0  0  0.107516  0  1.02666  0  0  0.110654  0  1.023222  0  0.186086  0  0.119367  0.105098  0  1.029401  0
H  H15  1  0.83919048  0.72684605  0.51746207  1  0  0.100798  0  0.967691  0  0  0.109063  0  1.029998  0  0  0.112239  0  1.026574  0  0.192105  0  0.119197  0.106597  0  1.032762  0
H  H16  1  0.49257646  0.56955171  0.63841057  1  0  0.117857  0  0.92413  0  0  0.133403  0  0.971909  0  0  0.136652  0  0.971412  0  0.094466  0  0.113675  0.130976  0  0.972655  0
H  H17  1  0.00474040  0.35827448  0.42929748  1  0  0.118013  0  0.923401  0  0  0.13291  0  0.971813  0  0  0.13621  0  0.971237  0  0.075416  0  0.113155  0.130455  0  0.972524  0
H  H18  1  0.50742599  0.43044666  0.36159152  1  0  0.11792  0  0.924045  0  0  0.133451  0  0.971833  0  0  0.136701  0  0.971334  0  0.094473  0  0.113713  0.131024  0  0.972578  0
H  H19  1  0.99525569  0.64172248  0.57070030  1  0  0.118021  0  0.923345  0  0  0.132882  0  0.971791  0  0  0.136179  0  0.971217  0  0.075423  0  0.113132  0.130432  0  0.972501  0
H  H20  1  0.81465102  0.71903933  0.91644107  1  0  0.110455  0  0.957649  0  0  0.119686  0  1.015397  0  0  0.123073  0  1.014864  0  0.085004  0  0.105092  0.117111  0  1.016186  0
H  H21  1  0.68305298  0.08410480  0.28060369  1  0  0.110289  0  0.958144  0  0  0.119865  0  1.015506  0  0  0.123239  0  1.014977  0  0.136058  0  0.105037  0.117265  0  1.016343  0
H  H22  1  0.18535164  0.28096116  0.08356139  1  0  0.110468  0  0.957678  0  0  0.119697  0  1.015422  0  0  0.123083  0  1.014888  0  0.085055  0  0.10511  0.117122  0  1.016211  0
H  H23  1  0.31694010  0.91589004  0.71939827  1  0  0.110279  0  0.958059  0  0  0.119859  0  1.015427  0  0  0.123232  0  1.014899  0  0.136111  0  0.105028  0.117257  0  1.016267  0
H  H24  1  0.64770085  0.66000221  0.98874442  1  0  0.104944  0  0.941581  0  0  0.111957  0  1.002735  0  0  0.114625  0  0.999685  0  0.179776  0  0.125616  0.109892  0  1.005058  0
H  H25  1  0.85244621  0.01156171  0.33902075  1  0  0.104592  0  0.937496  0  0  0.111695  0  0.998483  0  0  0.114295  0  0.995527  0  0.178324  0  0.126128  0.109661  0  1.000771  0
H  H26  1  0.35229973  0.33999617  0.01125594  1  0  0.104968  0  0.941504  0  0  0.111979  0  1.002663  0  0  0.114648  0  0.999613  0  0.179836  0  0.125621  0.109913  0  1.004985  0
H  H27  1  0.14755005  0.98843384  0.66098208  1  0  0.104663  0  0.937401  0  0  0.111753  0  0.998382  0  0  0.114353  0  0.995425  0  0.178332  0  0.126171  0.109719  0  1.000668  0
H  H28  1  0.06611713  0.49905249  0.79800581  1  0  0.096605  0  0.946023  0  0  0.106318  0  1.002679  0  0  0.108793  0  1.000164  0  0.165586  0  0.12367  0.104429  0  1.004572  0
H  H29  1  0.43404569  0.20052304  0.50159876  1  0  0.097159  0  0.949164  0  0  0.107368  0  1.004959  0  0  0.109859  0  1.002426  0  0.165658  0  0.12377  0.105444  0  1.00691  0
H  H30  1  0.93388477  0.50094659  0.20199170  1  0  0.096601  0  0.946013  0  0  0.106319  0  1.002668  0  0  0.108794  0  1.000151  0  0.165476  0  0.123682  0.10443  0  1.004561  0
H  H31  1  0.56594761  0.79947745  0.49840019  1  0  0.097163  0  0.949082  0  0  0.107365  0  1.004881  0  0  0.109857  0  1.002348  0  0.165687  0  0.123751  0.105442  0  1.00683  0
H  H32  1  0.89974727  0.57692252  0.75114398  1  0  0.109571  0  0.962029  0  0  0.118398  0  1.020357  0  0  0.121774  0  1.019939  0  0.097987  0  0.104429  0.115841  0  1.021091  0
H  H33  1  0.59778941  0.24799563  0.42362110  1  0  0.109299  0  0.962852  0  0  0.118086  0  1.021272  0  0  0.121555  0  1.020763  0  0.11871  0  0.104577  0.115476  0  1.022046  0
H  H34  1  0.10025857  0.42307868  0.24885347  1  0  0.109559  0  0.961956  0  0  0.118396  0  1.020279  0  0  0.121774  0  1.019861  0  0.097965  0  0.104416  0.115838  0  1.021014  0
H  H35  1  0.40220745  0.75200627  0.57637955  1  0  0.10933  0  0.962767  0  0  0.118119  0  1.021188  0  0  0.121589  0  1.020679  0  0.118311  0  0.104574  0.11551  0  1.021962  0
H  H36  1  0.22239106  0.84244688  0.92905584  1  0  0.116373  0  0.925761  0  0  0.131211  0  0.974375  0  0  0.134513  0  0.973899  0  0.063779  0  0.112648  0.12877  0  0.975023  0
H  H37  1  0.27559108  0.06974610  0.15484704  1  0  0.116299  0  0.925133  0  0  0.131277  0  0.973719  0  0  0.134598  0  0.973221  0  0.092096  0  0.112665  0.128835  0  0.974362  0
H  H38  1  0.77760935  0.15755291  0.07094663  1  0  0.116399  0  0.925807  0  0  0.131235  0  0.97441  0  0  0.134538  0  0.973933  0  0.063775  0  0.112664  0.128794  0  0.975058  0
H  H39  1  0.72441289  0.93025510  0.84515453  1  0  0.116269  0  0.925104  0  0  0.131245  0  0.973692  0  0  0.134567  0  0.973192  0  0.092085  0  0.11264  0.128803  0  0.974338  0
H  H40  1  0.37201232  0.75079323  0.97435767  1  0  0.104791  0  0.9687  0  0  0.113302  0  1.029153  0  0  0.116669  0  1.025439  0  0.179632  0  0.120229  0.110751  0  1.031994  0
H  H41  1  0.12890048  0.02369850  0.24689631  1  0  0.104312  0  0.965846  0  0  0.112355  0  1.026942  0  0  0.115688  0  1.023248  0  0.194807  0  0.119993  0.109848  0  1.029752  0
H  H42  1  0.62798584  0.24920585  0.02564157  1  0  0.104802  0  0.968662  0  0  0.113317  0  1.029117  0  0  0.116685  0  1.025403  0  0.179684  0  0.120239  0.110765  0  1.031961  0
H  H43  1  0.87109785  0.97629917  0.75310276  1  0  0.104255  0  0.965898  0  0  0.112321  0  1.026972  0  0  0.115655  0  1.023277  0  0.194331  0  0.119986  0.109815  0  1.029781  0
C  C44  1  0.17874746  0.37186028  0.78985630  1  0  0.664779  0  3.94062  0  0  0.624078  0  4.228995  0  0  0.657534  0  4.222264  0  1.553539  0  0.192081  0.60142  0  4.232562  0
C  C45  1  0.32170660  0.20796733  0.62777515  1  0  0.664455  0  3.9377  0  0  0.623507  0  4.225928  0  0  0.656932  0  4.219225  0  1.556054  0  0.192649  0.600883  0  4.229456  0
C  C46  1  0.82125538  0.62813880  0.21014403  1  0  0.66483  0  3.940609  0  0  0.624128  0  4.228964  0  0  0.657585  0  4.222232  0  1.55343  0  0.192093  0.601472  0  4.232531  0
C  C47  1  0.67829665  0.79203952  0.37222448  1  0  0.66455  0  3.937855  0  0  0.623704  0  4.225947  0  0  0.657132  0  4.219236  0  1.554739  0  0.192781  0.601079  0  4.229477  0
C  C48  1  0.12016792  0.26701576  0.76702412  1  0  -0.160596  0  3.683052  0  0  -0.17768  0  3.931549  0  0  -0.184307  0  3.948937  0  -0.042401  0  -0.085728  -0.173273  0  3.919894  0
C  C49  1  0.38037037  0.23280610  0.73384904  1  0  -0.161513  0  3.681474  0  0  -0.178311  0  3.930355  0  0  -0.184853  0  3.947575  0  -0.021562  0  -0.085694  -0.17393  0  3.918792  0
C  C50  1  0.87983380  0.73298474  0.23297486  1  0  -0.160602  0  3.682962  0  0  -0.177682  0  3.931474  0  0  -0.184308  0  3.948859  0  -0.042404  0  -0.085755  -0.173278  0  3.91982  0
C  C51  1  0.61963776  0.76720287  0.26615336  1  0  -0.161306  0  3.681471  0  0  -0.178145  0  3.930318  0  0  -0.184688  0  3.947542  0  -0.020831  0  -0.085598  -0.173766  0  3.918749  0
C  C52  1  0.04693374  0.21101654  0.67798625  1  0  -0.162172  0  3.672455  0  0  -0.178805  0  3.920969  0  0  -0.185757  0  3.937722  0  -0.058871  0  -0.089197  -0.174186  0  3.90973  0
C  C53  1  0.45202888  0.32161259  0.78862073  1  0  -0.160428  0  3.67314  0  0  -0.178148  0  3.922423  0  0  -0.18502  0  3.939142  0  -0.045948  0  -0.088798  -0.173592  0  3.911234  0
C  C54  1  0.95306497  0.78898184  0.32201366  1  0  -0.162212  0  3.672576  0  0  -0.178846  0  3.921089  0  0  -0.185799  0  3.937843  0  -0.058599  0  -0.089196  -0.174227  0  3.909856  0
C  C55  1  0.54797476  0.67839496  0.21137454  1  0  -0.16061  0  3.673062  0  0  -0.178339  0  3.922402  0  0  -0.185225  0  3.939118  0  -0.046489  0  -0.088903  -0.173781  0  3.91121  0
C  C56  1  0.99566360  0.10637125  0.65781599  1  0  0.66669  0  3.928217  0  0  0.625096  0  4.215578  0  0  0.659118  0  4.208458  0  1.542279  0  0.191305  0.602082  0  4.219379  0
C  C57  1  0.50315950  0.34377660  0.89443825  1  0  0.664429  0  3.935189  0  0  0.62287  0  4.222592  0  0  0.656917  0  4.21553  0  1.531979  0  0.190883  0.599843  0  4.22634  0
C  C58  1  0.00433304  0.89362501  0.34218116  1  0  0.666726  0  3.928117  0  0  0.625134  0  4.215465  0  0  0.659156  0  4.208347  0  1.541998  0  0.191329  0.602119  0  4.219268  0
C  C59  1  0.49684317  0.65622743  0.10555953  1  0  0.664562  0  3.935467  0  0  0.623031  0  4.222854  0  0  0.657076  0  4.21579  0  1.532143  0  0.190881  0.600003  0  4.226601  0
C  C60  1  0.44507504  0.56221693  0.76250860  1  0  0.131854  0  3.699128  0  0  0.097527  0  3.956726  0  0  0.105856  0  3.973734  0  0.40496  0  0.047612  0.091964  0  3.945778  0
C  C61  1  0.05423667  0.23494959  0.43618946  1  0  0.128981  0  3.698015  0  0  0.093761  0  3.955628  0  0  0.102013  0  3.972834  0  0.488646  0  0.046461  0.088247  0  3.944612  0
C  C62  1  0.55492742  0.43778144  0.23748959  1  0  0.131903  0  3.699242  0  0  0.097485  0  3.956826  0  0  0.105817  0  3.973835  0  0.405494  0  0.047571  0.09192  0  3.94588  0
C  C63  1  0.94575866  0.76504596  0.56380793  1  0  0.128994  0  3.698086  0  0  0.093758  0  3.955674  0  0  0.102011  0  3.97288  0  0.489078  0  0.046473  0.088235  0  3.944654  0
C  C64  1  0.53113591  0.59178283  0.71618702  1  0  -0.171949  0  3.729261  0  0  -0.190268  0  3.980892  0  0  -0.199215  0  4.001432  0  -0.035745  0  -0.092501  -0.184493  0  3.967324  0
C  C65  1  0.96678119  0.28132359  0.40702388  1  0  -0.168456  0  3.726199  0  0  -0.185848  0  3.978325  0  0  -0.194737  0  3.998806  0  -0.024728  0  -0.089902  -0.180108  0  3.964806  0
C  C66  1  0.46886148  0.40821484  0.28381378  1  0  -0.171947  0  3.729132  0  0  -0.190244  0  3.980786  0  0  -0.199193  0  4.001327  0  -0.035743  0  -0.092511  -0.184468  0  3.967218  0
C  C67  1  0.03321283  0.71867125  0.59297375  1  0  -0.168454  0  3.72605  0  0  -0.185759  0  3.978194  0  0  -0.194647  0  3.998674  0  -0.025724  0  -0.089862  -0.180027  0  3.964683  0
C  C68  1  0.66615739  0.65086164  0.77123555  1  0  0.085264  0  3.796241  0  0  0.09882  0  4.05757  0  0  0.105877  0  4.079602  0  -0.212771  0  0.003379  0.094127  0  4.042591  0
C  C69  1  0.83105704  0.22736330  0.34834907  1  0  0.086117  0  3.79413  0  0  0.098694  0  4.056776  0  0  0.105613  0  4.079002  0  -0.235301  0  0.003486  0.09411  0  4.041668  0
C  C70  1  0.33384357  0.34913744  0.22876695  1  0  0.08535  0  3.796094  0  0  0.098882  0  4.057459  0  0  0.105937  0  4.079491  0  -0.213174  0  0.003443  0.094188  0  4.042479  0
C  C71  1  0.16893960  0.77263295  0.65165069  1  0  0.086306  0  3.793771  0  0  0.098749  0  4.056617  0  0  0.105669  0  4.078838  0  -0.234854  0  0.00354  0.094164  0  4.041512  0
C  C72  1  0.71019032  0.67495295  0.87068091  1  0  -0.171543  0  3.728948  0  0  -0.187364  0  3.972493  0  0  -0.19687  0  3.993614  0  0.097922  0  -0.090328  -0.181195  0  3.958757  0
C  C73  1  0.78795363  0.12899164  0.32426514  1  0  -0.171204  0  3.729003  0  0  -0.186848  0  3.972111  0  0  -0.196316  0  3.99331  0  0.045161  0  -0.090059  -0.180719  0  3.958344  0
C  C74  1  0.28980933  0.32504543  0.12931792  1  0  -0.171559  0  3.728921  0  0  -0.18738  0  3.972479  0  0  -0.196885  0  3.9936  0  0.097864  0  -0.090365  -0.181213  0  3.958743  0
C  C75  1  0.21204339  0.87100532  0.67573742  1  0  -0.171283  0  3.728823  0  0  -0.18691  0  3.971971  0  0  -0.196377  0  3.993165  0  0.045221  0  -0.090082  -0.180782  0  3.958206  0
C  C76  1  0.61754113  0.64242544  0.91150001  1  0  0.18052  0  3.642829  0  0  0.146623  0  3.894045  0  0  0.157212  0  3.908065  0  0.475093  0  0.06628  0.139514  0  3.884786  0
C  C77  1  0.88205297  0.08804490  0.35647470  1  0  0.179502  0  3.646022  0  0  0.145895  0  3.896901  0  0  0.156488  0  3.911065  0  0.48686  0  0.066278  0.138799  0  3.887539  0
C  C78  1  0.38245589  0.35757152  0.08850190  1  0  0.180392  0  3.642847  0  0  0.146469  0  3.894015  0  0  0.157053  0  3.90804  0  0.474524  0  0.066164  0.139364  0  3.884751  0
C  C79  1  0.11794236  0.91195065  0.64352595  1  0  0.179408  0  3.645859  0  0  0.145846  0  3.89673  0  0  0.156438  0  3.910895  0  0.486986  0  0.066184  0.138745  0  3.88736  0
C  C80  1  0.09491807  0.57453953  0.82736997  1  0  0.151475  0  3.691172  0  0  0.120855  0  3.938043  0  0  0.129909  0  3.954599  0  0.488642  0  0.055287  0.114827  0  3.926962  0
C  C81  1  0.40491345  0.17107089  0.42545271  1  0  0.150838  0  3.690575  0  0  0.119752  0  3.93771  0  0  0.128853  0  3.954255  0  0.435291  0  0.054525  0.113698  0  3.926617  0
C  C82  1  0.90508084  0.42546096  0.17262705  1  0  0.15154  0  3.69113  0  0  0.120897  0  3.938002  0  0  0.129954  0  3.954555  0  0.488831  0  0.055327  0.114868  0  3.926924  0
C  C83  1  0.59508604  0.82893243  0.57454812  1  0  0.150931  0  3.6906  0  0  0.11987  0  3.937705  0  0  0.128971  0  3.954249  0  0.435315  0  0.054595  0.113818  0  3.926613  0
C  C84  1  0.00351867  0.61849027  0.80028602  1  0  -0.175131  0  3.748693  0  0  -0.190787  0  3.993859  0  0  -0.200326  0  4.015671  0  -0.00372  0  -0.092931  -0.184596  0  3.979665  0
C  C85  1  0.49472866  0.19857101  0.38140144  1  0  -0.17399  0  3.748861  0  0  -0.189964  0  3.99477  0  0  -0.199552  0  4.016559  0  -0.014997  0  -0.093473  -0.183707  0  3.980538  0
C  C86  1  0.99648098  0.38150811  0.19971086  1  0  -0.175109  0  3.748505  0  0  -0.19076  0  3.993675  0  0  -0.200301  0  4.015488  0  -0.003681  0  -0.092914  -0.184567  0  3.979477  0
C  C87  1  0.50527028  0.80143302  0.61860001  1  0  -0.174152  0  3.748936  0  0  -0.190129  0  3.994858  0  0  -0.199718  0  4.016649  0  -0.014961  0  -0.093505  -0.18387  0  3.980625  0
C  C88  1  0.04792742  0.71630310  0.83594050  1  0  0.090537  0  3.795954  0  0  0.103796  0  4.057425  0  0  0.110982  0  4.079142  0  -0.217902  0  0.005032  0.099005  0  4.042608  0
C  C89  1  0.44953617  0.16314337  0.28256695  1  0  0.089478  0  3.795598  0  0  0.10278  0  4.057478  0  0  0.109942  0  4.079218  0  -0.141058  0  0.004899  0.097996  0  4.042637  0
C  C90  1  0.95207205  0.28369669  0.16405849  1  0  0.090433  0  3.796001  0  0  0.103674  0  4.057493  0  0  0.110859  0  4.079212  0  -0.218007  0  0.004973  0.098887  0  4.042672  0
C  C91  1  0.55045976  0.83685854  0.71743283  1  0  0.089582  0  3.795499  0  0  0.102847  0  4.057432  0  0  0.110012  0  4.079167  0  -0.140731  0  0.004851  0.098062  0  4.042594  0
C  C92  1  0.18265220  0.76602868  0.89946493  1  0  -0.171851  0  3.729047  0  0  -0.189436  0  3.979955  0  0  -0.198474  0  4.000575  0  0.054926  0  -0.0921  -0.183598  0  3.966317  0
C  C93  1  0.31581412  0.09926537  0.23207135  1  0  -0.17286  0  3.729691  0  0  -0.190664  0  3.980524  0  0  -0.199689  0  4.001113  0  -0.04192  0  -0.092157  -0.184832  0  3.966886  0
C  C94  1  0.81734876  0.23397040  0.10053627  1  0  -0.171799  0  3.729201  0  0  -0.189375  0  3.98009  0  0  -0.198412  0  4.000711  0  0.054992  0  -0.092095  -0.183539  0  3.966452  0
C  C95  1  0.68418742  0.90073654  0.76792779  1  0  -0.172878  0  3.729621  0  0  -0.190672  0  3.980464  0  0  -0.199696  0  4.001053  0  -0.041793  0  -0.092156  -0.18484  0  3.966826  0
C  C96  1  0.26681441  0.71638152  0.92411320  1  0  0.130872  0  3.695862  0  0  0.09738  0  3.948487  0  0  0.105584  0  3.96566  0  0.43389  0  0.045764  0.091949  0  3.937273  0
C  C97  1  0.23324417  0.07413835  0.28191099  1  0  0.131612  0  3.697832  0  0  0.098821  0  3.950056  0  0  0.107103  0  3.967183  0  0.453677  0  0.045615  0.093343  0  3.93883  0
C  C98  1  0.73318766  0.28361615  0.07588740  1  0  0.130856  0  3.695785  0  0  0.097361  0  3.948394  0  0  0.105564  0  3.965567  0  0.433781  0  0.045767  0.091929  0  3.93718  0
C  C99  1  0.76675437  0.92586144  0.71808713  1  0  0.131677  0  3.698038  0  0  0.09887  0  3.95025  0  0  0.10715  0  3.967377  0  0.454422  0  0.045656  0.093394  0  3.939023  0
S  S100  1  0.76639872  0.69058333  0.70623400  1  0  0.031653  0  2.461192  0  0  0.028117  0  2.813331  0  0  0.024591  0  2.814815  0  0.099094  0  0.067695  0.031411  0  2.812972  0
S  S101  1  0.72845364  0.29222756  0.30942282  1  0  0.030554  0  2.460343  0  0  0.027246  0  2.813069  0  0  0.023737  0  2.814658  0  0.08868  0  0.067553  0.030503  0  2.812602  0
S  S102  1  0.23360130  0.30941575  0.29376633  1  0  0.031641  0  2.46126  0  0  0.028107  0  2.813417  0  0  0.02458  0  2.814903  0  0.099491  0  0.067695  0.031401  0  2.813059  0
S  S103  1  0.27154601  0.70777082  0.69057862  1  0  0.030482  0  2.460317  0  0  0.027222  0  2.813089  0  0  0.023711  0  2.814677  0  0.088617  0  0.067544  0.030478  0  2.812621  0
S  S104  1  0.94717566  0.78388734  0.80479884  1  0  0.027524  0  2.436877  0  0  0.023606  0  2.782402  0  0  0.020097  0  2.783747  0  0.088869  0  0.064136  0.027038  0  2.781953  0
S  S105  1  0.54774337  0.19525545  0.21453960  1  0  0.02885  0  2.435576  0  0  0.024972  0  2.780888  0  0  0.021496  0  2.782196  0  0.094598  0  0.064518  0.028418  0  2.780447  0
S  S106  1  0.05282437  0.21611174  0.19520084  1  0  0.027532  0  2.436831  0  0  0.023623  0  2.782355  0  0  0.020115  0  2.783698  0  0.088844  0  0.064151  0.027053  0  2.781905  0
S  S107  1  0.45225460  0.80474504  0.78546175  1  0  0.028873  0  2.43551  0  0  0.025013  0  2.780821  0  0  0.021536  0  2.782128  0  0.094528  0  0.064565  0.02846  0  2.780382  0
N  N108  1  0.48672755  0.58850048  0.85852083  1  0  -0.33223  0  3.300944  0  0  -0.250206  0  3.591678  0  0  -0.270501  0  3.604415  0  -1.222745  0  -0.327771  -0.236652  0  3.583726  0
N  N109  1  0.01334662  0.13989631  0.40999545  1  0  -0.333477  0  3.301272  0  0  -0.251316  0  3.592084  0  0  -0.271742  0  3.605015  0  -1.283399  0  -0.328138  -0.237716  0  3.584019  0
N  N110  1  0.51327791  0.41150002  0.14148294  1  0  -0.3323  0  3.301012  0  0  -0.250127  0  3.591576  0  0  -0.270421  0  3.604316  0  -1.222722  0  -0.327715  -0.236576  0  3.583627  0
N  N111  1  0.98664815  0.86009994  0.59000387  1  0  -0.333518  0  3.301167  0  0  -0.251371  0  3.591998  0  0  -0.271799  0  3.604929  0  -1.283418  0  -0.328122  -0.237742  0  3.583898  0
N  N112  1  0.22433387  0.62202201  0.88823977  1  0  -0.3363  0  3.291895  0  0  -0.254146  0  3.573384  0  0  -0.273926  0  3.586948  0  -1.244869  0  -0.327047  -0.240949  0  3.564912  0
N  N113  1  0.27632075  0.10994962  0.37716712  1  0  -0.336193  0  3.29192  0  0  -0.253859  0  3.573513  0  0  -0.273669  0  3.58685  0  -1.248893  0  -0.325898  -0.24061  0  3.56515  0
N  N114  1  0.77566916  0.37797919  0.11176158  1  0  -0.336337  0  3.291975  0  0  -0.254162  0  3.573454  0  0  -0.273947  0  3.587019  0  -1.24481  0  -0.327077  -0.240966  0  3.564984  0
N  N115  1  0.72367442  0.89005088  0.62283422  1  0  -0.336229  0  3.292163  0  0  -0.253913  0  3.573778  0  0  -0.273719  0  3.587108  0  -1.249156  0  -0.32591  -0.240666  0  3.565416  0
O  O116  1  0.24770717  0.41248062  0.88092133  1  0  -0.65101  0  2.012495  0  0  -0.574249  0  2.277807  0  0  -0.603866  0  2.262054  0  -1.168263  0  -0.339251  -0.553235  0  2.28777  0
O  O117  1  0.25376082  0.11775633  0.58812962  1  0  -0.649968  0  2.008342  0  0  -0.573591  0  2.273126  0  0  -0.603103  0  2.257376  0  -1.160151  0  -0.339401  -0.552601  0  2.283001  0
O  O118  1  0.75229360  0.58751634  0.11907756  1  0  -0.651081  0  2.012511  0  0  -0.574282  0  2.277791  0  0  -0.603899  0  2.262037  0  -1.168096  0  -0.339247  -0.553268  0  2.287753  0
O  O119  1  0.74624299  0.88224981  0.41187069  1  0  -0.649942  0  2.008363  0  0  -0.573618  0  2.273135  0  0  -0.603134  0  2.257381  0  -1.159022  0  -0.339402  -0.552623  0  2.283  0
O  O120  1  0.16211997  0.41477389  0.72629849  1  0  -0.633788  0  1.880246  0  0  -0.59345  0  2.089204  0  0  -0.614797  0  2.078743  0  -1.184242  0  -0.342321  -0.578502  0  2.09598  0
O  O121  1  0.33746042  0.26956760  0.58302839  1  0  -0.63257  0  1.885594  0  0  -0.591917  0  2.095438  0  0  -0.613319  0  2.084956  0  -1.198998  0  -0.341079  -0.576912  0  2.102206  0
O  O122  1  0.83788248  0.58522448  0.27370165  1  0  -0.633817  0  1.880307  0  0  -0.593493  0  2.089268  0  0  -0.614842  0  2.078806  0  -1.184259  0  -0.342342  -0.578547  0  2.09604  0
O  O123  1  0.66253853  0.73043996  0.41697163  1  0  -0.632708  0  1.885758  0  0  -0.592092  0  2.095557  0  0  -0.613495  0  2.085069  0  -1.198901  0  -0.341205  -0.577093  0  2.102337  0
O  O124  1  0.92252778  0.06129577  0.56829053  1  0  -0.645003  0  2.001432  0  0  -0.570744  0  2.265214  0  0  -0.600085  0  2.250359  0  -1.160117  0  -0.341674  -0.549957  0  2.274567  0
O  O125  1  0.57532548  0.43251385  0.93885881  1  0  -0.644103  0  2.005073  0  0  -0.570011  0  2.268726  0  0  -0.599323  0  2.253996  0  -1.160096  0  -0.340818  -0.5492  0  2.277944  0
O  O126  1  0.07747207  0.93870472  0.43170997  1  0  -0.645067  0  2.001281  0  0  -0.570817  0  2.265071  0  0  -0.600153  0  2.250205  0  -1.160058  0  -0.341731  -0.550028  0  2.274426  0
O  O127  1  0.42468733  0.56749512  0.06114470  1  0  -0.644118  0  2.005369  0  0  -0.570083  0  2.269062  0  0  -0.599392  0  2.254323  0  -1.160333  0  -0.340834  -0.549282  0  2.278299  0
O  O128  1  0.02251072  0.06651179  0.72322927  1  0  -0.638514  0  1.895429  0  0  -0.595093  0  2.109257  0  0  -0.617646  0  2.098415  0  -1.197453  0  -0.338052  -0.579348  0  2.116272  0
O  O129  1  0.47703420  0.28034793  0.93591858  1  0  -0.636843  0  1.908908  0  0  -0.593104  0  2.124349  0  0  -0.615849  0  2.113653  0  -1.192396  0  -0.335674  -0.5772  0  2.131244  0
O  O130  1  0.97748837  0.93348729  0.27677019  1  0  -0.63848  0  1.8954  0  0  -0.595054  0  2.109229  0  0  -0.617604  0  2.098386  0  -1.19749  0  -0.338025  -0.579308  0  2.116244  0
O  O131  1  0.52296529  0.71965539  0.06408160  1  0  -0.63689  0  1.908946  0  0  -0.593141  0  2.124361  0  0  -0.615887  0  2.113667  0  -1.192413  0  -0.335649  -0.577237  0  2.131256  0
