# generated using pymatgen
data_KH4C3N9O2
_symmetry_space_group_name_H-M   'P 1'
_cell_length_a   6.85700502
_cell_length_b   11.04695042
_cell_length_c   18.17760000
_cell_angle_alpha   96.40016300
_cell_angle_beta   97.06568030
_cell_angle_gamma   95.94078414
_symmetry_Int_Tables_number   1
_chemical_formula_structural   KH4C3N9O2
_chemical_formula_sum   'K6 H24 C18 N54 O12'
_cell_volume   1348.33682316
_cell_formula_units_Z   6
loop_
 _symmetry_equiv_pos_site_id
 _symmetry_equiv_pos_as_xyz
  1  'x, y, z'
loop_
 _atom_site_type_symbol
 _atom_site_label
 _atom_site_symmetry_multiplicity
 _atom_site_fract_x
 _atom_site_fract_y
 _atom_site_fract_z
 _atom_site_occupancy
 _atom_site_hle17_bader_spin_density
 _atom_site_hle17_ddec_charge
 _atom_site_hle17_ddec_spin_density
 _atom_site_hle17_ddec_sum_bond_order
 _atom_site_hle17_magmom
 _atom_site_hse06_10hf_bader_spin_density
 _atom_site_hse06_10hf_ddec_charge
 _atom_site_hse06_10hf_ddec_spin_density
 _atom_site_hse06_10hf_ddec_sum_bond_order
 _atom_site_hse06_10hf_magmom
 _atom_site_hse06_bader_spin_density
 _atom_site_hse06_ddec_charge
 _atom_site_hse06_ddec_spin_density
 _atom_site_hse06_ddec_sum_bond_order
 _atom_site_hse06_magmom
 _atom_site_pbe_bader_charge
 _atom_site_pbe_bader_spin_density
 _atom_site_pbe_cm5_charge
 _atom_site_pbe_ddec_charge
 _atom_site_pbe_ddec_spin_density
 _atom_site_pbe_ddec_sum_bond_order
 _atom_site_pbe_magmom
K  K0  1  0.56056641  0.81588647  0.43103692  1  0  0.900005  0  0.485162  0  0  0.829475  0  0.698002  0  0  0.847321  0  0.672744  0  0.880629  0  0.853298  0.816297  0  0.715974  0
K  K1  1  0.43943108  0.18410334  0.56896464  1  0  0.899995  0  0.4852  0  0  0.82945  0  0.698076  0  0  0.847313  0  0.672782  0  0.880634  0  0.853304  0.81627  0  0.716049  0
K  K2  1  0.95241627  0.09822398  0.38124011  1  0  0.899626  0  0.504147  0  0  0.829788  0  0.721142  0  0  0.846534  0  0.696225  0  0.882301  0  0.864586  0.817269  0  0.73909  0
K  K3  1  0.04758234  0.90176400  0.61875807  1  0  0.899612  0  0.504147  0  0  0.829776  0  0.721149  0  0  0.846524  0  0.696231  0  0.882316  0  0.864565  0.817257  0  0.7391  0
K  K4  1  0.09130509  0.79920802  0.23906101  1  0  0.895962  0  0.497703  0  0  0.820395  0  0.721471  0  0  0.835484  0  0.700416  0  0.884133  0  0.871553  0.809408  0  0.736285  0
K  K5  1  0.90868270  0.20080014  0.76093585  1  0  0.89597  0  0.497665  0  0  0.820364  0  0.721523  0  0  0.835452  0  0.700469  0  0.884141  0  0.871561  0.809425  0  0.736256  0
H  H6  1  0.70102657  0.70047855  0.96145384  1  0  0.070161  0  0.957277  0  0  0.076207  0  1.037376  0  0  0.076643  0  1.036421  0  0.086631  0  0.103465  0.075754  0  1.038242  0
H  H7  1  0.29897192  0.29952411  0.03854644  1  0  0.070173  0  0.957324  0  0  0.07621  0  1.037405  0  0  0.076642  0  1.036457  0  0.08661  0  0.103465  0.075757  0  1.038269  0
H  H8  1  0.96010423  0.75082216  0.98175717  1  0  0.085088  0  0.942864  0  0  0.093138  0  1.017946  0  0  0.093679  0  1.017115  0  0.113063  0  0.110968  0.092652  0  1.018613  0
H  H9  1  0.03989261  0.24917959  0.01824186  1  0  0.085105  0  0.942846  0  0  0.093121  0  1.017957  0  0  0.093668  0  1.017107  0  0.113074  0  0.110967  0.092635  0  1.018624  0
H  H10  1  0.16468793  0.71415341  0.86355364  1  0  0.08592  0  0.922609  0  0  0.099175  0  0.986896  0  0  0.099195  0  0.986716  0  0.092591  0  0.113039  0.099027  0  0.987153  0
H  H11  1  0.83530433  0.28584741  0.13644457  1  0  0.085941  0  0.922566  0  0  0.09919  0  0.986872  0  0  0.099208  0  0.986694  0  0.092623  0  0.113056  0.099042  0  0.987129  0
H  H12  1  0.41279481  0.68131208  0.88361111  1  0  0.072368  0  0.954924  0  0  0.078624  0  1.03509  0  0  0.078533  0  1.034721  0  0.081721  0  0.105487  0.078492  0  1.035463  0
H  H13  1  0.58719598  0.31868874  0.11638869  1  0  0.072384  0  0.954822  0  0  0.078672  0  1.034987  0  0  0.078589  0  1.034601  0  0.081701  0  0.105541  0.078541  0  1.035361  0
H  H14  1  0.89262933  0.90380798  0.08671976  1  0  0.098357  0  0.922898  0  0  0.108316  0  0.991869  0  0  0.110335  0  0.98945  0  0.099345  0  0.125009  0.10666  0  0.993977  0
H  H15  1  0.10737010  0.09619193  0.91328092  1  0  0.098316  0  0.922899  0  0  0.108292  0  0.991882  0  0  0.110294  0  0.989455  0  0.099308  0  0.125006  0.106634  0  0.993996  0
H  H16  1  0.78278794  0.92787156  0.99621142  1  0  0.098135  0  0.934392  0  0  0.103648  0  1.010712  0  0  0.104911  0  1.009332  0  0.131123  0  0.120563  0.102558  0  1.01202  0
H  H17  1  0.21721037  0.07213018  0.00378934  1  0  0.098128  0  0.934355  0  0  0.103665  0  1.010657  0  0  0.10491  0  1.009271  0  0.131136  0  0.120568  0.102575  0  1.011966  0
H  H18  1  0.27305963  0.87513627  0.78632316  1  0  0.098162  0  0.929852  0  0  0.108251  0  0.999308  0  0  0.110544  0  0.996718  0  0.105065  0  0.126515  0.106385  0  1.001564  0
H  H19  1  0.72693351  0.12486914  0.21367816  1  0  0.098149  0  0.929828  0  0  0.108255  0  0.999294  0  0  0.110506  0  0.996747  0  0.105276  0  0.12653  0.1064  0  1.001543  0
H  H20  1  0.38328166  0.90101356  0.88175015  1  0  0.096948  0  0.940597  0  0  0.10321  0  1.015384  0  0  0.104009  0  1.014906  0  0.14916  0  0.12159  0.102587  0  1.0159  0
H  H21  1  0.61671354  0.09898727  0.11825150  1  0  0.096931  0  0.940521  0  0  0.10317  0  1.01538  0  0  0.103969  0  1.014898  0  0.149199  0  0.12156  0.102548  0  1.015896  0
H  H22  1  0.27496974  0.39382343  0.43320621  1  0  0.110867  0  0.925214  0  0  0.121593  0  0.991367  0  0  0.122902  0  0.990122  0  0.122658  0  0.132286  0.120528  0  0.992491  0
H  H23  1  0.72504327  0.60617831  0.56679578  1  0  0.110875  0  0.925223  0  0  0.121606  0  0.99142  0  0  0.122922  0  0.990157  0  0.122694  0  0.132348  0.120532  0  0.992547  0
H  H24  1  0.35396784  0.54572763  0.41760734  1  0  0.095568  0  0.921802  0  0  0.107807  0  0.987597  0  0  0.109444  0  0.985588  0  0.115952  0  0.128241  0.106461  0  0.989328  0
H  H25  1  0.64603947  0.45427503  0.58239609  1  0  0.095606  0  0.921807  0  0  0.107868  0  0.987643  0  0  0.109503  0  0.985638  0  0.116029  0  0.128271  0.106521  0  0.989369  0
H  H26  1  0.41426559  0.38484752  0.31778048  1  0  0.085607  0  0.93901  0  0  0.089926  0  1.018126  0  0  0.090857  0  1.017611  0  0.109364  0  0.111064  0.089123  0  1.018623  0
H  H27  1  0.58574536  0.61515881  0.68222007  1  0  0.08568  0  0.939015  0  0  0.089969  0  1.018135  0  0  0.090899  0  1.01762  0  0.109269  0  0.111076  0.089169  0  1.018626  0
H  H28  1  0.15355932  0.33796621  0.29709205  1  0  0.075247  0  0.941194  0  0  0.085061  0  1.010653  0  0  0.085622  0  1.010567  0  0.073953  0  0.110785  0.084535  0  1.010853  0
H  H29  1  0.84645810  0.66203554  0.70291069  1  0  0.075204  0  0.941145  0  0  0.085012  0  1.010609  0  0  0.085571  0  1.010524  0  0.073981  0  0.11077  0.084488  0  1.010808  0
C  C30  1  0.62287189  0.87827747  0.73677320  1  0  0.426699  0  3.830596  0  0  0.382753  0  4.130597  0  0  0.403605  0  4.138925  0  1.44081  0  0.336598  0.36882  0  4.124795  0
C  C31  1  0.37712460  0.12172244  0.26322734  1  0  0.426577  0  3.830901  0  0  0.38269  0  4.130826  0  0  0.403543  0  4.139154  0  1.441198  0  0.336587  0.368758  0  4.125018  0
C  C32  1  0.99044896  0.61422397  0.41144340  1  0  0.423429  0  3.832641  0  0  0.377991  0  4.133907  0  0  0.39796  0  4.143414  0  1.447416  0  0.333343  0.364624  0  4.127389  0
C  C33  1  0.00955729  0.38577319  0.58855631  1  0  0.423246  0  3.833029  0  0  0.377905  0  4.134162  0  0  0.397874  0  4.143667  0  1.447504  0  0.333376  0.364539  0  4.12764  0
C  C34  1  0.53894291  0.85411114  0.13512174  1  0  0.430276  0  3.814782  0  0  0.388074  0  4.108756  0  0  0.408073  0  4.117904  0  1.436027  0  0.333573  0.374861  0  4.102275  0
C  C35  1  0.46105523  0.14588968  0.86487730  1  0  0.430175  0  3.814856  0  0  0.388037  0  4.108741  0  0  0.408036  0  4.117895  0  1.436006  0  0.333543  0.374823  0  4.102262  0
C  C36  1  0.82094987  0.74032519  0.00578414  1  0  -0.011961  0  3.688632  0  0  -0.070991  0  3.975022  0  0  -0.067227  0  3.985896  0  0.292619  0  -0.056555  -0.073407  0  3.967527  0
C  C37  1  0.17905121  0.25967564  0.99421668  1  0  -0.011974  0  3.688701  0  0  -0.070927  0  3.975037  0  0  -0.067181  0  3.985896  0  0.292611  0  -0.056513  -0.073344  0  3.967546  0
C  C38  1  0.30714114  0.71306078  0.84164030  1  0  -0.011416  0  3.692367  0  0  -0.069015  0  3.976319  0  0  -0.064912  0  3.987285  0  0.298359  0  -0.054464  -0.07157  0  3.968705  0
C  C39  1  0.69284817  0.28694005  0.15835943  1  0  -0.011352  0  3.69229  0  0  -0.068939  0  3.976193  0  0  -0.06483  0  3.987147  0  0.298468  0  -0.054485  -0.071498  0  3.968587  0
C  C40  1  0.78081825  0.86581083  0.03919155  1  0  -0.02203  0  3.625125  0  0  -0.08686  0  3.885115  0  0  -0.082003  0  3.892767  0  0.289144  0  -0.042351  -0.089994  0  3.880166  0
C  C41  1  0.21918153  0.13419091  0.96080817  1  0  -0.021969  0  3.625063  0  0  -0.08689  0  3.885136  0  0  -0.081947  0  3.892671  0  0.2892  0  -0.042371  -0.090015  0  3.880166  0
C  C42  1  0.37587504  0.84246466  0.82847823  1  0  -0.021705  0  3.636628  0  0  -0.087337  0  3.897171  0  0  -0.082683  0  3.90526  0  0.268075  0  -0.043833  -0.090387  0  3.891906  0
C  C43  1  0.62412051  0.15753800  0.17152191  1  0  -0.021664  0  3.636479  0  0  -0.08737  0  3.897157  0  0  -0.082695  0  3.905281  0  0.267922  0  -0.043827  -0.090431  0  3.89189  0
C  C44  1  0.24654001  0.46511510  0.39732748  1  0  -0.02352  0  3.631047  0  0  -0.089955  0  3.891718  0  0  -0.085221  0  3.8997  0  0.300287  0  -0.037622  -0.09317  0  3.886643  0
C  C45  1  0.75346970  0.53488480  0.60267368  1  0  -0.023512  0  3.631019  0  0  -0.090079  0  3.891886  0  0  -0.085345  0  3.89987  0  0.299974  0  -0.037713  -0.093306  0  3.886852  0
C  C46  1  0.26706786  0.41613293  0.31768477  1  0  -0.000222  0  3.650917  0  0  -0.05449  0  3.931539  0  0  -0.050385  0  3.940563  0  0.264899  0  -0.050822  -0.0572  0  3.925486  0
C  C47  1  0.73294221  0.58386881  0.68231598  1  0  -0.000291  0  3.650977  0  0  -0.054471  0  3.931601  0  0  -0.050362  0  3.940622  0  0.264882  0  -0.050797  -0.057182  0  3.925534  0
N  N48  1  0.58800435  0.86222744  0.06511502  1  0  -0.048099  0  3.481691  0  0  0.038368  0  3.706507  0  0  0.023569  0  3.730053  0  -0.774276  0  -0.123088  0.04805  0  3.690573  0
N  N49  1  0.41199673  0.13777339  0.93488360  1  0  -0.048092  0  3.481674  0  0  0.038384  0  3.706477  0  0  0.023559  0  3.730006  0  -0.774265  0  -0.123079  0.048067  0  3.690543  0
N  N50  1  0.12026394  0.71055718  0.40003214  1  0  -0.494869  0  2.905217  0  0  -0.497543  0  3.209977  0  0  -0.513604  0  3.214698  0  -0.646461  0  -0.297621  -0.486367  0  3.206407  0
N  N51  1  0.87973972  0.28944181  0.59996812  1  0  -0.494774  0  2.905345  0  0  -0.497481  0  3.210081  0  0  -0.513542  0  3.214804  0  -0.646432  0  -0.297611  -0.486308  0  3.206515  0
N  N52  1  0.05091074  0.50009215  0.40567931  1  0  -0.045708  0  3.486198  0  0  0.040734  0  3.712252  0  0  0.025725  0  3.73675  0  -0.78594  0  -0.121911  0.05057  0  3.695814  0
N  N53  1  0.94909680  0.49990408  0.59432150  1  0  -0.045696  0  3.486177  0  0  0.040755  0  3.712246  0  0  0.025743  0  3.736751  0  -0.785773  0  -0.121922  0.050587  0  3.695799  0
N  N54  1  0.82213561  0.88851389  0.74328926  1  0  -0.418793  0  2.967415  0  0  -0.397052  0  3.269033  0  0  -0.409581  0  3.276666  0  -0.683906  0  -0.29992  -0.388675  0  3.263824  0
N  N55  1  0.17785689  0.11148051  0.25671072  1  0  -0.41883  0  2.967501  0  0  -0.397113  0  3.269116  0  0  -0.409643  0  3.27675  0  -0.683924  0  -0.299966  -0.388732  0  3.263902  0
N  N56  1  0.48122613  0.89728522  0.68110766  1  0  -0.448468  0  2.864589  0  0  -0.464269  0  3.151939  0  0  -0.480544  0  3.156651  0  -0.633193  0  -0.271914  -0.45307  0  3.148525  0
N  N57  1  0.51876854  0.10271285  0.31889267  1  0  -0.448358  0  2.864507  0  0  -0.464206  0  3.151843  0  0  -0.480476  0  3.156546  0  -0.6336  0  -0.271899  -0.453007  0  3.148429  0
N  N58  1  0.34071607  0.85181946  0.13035222  1  0  -0.401291  0  2.947586  0  0  -0.385541  0  3.25108  0  0  -0.39817  0  3.260834  0  -0.688787  0  -0.306907  -0.377276  0  3.244729  0
N  N59  1  0.65928371  0.14818228  0.86964696  1  0  -0.40119  0  2.947329  0  0  -0.385456  0  3.250804  0  0  -0.398085  0  3.260557  0  -0.688811  0  -0.306879  -0.377197  0  3.244453  0
N  N60  1  0.68850520  0.86252743  0.19289580  1  0  -0.461795  0  2.916311  0  0  -0.474591  0  3.210799  0  0  -0.490003  0  3.215181  0  -0.617882  0  -0.285135  -0.463975  0  3.207566  0
N  N61  1  0.31149164  0.13747431  0.80710489  1  0  -0.461783  0  2.916272  0  0  -0.474587  0  3.210737  0  0  -0.489999  0  3.215124  0  -0.617598  0  -0.285128  -0.463977  0  3.207507  0
N  N62  1  0.79720026  0.60077754  0.41986774  1  0  -0.385075  0  2.907725  0  0  -0.367062  0  3.207608  0  0  -0.380218  0  3.216894  0  -0.681781  0  -0.267757  -0.358323  0  3.201499  0
N  N63  1  0.20280729  0.39921870  0.58013087  1  0  -0.384989  0  2.907893  0  0  -0.366994  0  3.207744  0  0  -0.380152  0  3.217033  0  -0.681815  0  -0.267749  -0.358255  0  3.201632  0
N  N64  1  0.51727558  0.87160517  0.61145123  1  0  0.622452  0  4.084532  0  0  0.689404  0  4.326918  0  0  0.714823  0  4.335768  0  0.59153  0  0.076192  0.672415  0  4.320674  0
N  N65  1  0.48272074  0.12839382  0.38854924  1  0  0.622433  0  4.084407  0  0  0.689435  0  4.326734  0  0  0.714854  0  4.335581  0  0.591528  0  0.076196  0.672446  0  4.320492  0
N  N66  1  0.08474437  0.82283308  0.42402760  1  0  0.657349  0  4.057093  0  0  0.685893  0  4.346711  0  0  0.711251  0  4.35588  0  0.60287  0  0.053547  0.668891  0  4.340196  0
N  N67  1  0.91525765  0.17716499  0.57597253  1  0  0.65727  0  4.057194  0  0  0.685817  0  4.346813  0  0  0.711175  0  4.355986  0  0.602872  0  0.053512  0.668815  0  4.3403  0
N  N68  1  0.73701950  0.84995529  0.85179622  1  0  -0.100966  0  2.890171  0  0  -0.102896  0  3.18528  0  0  -0.102831  0  3.197302  0  -0.108144  0  -0.07683  -0.102796  0  3.177267  0
N  N69  1  0.26297258  0.15004462  0.14820467  1  0  -0.101021  0  2.890037  0  0  -0.102974  0  3.185199  0  0  -0.102909  0  3.197221  0  -0.108127  0  -0.076873  -0.102874  0  3.177186  0
N  N70  1  0.42046891  0.86429894  0.01770510  1  0  -0.10715  0  2.892797  0  0  -0.109646  0  3.185111  0  0  -0.108823  0  3.195855  0  -0.116471  0  -0.077934  -0.11007  0  3.178121  0
N  N71  1  0.57953199  0.13570096  0.98229400  1  0  -0.107133  0  2.892831  0  0  -0.109635  0  3.185149  0  0  -0.108815  0  3.195903  0  -0.116372  0  -0.077903  -0.110059  0  3.178158  0
N  N72  1  0.88509297  0.86996668  0.81466406  1  0  -0.058586  0  2.98938  0  0  -0.052018  0  3.302764  0  0  -0.049211  0  3.311347  0  -0.103299  0  -0.083662  -0.053469  0  3.296923  0
N  N73  1  0.11489858  0.13003047  0.18533607  1  0  -0.058427  0  2.989126  0  0  -0.051869  0  3.302549  0  0  -0.049063  0  3.311134  0  -0.103412  0  -0.083588  -0.05332  0  3.296705  0
N  N74  1  0.74542585  0.47802485  0.41833948  1  0  -0.053633  0  2.977683  0  0  -0.049534  0  3.301476  0  0  -0.046514  0  3.309302  0  -0.105928  0  -0.08298  -0.051116  0  3.296112  0
N  N75  1  0.25458169  0.52197138  0.58165913  1  0  -0.053678  0  2.977682  0  0  -0.049595  0  3.301512  0  0  -0.046575  0  3.309338  0  -0.106022  0  -0.082969  -0.051178  0  3.296147  0
N  N76  1  0.89516395  0.41646319  0.41013210  1  0  -0.131568  0  2.879108  0  0  -0.144347  0  3.180865  0  0  -0.141889  0  3.189755  0  -0.106635  0  -0.089464  -0.145863  0  3.174955  0
N  N77  1  0.10484506  0.58353304  0.58986712  1  0  -0.131534  0  2.878906  0  0  -0.144287  0  3.180644  0  0  -0.14183  0  3.189536  0  -0.106503  0  -0.089503  -0.145799  0  3.174737  0
N  N78  1  0.57069778  0.85504598  0.80426976  1  0  -0.045309  0  3.476934  0  0  0.038841  0  3.704994  0  0  0.024168  0  3.728828  0  -0.79091  0  -0.122452  0.048464  0  3.689037  0
N  N79  1  0.42929448  0.14495485  0.19573065  1  0  -0.045345  0  3.476996  0  0  0.038826  0  3.705029  0  0  0.024156  0  3.728849  0  -0.790845  0  -0.122444  0.048449  0  3.689076  0
N  N80  1  0.64241795  0.83958768  0.25875151  1  0  0.624181  0  4.112516  0  0  0.685965  0  4.361138  0  0  0.710736  0  4.370287  0  0.580061  0  0.06521  0.669376  0  4.354668  0
N  N81  1  0.35758001  0.16041223  0.74124801  1  0  0.624221  0  4.112404  0  0  0.685993  0  4.361034  0  0  0.710764  0  4.370185  0  0.579771  0  0.065237  0.669404  0  4.354568  0
N  N82  1  0.27536488  0.85874771  0.05745978  1  0  -0.042845  0  2.998578  0  0  -0.033862  0  3.314147  0  0  -0.031584  0  3.322998  0  -0.094676  0  -0.078934  -0.035039  0  3.308467  0
N  N83  1  0.72463472  0.14125311  0.94253932  1  0  -0.042885  0  2.998479  0  0  -0.033897  0  3.314055  0  0  -0.031621  0  3.322907  0  -0.094661  0  -0.07896  -0.035076  0  3.308378  0
N  N84  1  0.24444433  0.52042005  0.77394905  1  0  0.337644  0  4.029584  0  0  0.372989  0  4.325443  0  0  0.384939  0  4.349136  0  -0.268396  0  0.131819  0.364765  0  4.309531  0
N  N85  1  0.75555822  0.47958077  0.22604964  1  0  0.337651  0  4.029633  0  0  0.372995  0  4.325512  0  0  0.384944  0  4.349206  0  -0.26766  0  0.131788  0.36477  0  4.309597  0
N  N86  1  0.84112923  0.65915947  0.06512372  1  0  -0.257712  0  2.933959  0  0  -0.246094  0  3.226858  0  0  -0.264011  0  3.243894  0  -0.346855  0  -0.183252  -0.233677  0  3.214961  0
N  N87  1  0.15886890  0.34084136  0.93487586  1  0  -0.257684  0  2.93392  0  0  -0.246069  0  3.22679  0  0  -0.263991  0  3.243833  0  -0.346841  0  -0.183251  -0.233656  0  3.214896  0
N  N88  1  0.27846116  0.49224007  0.20431171  1  0  0.322721  0  4.046354  0  0  0.361293  0  4.338348  0  0  0.374469  0  4.36146  0  -0.25757  0  0.127035  0.352167  0  4.323039  0
N  N89  1  0.72154174  0.50776259  0.79569042  1  0  0.322728  0  4.046505  0  0  0.361289  0  4.338498  0  0  0.374466  0  4.361613  0  -0.25759  0  0.127063  0.352161  0  4.323192  0
N  N90  1  0.28390253  0.63031895  0.77063307  1  0  -0.241002  0  2.909393  0  0  -0.229127  0  3.200017  0  0  -0.246924  0  3.216923  0  -0.295681  0  -0.174746  -0.216905  0  3.188447  0
N  N91  1  0.71609191  0.36968554  0.22936549  1  0  -0.24102  0  2.909541  0  0  -0.229156  0  3.200183  0  0  -0.246952  0  3.217088  0  -0.296392  0  -0.174761  -0.216933  0  3.188616  0
N  N92  1  0.24564112  0.51394683  0.26890538  1  0  -0.243697  0  2.933705  0  0  -0.230739  0  3.218845  0  0  -0.247794  0  3.234819  0  -0.308186  0  -0.175296  -0.219079  0  3.207898  0
N  N93  1  0.75436801  0.48605766  0.73109606  1  0  -0.243703  0  2.933773  0  0  -0.230731  0  3.218868  0  0  -0.247789  0  3.234843  0  -0.30814  0  -0.175336  -0.219073  0  3.207928  0
N  N94  1  0.81239255  0.54853948  0.04458646  1  0  0.327621  0  4.06094  0  0  0.362523  0  4.361776  0  0  0.374329  0  4.385821  0  -0.311896  0  0.128679  0.354361  0  4.345598  0
N  N95  1  0.18760576  0.45146226  0.95541320  1  0  0.327562  0  4.061057  0  0  0.362468  0  4.361889  0  0  0.374274  0  4.385932  0  -0.311936  0  0.12865  0.354305  0  4.345713  0
N  N96  1  0.20795190  0.41555037  0.76930439  1  0  -0.240439  0  2.424008  0  0  -0.254263  0  2.668576  0  0  -0.252884  0  2.676695  0  0.097455  0  -0.140952  -0.254997  0  2.663336  0
N  N97  1  0.79205835  0.58445229  0.23069368  1  0  -0.240498  0  2.423995  0  0  -0.254304  0  2.66851  0  0  -0.252927  0  2.676632  0  0.097311  0  -0.140952  -0.255032  0  2.663272  0
N  N98  1  0.30501300  0.48473935  0.14260273  1  0  -0.23718  0  2.366465  0  0  -0.248493  0  2.583368  0  0  -0.249476  0  2.591888  0  0.098427  0  -0.106682  -0.247889  0  2.578143  0
N  N99  1  0.69498073  0.51526147  0.85739610  1  0  -0.237134  0  2.366602  0  0  -0.248468  0  2.58354  0  0  -0.249449  0  2.592062  0  0.098428  0  -0.10668  -0.247862  0  2.578312  0
N  N100  1  0.78828012  0.44310652  0.03222506  1  0  -0.229968  0  2.392151  0  0  -0.242257  0  2.619226  0  0  -0.241502  0  2.627482  0  0.184242  0  -0.103013  -0.242692  0  2.614027  0
N  N101  1  0.21171931  0.55689339  0.96777507  1  0  -0.22994  0  2.392302  0  0  -0.242238  0  2.619376  0  0  -0.241481  0  2.627631  0  0.184251  0  -0.103005  -0.242672  0  2.614178  0
O  O102  1  0.78396871  0.86233019  0.31256544  1  0  -0.5609  0  1.855169  0  0  -0.559009  0  2.096791  0  0  -0.575413  0  2.091784  0  -0.580549  0  -0.348932  -0.547495  0  2.100148  0
O  O103  1  0.21602725  0.13766697  0.68743325  1  0  -0.56095  0  1.855082  0  0  -0.55909  0  2.096789  0  0  -0.575492  0  2.091774  0  -0.580638  0  -0.348979  -0.54758  0  2.100145  0
O  O104  1  0.95939790  0.84576274  0.46737718  1  0  -0.529261  0  1.819089  0  0  -0.505346  0  2.056725  0  0  -0.519781  0  2.048744  0  -0.568539  0  -0.305009  -0.495133  0  2.062202  0
O  O105  1  0.04060394  0.15423441  0.53262233  1  0  -0.529262  0  1.819135  0  0  -0.505328  0  2.056742  0  0  -0.519766  0  2.048762  0  -0.568721  0  -0.304986  -0.495115  0  2.062218  0
O  O106  1  0.65680292  0.81296086  0.59354126  1  0  -0.498729  0  1.800398  0  0  -0.48443  0  2.010413  0  0  -0.499498  0  2.004477  0  -0.55767  0  -0.267052  -0.473784  0  2.014363  0
O  O107  1  0.34319340  0.18703813  0.40645921  1  0  -0.498734  0  1.800335  0  0  -0.484439  0  2.010327  0  0  -0.499508  0  2.004389  0  -0.557713  0  -0.267044  -0.473798  0  2.014279  0
O  O108  1  0.47360584  0.79554481  0.27036461  1  0  -0.510451  0  1.834204  0  0  -0.506846  0  2.063648  0  0  -0.520109  0  2.057153  0  -0.556351  0  -0.302925  -0.49753  0  2.068064  0
O  O109  1  0.52639212  0.20445509  0.72963490  1  0  -0.510435  0  1.83421  0  0  -0.506808  0  2.063658  0  0  -0.520073  0  2.057162  0  -0.556317  0  -0.302924  -0.497498  0  2.068071  0
O  O110  1  0.18898948  0.90921059  0.40105393  1  0  -0.533423  0  1.767303  0  0  -0.515449  0  2.003204  0  0  -0.530915  0  1.997428  0  -0.563634  0  -0.296617  -0.504642  0  2.007001  0
O  O111  1  0.81101271  0.09078840  0.59894682  1  0  -0.533393  0  1.767347  0  0  -0.515409  0  2.003248  0  0  -0.530878  0  1.997474  0  -0.563608  0  -0.29661  -0.504605  0  2.007046  0
O  O112  1  0.39737716  0.90596388  0.56107993  1  0  -0.522645  0  1.782196  0  0  -0.520373  0  2.000489  0  0  -0.535948  0  1.995002  0  -0.566253  0  -0.307828  -0.509503  0  2.004123  0
O  O113  1  0.60262080  0.09403602  0.43892014  1  0  -0.522658  0  1.782191  0  0  -0.520412  0  2.000477  0  0  -0.535987  0  1.994989  0  -0.566242  0  -0.307821  -0.509542  0  2.004112  0
