# generated using pymatgen
data_Zn4H25C40I2N16F
_symmetry_space_group_name_H-M   'P 1'
_cell_length_a   12.95219056
_cell_length_b   13.06136785
_cell_length_c   15.13080473
_cell_angle_alpha   102.64894539
_cell_angle_beta   116.55384321
_cell_angle_gamma   104.09611953
_symmetry_Int_Tables_number   1
_chemical_formula_structural   Zn4H25C40I2N16F
_chemical_formula_sum   'Zn4 H25 C40 I2 N16 F1'
_cell_volume   2056.09582201
_cell_formula_units_Z   1
loop_
 _symmetry_equiv_pos_site_id
 _symmetry_equiv_pos_as_xyz
  1  'x, y, z'
loop_
 _atom_site_type_symbol
 _atom_site_label
 _atom_site_symmetry_multiplicity
 _atom_site_fract_x
 _atom_site_fract_y
 _atom_site_fract_z
 _atom_site_occupancy
 _atom_site_pbe_bader_charge
 _atom_site_pbe_bader_spin_density
 _atom_site_pbe_cm5_charge
 _atom_site_pbe_ddec_charge
 _atom_site_pbe_ddec_spin_density
 _atom_site_pbe_ddec_sum_bond_order
 _atom_site_pbe_magmom
Zn  Zn0  1  0.17120803  0.66923823  0.99854742  1  1.195458  0  0.733178  0.63868  0  2.3605  0
Zn  Zn1  1  0.87895845  0.36568157  0.99411427  1  1.179268  0  0.741918  0.617567  0  2.41812  0
Zn  Zn2  1  0.86457202  0.52565907  0.85591817  1  1.18608  0  0.743618  0.618567  0  2.439469  0
Zn  Zn3  1  0.17550160  0.49152216  0.13958540  1  1.192389  0  0.743502  0.634715  0  2.377846  0
H  H4  1  0.16401758  0.92744563  0.01876679  1  0.117747  0  0.119214  0.109268  0  0.986932  0
H  H5  1  0.81693995  0.26817024  0.15998093  1  0.091928  0  0.116773  0.105543  0  0.996932  0
H  H6  1  0.37946833  0.81821430  0.46526554  1  0.034662  0  0.100707  0.099988  0  1.003947  0
H  H7  1  0.82142313  0.35193530  0.33779305  1  0.037005  0  0.094759  0.092356  0  1.009768  0
H  H8  1  0.82831626  0.37810675  0.50689273  1  0.033319  0  0.096497  0.094202  0  1.006003  0
H  H9  1  0.19310834  0.36308660  0.65124184  1  0.064551  0  0.092505  0.098985  0  1.016119  0
H  H10  1  0.18631633  0.33739181  0.48189618  1  0.052614  0  0.091958  0.089722  0  1.021778  0
H  H11  1  0.65388023  0.55106260  0.18523389  1  0.053515  0  0.105242  0.128245  0  0.992268  0
H  H12  1  0.86255422  0.89459781  0.01487956  1  0.050784  0  0.092136  0.087054  0  1.021366  0
H  H13  1  0.90772143  0.07980353  0.06845641  1  0.050143  0  0.090044  0.088649  0  1.006309  0
H  H14  1  0.77318669  0.70316975  0.96716280  1  0.091852  0  0.110648  0.095432  0  1.050247  0
H  H15  1  0.61735034  0.13736919  0.81241747  1  0.084161  0  0.119942  0.106884  0  0.996904  0
H  H16  1  0.18360099  0.65523116  0.32954138  1  0.095783  0  0.114032  0.101271  0  1.017625  0
H  H17  1  0.81223787  0.49221961  0.15532589  1  0.094073  0  0.117094  0.104512  0  1.010143  0
H  H18  1  0.18046897  0.87989854  0.15741352  1  0.098593  0  0.101469  0.085636  0  1.077159  0
H  H19  1  0.21590301  0.46331450  0.37590385  1  0.063935  0  0.11574  0.104987  0  0.99749  0
H  H20  1  0.76984483  0.71264954  0.81471873  1  0.040532  0  0.117016  0.104302  0  0.988915  0
H  H21  1  0.47246774  0.75339831  0.07503053  1  0.098504  0  0.105094  0.096474  0  1.03503  0
H  H22  1  0.83444161  0.32864529  0.67042124  1  0.118773  0  0.117979  0.108864  0  1.003296  0
H  H23  1  0.19759752  0.25033392  0.12861337  1  0.094453  0  0.111863  0.098732  0  1.004914  0
H  H24  1  0.82370789  0.13970711  0.85718166  1  0.095221  0  0.111118  0.101202  0  1.025306  0
H  H25  1  0.45003442  0.49260364  0.20695920  1  0.070628  0  0.115727  0.104978  0  0.995167  0
H  H26  1  0.58899816  0.34665052  0.62390912  1  0.073287  0  0.11799  0.107953  0  0.995256  0
H  H27  1  0.34818050  0.19374330  0.50754476  1  0.041244  0  0.095499  0.106643  0  1.013833  0
H  H28  1  0.53334966  0.98146987  0.63365701  1  0.043976  0  0.099813  0.10048  0  1.003737  0
C  C29  1  0.07234039  0.85859915  0.96341560  1  0.385506  0  0.013078  -0.039718  0  3.966827  0
C  C30  1  0.12687920  0.50516744  0.79287742  1  0.219852  0  0.044735  0.086295  0  3.932629  0
C  C31  1  0.43615220  0.55645351  0.17237353  1  0.451122  0  0.00161  -0.067344  0  3.995112  0
C  C32  1  0.91626783  0.31952964  0.19902280  1  0.341309  0  0.00144  -0.066896  0  4.00097  0
C  C33  1  0.61283772  0.31114666  0.68550924  1  0.388626  0  0.002447  -0.063752  0  4.001215  0
C  C34  1  0.51496240  0.62559480  0.14954432  1  -0.014305  0  -0.042988  0.043683  0  4.129329  0
C  C35  1  0.55589204  0.20041752  0.67771500  1  0.01456  0  -0.037386  -0.037039  0  4.092242  0
C  C36  1  0.02462281  0.41662820  0.69710307  1  0.079724  0  -0.034996  -0.064753  0  4.051449  0
C  C37  1  0.99767943  0.14617321  0.99417153  1  0.039495  0  -0.042742  0.013469  0  4.069545  0
C  C38  1  0.26826995  0.01764738  0.40317027  1  -0.276133  0  -0.050597  0.017142  0  3.884071  0
C  C39  1  0.35604706  0.11133894  0.49850224  1  0.064383  0  -0.105915  -0.181133  0  3.991943  0
C  C40  1  0.01257769  0.35626376  0.30615251  1  0.048804  0  -0.039149  -0.042357  0  4.100133  0
C  C41  1  0.45441227  0.10120715  0.58277807  1  -0.00728  0  -0.010572  0.093948  0  4.055368  0
C  C42  1  0.45724663  0.99224826  0.57047378  1  -0.017338  0  -0.098528  -0.138904  0  4.017061  0
C  C43  1  0.37001989  0.90003723  0.47553697  1  -0.020823  0  -0.091808  -0.115374  0  3.996959  0
C  C44  1  0.79338605  0.64368492  0.00561435  1  0.432754  0  0.007259  -0.037075  0  3.958289  0
C  C45  1  0.27478287  0.90935023  0.38705826  1  0.008911  0  -0.013067  0.053684  0  4.011496  0
C  C46  1  0.90257639  0.35254199  0.40591174  1  -0.02269  0  -0.099065  -0.137214  0  4.011263  0
C  C47  1  0.90636228  0.36715904  0.50131554  1  -0.053226  0  -0.095229  -0.124624  0  3.997411  0
C  C48  1  0.01352199  0.37760452  0.59345890  1  0.024758  0  -0.015782  0.087987  0  4.033473  0
C  C49  1  0.11183151  0.36199458  0.58310894  1  -0.047881  0  -0.099381  -0.134355  0  4.010057  0
C  C50  1  0.10812214  0.34770897  0.48763272  1  -0.039689  0  -0.098679  -0.135213  0  4.003536  0
C  C51  1  0.76399764  0.61884787  0.07943103  1  0.062361  0  -0.043499  -0.090201  0  4.152832  0
C  C52  1  0.00608338  0.34821502  0.39862214  1  -0.01559  0  -0.014362  0.083371  0  4.048164  0
C  C53  1  0.62432605  0.61308766  0.15347036  1  0.114722  0  -0.120757  -0.279832  0  4.075537  0
C  C54  1  0.68236998  0.65598901  0.10686458  1  0.314683  0  0.082867  0.23518  0  4.096459  0
C  C55  1  0.91758902  0.93901957  0.98674971  1  0.030509  0  -0.098146  -0.11782  0  4.076214  0
C  C56  1  0.17789622  0.69541061  0.27272215  1  0.421578  0  0.006323  -0.047657  0  3.956605  0
C  C57  1  0.94361586  0.05118824  0.01829035  1  -0.120044  0  -0.101494  -0.115079  0  4.048489  0
C  C58  1  0.81190669  0.53568775  0.10177963  1  0.416389  0  0.009594  -0.029586  0  3.939316  0
C  C59  1  0.17438654  0.80953059  0.18416299  1  0.370411  0  0.000787  -0.045322  0  3.974207  0
C  C60  1  0.11993901  0.41773955  0.30838595  1  0.409457  0  0.002996  -0.064266  0  4.008867  0
C  C61  1  0.87184415  0.74927261  0.85995836  1  0.413284  0  0.000984  -0.061167  0  4.0139  0
C  C62  1  0.20375950  0.81070887  0.28584883  1  0.045676  0  -0.040597  -0.036245  0  4.067882  0
C  C63  1  0.95330992  0.86158298  0.93147025  1  0.007135  0  -0.042624  0.009586  0  4.078948  0
C  C64  1  0.44765237  0.68955076  0.10508960  1  0.442577  0  0.000131  -0.059727  0  3.997994  0
C  C65  1  0.62880479  0.20389522  0.78118743  1  0.412607  0  0.004521  -0.061482  0  4.003872  0
C  C66  1  0.93004691  0.39206311  0.72043933  1  0.365445  0  0.012481  -0.035036  0  3.952569  0
C  C67  1  0.11195610  0.24138817  0.05958872  1  0.39609  0  0.00641  -0.047583  0  3.979253  0
C  C68  1  0.92104506  0.18540191  0.92200364  1  0.322733  0  -0.00732  -0.071819  0  3.987427  0
I  I69  1  0.30025934  0.60292437  0.82308764  1  0.144211  0  0.104966  -0.013007  0  1.487756  0
I  I70  1  0.12708297  0.04821959  0.28394624  1  0.08089  0  0.068491  -0.055345  0  1.501676  0
N  N71  1  0.06223208  0.75205271  0.91899771  1  -0.775375  0  -0.273397  -0.200077  0  3.477523  0
N  N72  1  0.85195823  0.57849778  0.98454745  1  -0.786211  0  -0.276982  -0.170056  0  3.59484  0
N  N73  1  0.13934731  0.63239830  0.17194024  1  -0.789419  0  -0.280664  -0.18711  0  3.6216  0
N  N74  1  0.86337183  0.51276828  0.04373000  1  -0.787701  0  -0.279192  -0.176849  0  3.631544  0
N  N75  1  0.13750748  0.70285617  0.11758110  1  -0.789236  0  -0.281862  -0.181359  0  3.601165  0
N  N76  1  0.08959398  0.41818277  0.21115864  1  -0.78944  0  -0.267154  -0.181017  0  3.545842  0
N  N77  1  0.93563291  0.68346841  0.85293691  1  -0.796401  0  -0.284962  -0.199154  0  3.500994  0
N  N78  1  0.33758751  0.65903696  0.09991829  1  -0.784402  0  -0.271097  -0.180112  0  3.524498  0
N  N79  1  0.72142494  0.30781889  0.84492177  1  -0.809872  0  -0.270382  -0.171993  0  3.543242  0
N  N80  1  0.97261829  0.46073868  0.82067388  1  -0.770169  0  -0.28195  -0.182379  0  3.611387  0
N  N81  1  0.10197716  0.33092619  0.03023859  1  -0.779075  0  -0.287788  -0.194678  0  3.547707  0
N  N82  1  0.98235518  0.29747572  0.94553067  1  -0.76284  0  -0.292927  -0.213465  0  3.465593  0
N  N83  1  0.09468232  0.53078548  0.86579806  1  -0.765394  0  -0.279123  -0.208185  0  3.577014  0
N  N84  1  0.33065540  0.57618474  0.14236607  1  -0.820948  0  -0.278425  -0.183046  0  3.581699  0
N  N85  1  0.71198769  0.37457781  0.78540081  1  -0.764347  0  -0.26773  -0.175691  0  3.538994  0
N  N86  1  0.96309677  0.35624060  0.14267026  1  -0.773577  0  -0.270662  -0.1783  0  3.543659  0
F  F87  1  0.64838498  0.73424456  0.06401160  1  -0.635636  0  -0.115218  -0.155838  0  1.324969  0
