# generated using pymatgen
data_H16PbC14N6O7
_symmetry_space_group_name_H-M   'P 1'
_cell_length_a   7.55605714
_cell_length_b   10.50123994
_cell_length_c   29.28687471
_cell_angle_alpha   90.00047705
_cell_angle_beta   96.10245340
_cell_angle_gamma   90.00020406
_symmetry_Int_Tables_number   1
_chemical_formula_structural   H16PbC14N6O7
_chemical_formula_sum   'H64 Pb4 C56 N24 O28'
_cell_volume   2310.68566007
_cell_formula_units_Z   4
loop_
 _symmetry_equiv_pos_site_id
 _symmetry_equiv_pos_as_xyz
  1  'x, y, z'
loop_
 _atom_site_type_symbol
 _atom_site_label
 _atom_site_symmetry_multiplicity
 _atom_site_fract_x
 _atom_site_fract_y
 _atom_site_fract_z
 _atom_site_occupancy
 _atom_site_pbe_bader_charge
 _atom_site_pbe_bader_spin_density
 _atom_site_pbe_cm5_charge
 _atom_site_pbe_ddec_charge
 _atom_site_pbe_ddec_spin_density
 _atom_site_pbe_ddec_sum_bond_order
 _atom_site_pbe_magmom
H  H0  1  0.66739637  0.59101093  0.79497714  1  0.142633  0  0.117324  0.096275  0  1.02709  0
H  H1  1  0.83260941  0.59100419  0.20502341  1  0.142963  0  0.117313  0.096232  0  1.027119  0
H  H2  1  0.33265007  0.40899170  0.20502016  1  0.142928  0  0.117246  0.096073  0  1.027131  0
H  H3  1  0.16737853  0.40898320  0.79498112  1  0.142754  0  0.117256  0.096076  0  1.02712  0
H  H4  1  0.61581870  0.68845262  0.86958351  1  0.079518  0  0.110397  0.117289  0  0.996708  0
H  H5  1  0.88417006  0.68844139  0.13041500  1  0.079707  0  0.110442  0.117386  0  0.99674  0
H  H6  1  0.38420735  0.31155382  0.13041071  1  0.079633  0  0.110381  0.117182  0  0.996878  0
H  H7  1  0.11582015  0.31153743  0.86958717  1  0.079353  0  0.110386  0.117235  0  0.996876  0
H  H8  1  0.55906082  0.30849899  0.92275468  1  0.10903  0  0.105663  0.106013  0  1.021337  0
H  H9  1  0.94094888  0.30848476  0.07724714  1  0.109155  0  0.105671  0.106113  0  1.021255  0
H  H10  1  0.44092428  0.69151411  0.07724058  1  0.109049  0  0.105659  0.105995  0  1.021341  0
H  H11  1  0.05906505  0.69149025  0.92276226  1  0.108187  0  0.105602  0.105914  0  1.021449  0
H  H12  1  0.60750951  0.22631640  0.84418341  1  0.091558  0  0.116976  0.094853  0  0.996224  0
H  H13  1  0.89251548  0.22630961  0.15581739  1  0.091439  0  0.117002  0.094903  0  0.996267  0
H  H14  1  0.39248225  0.77369003  0.15581195  1  0.091505  0  0.117023  0.094897  0  0.996179  0
H  H15  1  0.10749568  0.77367588  0.84419128  1  0.091827  0  0.11692  0.094876  0  0.996269  0
H  H16  1  0.52080405  0.72372212  0.98929515  1  0.078555  0  0.096979  0.136887  0  1.03326  0
H  H17  1  0.97917972  0.72370451  0.01070407  1  0.078606  0  0.097043  0.136954  0  1.033281  0
H  H18  1  0.47917407  0.27628812  0.01069794  1  0.078287  0  0.097116  0.137084  0  1.033263  0
H  H19  1  0.02081343  0.27627050  0.98929986  1  0.07834  0  0.097118  0.137075  0  1.033233  0
H  H20  1  0.45064642  0.74491311  0.92945251  1  0.061453  0  0.099944  0.145341  0  0.992153  0
H  H21  1  0.04933853  0.74490626  0.07054597  1  0.061407  0  0.099966  0.145401  0  0.992083  0
H  H22  1  0.54934212  0.25508857  0.07053938  1  0.061531  0  0.099949  0.145357  0  0.992231  0
H  H23  1  0.95064675  0.25507922  0.92945851  1  0.061329  0  0.100012  0.145464  0  0.992109  0
H  H24  1  0.68077618  0.73845725  0.94860517  1  0.032992  0  0.100528  0.145591  0  0.988771  0
H  H25  1  0.81920364  0.73843733  0.05139368  1  0.033012  0  0.10051  0.1456  0  0.988795  0
H  H26  1  0.31920217  0.26155299  0.05138928  1  0.033195  0  0.100506  0.14559  0  0.988722  0
H  H27  1  0.18078136  0.26153006  0.94860909  1  0.033204  0  0.100492  0.145628  0  0.988654  0
H  H28  1  0.68151098  0.98371668  0.69105149  1  0.11411  0  0.11243  0.083423  0  1.014719  0
H  H29  1  0.81847417  0.98371235  0.30894716  1  0.114809  0  0.112439  0.0834  0  1.014646  0
H  H30  1  0.31847302  0.01628975  0.30894511  1  0.114804  0  0.112425  0.083339  0  1.014724  0
H  H31  1  0.18152164  0.01628456  0.69105681  1  0.114761  0  0.112489  0.08345  0  1.014655  0
H  H32  1  0.78000232  0.86107148  0.62645312  1  0.111813  0  0.108993  0.125846  0  1.041614  0
H  H33  1  0.71997681  0.86107128  0.37354541  1  0.111836  0  0.108993  0.125821  0  1.041573  0
H  H34  1  0.21998312  0.13893305  0.37354419  1  0.111775  0  0.109083  0.125924  0  1.041509  0
H  H35  1  0.28000298  0.13893516  0.62645796  1  0.111777  0  0.109061  0.125865  0  1.04155  0
H  H36  1  0.93051895  0.21773172  0.56744617  1  0.099512  0  0.112564  0.116123  0  1.007024  0
H  H37  1  0.56949401  0.21773918  0.43255440  1  0.099549  0  0.112533  0.11608  0  1.007102  0
H  H38  1  0.06950699  0.78226805  0.43255557  1  0.099721  0  0.112577  0.116138  0  1.007  0
H  H39  1  0.43047785  0.78227392  0.56744097  1  0.099581  0  0.112566  0.116124  0  1.006988  0
H  H40  1  0.83133332  0.32665192  0.63604335  1  0.089448  0  0.114913  0.087027  0  1.005633  0
H  H41  1  0.66868824  0.32665230  0.36395735  1  0.089442  0  0.114902  0.087011  0  1.00568  0
H  H42  1  0.16868836  0.67335166  0.36395661  1  0.0894  0  0.114904  0.087016  0  1.005607  0
H  H43  1  0.33128878  0.67334937  0.63603708  1  0.089347  0  0.1149  0.086995  0  1.005571  0
H  H44  1  0.76585901  0.78972563  0.54762908  1  0.065998  0  0.10245  0.150413  0  0.995744  0
H  H45  1  0.73413065  0.78973113  0.45237146  1  0.066097  0  0.10248  0.150514  0  0.995677  0
H  H46  1  0.23414306  0.21027795  0.45237261  1  0.065933  0  0.102442  0.150428  0  0.995778  0
H  H47  1  0.26585590  0.21028578  0.54763270  1  0.066096  0  0.102382  0.15042  0  0.995728  0
H  H48  1  0.97307757  0.77717254  0.58130938  1  0.088215  0  0.09969  0.15096  0  0.999694  0
H  H49  1  0.52691074  0.77718051  0.41869144  1  0.088339  0  0.09969  0.151021  0  0.999771  0
H  H50  1  0.02692583  0.22282914  0.41869233  1  0.088255  0  0.099713  0.150985  0  0.999682  0
H  H51  1  0.47307847  0.22283163  0.58131276  1  0.088068  0  0.09973  0.151037  0  0.999627  0
H  H52  1  0.96570570  0.78067901  0.51998871  1  0.049915  0  0.099087  0.141388  0  1.022989  0
H  H53  1  0.53428257  0.78068845  0.48001178  1  0.049893  0  0.099103  0.141449  0  1.022937  0
H  H54  1  0.03429503  0.21931504  0.48001295  1  0.04989  0  0.099072  0.141335  0  1.02306  0
H  H55  1  0.46570260  0.21932655  0.51999202  1  0.0499  0  0.099082  0.141361  0  1.023013  0
H  H56  1  0.32215272  0.13707515  0.76434088  1  0.62299  0  0.288012  0.375769  0  0.968018  0
H  H57  1  0.17785681  0.13707540  0.23565858  1  0.623193  0  0.287966  0.375723  0  0.968087  0
H  H58  1  0.67785572  0.86292652  0.23565921  1  0.622951  0  0.287961  0.375737  0  0.968068  0
H  H59  1  0.82214752  0.86292628  0.76434075  1  0.622953  0  0.287945  0.37564  0  0.968175  0
H  H60  1  0.50825751  0.06538584  0.77093155  1  0.645838  0  0.288578  0.372274  0  0.972893  0
H  H61  1  0.99175291  0.06538199  0.22906681  1  0.645837  0  0.288563  0.372263  0  0.972921  0
H  H62  1  0.49174793  0.93461678  0.22906643  1  0.645841  0  0.288546  0.372233  0  0.972958  0
H  H63  1  0.00825597  0.93461778  0.77093601  1  0.645692  0  0.288537  0.372223  0  0.972974  0
Pb  Pb64  1  0.62451778  0.31705103  0.72985494  1  1.45148  0  0.620265  1.019609  0  1.907403  0
Pb  Pb65  1  0.87548460  0.31703832  0.27014234  1  1.451449  0  0.620281  1.019628  0  1.907357  0
Pb  Pb66  1  0.37549735  0.68295160  0.27013739  1  1.451567  0  0.620269  1.019601  0  1.907413  0
Pb  Pb67  1  0.12451658  0.68295955  0.72986207  1  1.451615  0  0.620257  1.019551  0  1.907399  0
C  C68  1  0.64337468  0.53138686  0.82420698  1  0.443836  0  0.052925  0.100418  0  3.941876  0
C  C69  1  0.85662941  0.53138044  0.17579337  1  0.443109  0  0.052932  0.100486  0  3.94177  0
C  C70  1  0.35665304  0.46861577  0.17578933  1  0.443472  0  0.052946  0.100608  0  3.941445  0
C  C71  1  0.14336125  0.46860505  0.82421155  1  0.443845  0  0.052805  0.100425  0  3.941372  0
C  C72  1  0.61426667  0.58520096  0.86629101  1  0.006786  0  -0.07991  -0.15529  0  3.923617  0
C  C73  1  0.88573226  0.58519172  0.13370838  1  0.007413  0  -0.079955  -0.155449  0  3.923884  0
C  C74  1  0.38575406  0.41480643  0.13370312  1  0.00688  0  -0.079822  -0.155165  0  3.923902  0
C  C75  1  0.11426382  0.41479091  0.86629731  1  0.006791  0  -0.079666  -0.155009  0  3.923399  0
C  C76  1  0.58190030  0.50573264  0.90300318  1  -0.075254  0  0.006618  0.051105  0  3.973985  0
C  C77  1  0.91810490  0.50572072  0.09699676  1  -0.075136  0  0.006688  0.051204  0  3.974168  0
C  C78  1  0.41810464  0.49427475  0.09699172  1  -0.075312  0  0.006655  0.051103  0  3.974161  0
C  C79  1  0.08190709  0.49425906  0.90300885  1  -0.075676  0  0.006646  0.051269  0  3.973652  0
C  C80  1  0.58269127  0.37351387  0.89509309  1  0.045095  0  -0.08254  -0.162977  0  3.971393  0
C  C81  1  0.91731462  0.37350499  0.10490749  1  0.044834  0  -0.082596  -0.163171  0  3.97131  0
C  C82  1  0.41730298  0.62649542  0.10490129  1  0.044863  0  -0.082567  -0.162913  0  3.971466  0
C  C83  1  0.08269360  0.62647668  0.89509942  1  0.046055  0  -0.082605  -0.163011  0  3.971541  0
C  C84  1  0.61109994  0.32792450  0.85200154  1  0.456348  0  0.044929  0.084982  0  3.980369  0
C  C85  1  0.88891509  0.32791656  0.14799974  1  0.45693  0  0.044859  0.084861  0  3.980225  0
C  C86  1  0.38889985  0.67208193  0.14799430  1  0.456695  0  0.044846  0.084758  0  3.980629  0
C  C87  1  0.11109186  0.67206607  0.85200749  1  0.45647  0  0.044824  0.084639  0  3.980923  0
C  C88  1  0.54729298  0.55825454  0.94803116  1  0.624259  0  0.152692  0.27415  0  3.890772  0
C  C89  1  0.95270473  0.55824355  0.05196984  1  0.623429  0  0.152716  0.274354  0  3.890609  0
C  C90  1  0.45269994  0.44175094  0.05196320  1  0.623892  0  0.152675  0.274182  0  3.890423  0
C  C91  1  0.04730088  0.44173527  0.94803737  1  0.624454  0  0.152785  0.274276  0  3.890594  0
C  C92  1  0.54989243  0.69981410  0.95456423  1  -0.049756  0  -0.238111  -0.457561  0  3.950888  0
C  C93  1  0.95009252  0.69979914  0.04543493  1  -0.049791  0  -0.238136  -0.457739  0  3.951003  0
C  C94  1  0.45008974  0.30019234  0.04542926  1  -0.049831  0  -0.238189  -0.457777  0  3.950984  0
C  C95  1  0.04989935  0.30017778  0.95456932  1  -0.049843  0  -0.238281  -0.457975  0  3.950828  0
C  C96  1  0.73816213  0.03278205  0.66311707  1  0.46087  0  0.043779  0.096941  0  3.970223  0
C  C97  1  0.76182703  0.03278110  0.33688221  1  0.461211  0  0.043862  0.097099  0  3.96995  0
C  C98  1  0.26182602  0.96722248  0.33688063  1  0.460766  0  0.04388  0.097185  0  3.97006  0
C  C99  1  0.23816561  0.96721867  0.66311863  1  0.460313  0  0.043846  0.097071  0  3.970219  0
C  C100  1  0.79331654  0.96421265  0.62646162  1  -0.007584  0  -0.08134  -0.163263  0  3.922088  0
C  C101  1  0.70666460  0.96421432  0.37353759  1  -0.007344  0  -0.081332  -0.1633  0  3.922084  0
C  C102  1  0.20667416  0.03578807  0.37353543  1  -0.00788  0  -0.081388  -0.163241  0  3.921815  0
C  C103  1  0.29331652  0.03578640  0.62646580  1  -0.007719  0  -0.081403  -0.163249  0  3.921952  0
C  C104  1  0.86260961  0.02971696  0.59058928  1  0.003869  0  0.009812  0.055938  0  3.964933  0
C  C105  1  0.63738480  0.02971929  0.40940973  1  0.003195  0  0.009857  0.056069  0  3.965184  0
C  C106  1  0.13739583  0.97028566  0.40940870  1  0.003701  0  0.009721  0.055906  0  3.964655  0
C  C107  1  0.36259322  0.97028809  0.59059087  1  0.003632  0  0.009705  0.055846  0  3.964668  0
C  C108  1  0.87657546  0.16294224  0.59428421  1  0.012354  0  -0.07427  -0.143854  0  3.929863  0
C  C109  1  0.62342786  0.16294350  0.40571604  1  0.012161  0  -0.074298  -0.143913  0  3.929964  0
C  C110  1  0.12343680  0.83706038  0.40571491  1  0.012172  0  -0.074261  -0.14392  0  3.929914  0
C  C111  1  0.37654844  0.83706294  0.59428214  1  0.012423  0  -0.074248  -0.143879  0  3.929713  0
C  C112  1  0.82038253  0.22342881  0.63229423  1  0.452944  0  0.044912  0.090385  0  3.969085  0
C  C113  1  0.67962366  0.22342931  0.36770523  1  0.453  0  0.044949  0.090404  0  3.969076  0
C  C114  1  0.17962713  0.77657667  0.36770519  1  0.452989  0  0.044948  0.090491  0  3.969096  0
C  C115  1  0.32036040  0.77657617  0.63229172  1  0.452836  0  0.044933  0.090546  0  3.96888  0
C  C116  1  0.91914517  0.96079328  0.55060434  1  0.580146  0  0.154104  0.271661  0  3.895443  0
C  C117  1  0.58085346  0.96079926  0.44939652  1  0.57984  0  0.154121  0.27164  0  3.895647  0
C  C118  1  0.08086066  0.03920554  0.44939604  1  0.580524  0  0.154082  0.271561  0  3.895389  0
C  C119  1  0.41913796  0.03921098  0.55060499  1  0.580337  0  0.154102  0.271787  0  3.895427  0
C  C120  1  0.90646531  0.81858719  0.54959445  1  -0.046759  0  -0.238801  -0.459919  0  3.928179  0
C  C121  1  0.59352591  0.81859513  0.45040654  1  -0.046596  0  -0.238885  -0.46021  0  3.928454  0
C  C122  1  0.09353924  0.18141258  0.45040625  1  -0.04669  0  -0.238789  -0.459886  0  3.928236  0
C  C123  1  0.40646197  0.18142083  0.54959764  1  -0.046537  0  -0.23868  -0.459989  0  3.928188  0
N  N124  1  0.64043586  0.40537879  0.81693111  1  -1.213727  0  -0.29611  -0.245193  0  3.425045  0
N  N125  1  0.85957410  0.40537160  0.18306895  1  -1.214433  0  -0.296077  -0.245114  0  3.424785  0
N  N126  1  0.35957967  0.59462765  0.18306362  1  -1.214047  0  -0.296054  -0.245021  0  3.424902  0
N  N127  1  0.14042198  0.59461389  0.81693674  1  -1.213777  0  -0.295903  -0.244879  0  3.424939  0
N  N128  1  0.74990535  0.16011469  0.66612659  1  -1.24459  0  -0.3092  -0.278238  0  3.449713  0
N  N129  1  0.75009257  0.16010982  0.33387322  1  -1.245126  0  -0.309309  -0.278357  0  3.449803  0
N  N130  1  0.25009488  0.83989080  0.33387199  1  -1.244778  0  -0.309304  -0.27848  0  3.44969  0
N  N131  1  0.24989453  0.83988709  0.66612616  1  -1.244469  0  -0.309247  -0.278451  0  3.449715  0
N  N132  1  0.51545031  0.47471997  0.97913850  1  -0.744447  0  -0.207564  -0.213467  0  3.301447  0
N  N133  1  0.98455609  0.47470262  0.02086171  1  -0.743897  0  -0.207634  -0.213561  0  3.301152  0
N  N134  1  0.48454793  0.52528837  0.02085594  1  -0.766213  0  -0.207647  -0.213459  0  3.301222  0
N  N135  1  0.01546271  0.52527240  0.97914504  1  -0.766694  0  -0.20766  -0.213544  0  3.301524  0
N  N136  1  0.97543480  0.03246070  0.51869451  1  -0.761206  0  -0.206754  -0.215298  0  3.310943  0
N  N137  1  0.52456268  0.03246919  0.48130696  1  -0.735006  0  -0.20675  -0.215233  0  3.310956  0
N  N138  1  0.02457635  0.96753526  0.48130597  1  -0.735056  0  -0.206835  -0.215385  0  3.311017  0
N  N139  1  0.47541955  0.96754486  0.51869508  1  -0.761071  0  -0.206927  -0.215577  0  3.311185  0
N  N140  1  0.98182791  0.17087772  0.76353579  1  0.824234  0  0.101064  0.699414  0  4.434685  0
N  N141  1  0.51818698  0.17086900  0.23646195  1  0.823638  0  0.100859  0.69901  0  4.435383  0
N  N142  1  0.01818058  0.82912585  0.23646464  1  0.823966  0  0.10106  0.699364  0  4.435091  0
N  N143  1  0.48182112  0.82913267  0.76353608  1  0.823713  0  0.101016  0.699074  0  4.434972  0
N  N144  1  0.25401738  0.41708486  0.68451140  1  0.842986  0  0.108719  0.709928  0  4.430936  0
N  N145  1  0.24598966  0.41707955  0.31548749  1  0.843039  0  0.108709  0.710308  0  4.430521  0
N  N146  1  0.74599094  0.58292157  0.31548800  1  0.842853  0  0.10871  0.710089  0  4.430739  0
N  N147  1  0.75401739  0.58292403  0.68451223  1  0.843032  0  0.108651  0.710063  0  4.431151  0
O  O148  1  0.83427242  0.14519027  0.77843213  1  -0.533526  0  -0.173832  -0.433225  0  1.995676  0
O  O149  1  0.66574237  0.14517300  0.22156587  1  -0.53342  0  -0.173755  -0.433023  0  1.99581  0
O  O150  1  0.16573868  0.85481712  0.22156800  1  -0.533577  0  -0.173862  -0.433224  0  1.99581  0
O  O151  1  0.33427438  0.85482772  0.77843640  1  -0.533273  0  -0.17377  -0.432989  0  1.995638  0
O  O152  1  0.10547319  0.08693131  0.76777466  1  -0.589475  0  -0.177428  -0.444567  0  2.05316  0
O  O153  1  0.39454163  0.08692727  0.23222644  1  -0.589443  0  -0.177333  -0.444412  0  2.053459  0
O  O154  1  0.89453952  0.91306941  0.23222721  1  -0.589438  0  -0.177397  -0.444579  0  2.053439  0
O  O155  1  0.60546342  0.91307440  0.76776914  1  -0.589541  0  -0.177414  -0.444422  0  2.053439  0
O  O156  1  0.00645553  0.27587716  0.74463065  1  -0.518516  0  -0.160056  -0.427918  0  2.015266  0
O  O157  1  0.49356715  0.27587393  0.25536329  1  -0.518145  0  -0.159943  -0.427783  0  2.015409  0
O  O158  1  0.99355645  0.72412546  0.25536676  1  -0.518325  0  -0.16  -0.427849  0  2.015331  0
O  O159  1  0.50643004  0.72412583  0.74463285  1  -0.518253  0  -0.160047  -0.427924  0  2.015288  0
O  O160  1  0.31737351  0.45454481  0.72501311  1  -0.58397  0  -0.176057  -0.476091  0  2.024272  0
O  O161  1  0.18263514  0.45453933  0.27498626  1  -0.583967  0  -0.175946  -0.476126  0  2.024086  0
O  O162  1  0.68263475  0.54545782  0.27498594  1  -0.583984  0  -0.175964  -0.476068  0  2.02415  0
O  O163  1  0.81737706  0.54545758  0.72501252  1  -0.584007  0  -0.176022  -0.476169  0  2.024315  0
O  O164  1  0.13171338  0.47983132  0.66246026  1  -0.523855  0  -0.1714  -0.430061  0  1.947883  0
O  O165  1  0.36829033  0.47982875  0.33754047  1  -0.523876  0  -0.171434  -0.430247  0  1.947782  0
O  O166  1  0.86829395  0.52017511  0.33754117  1  -0.523701  0  -0.171423  -0.430174  0  1.947887  0
O  O167  1  0.63171018  0.52018149  0.66245982  1  -0.523871  0  -0.171352  -0.430075  0  1.948065  0
O  O168  1  0.31906807  0.31866876  0.66801054  1  -0.546143  0  -0.168496  -0.430293  0  1.988001  0
O  O169  1  0.18094335  0.31865985  0.33198608  1  -0.54617  0  -0.168604  -0.430525  0  1.987867  0
O  O170  1  0.68094125  0.68134434  0.33198682  1  -0.546161  0  -0.168558  -0.430387  0  1.987835  0
O  O171  1  0.81906769  0.68134277  0.66801371  1  -0.546236  0  -0.168509  -0.430373  0  1.988062  0
O  O172  1  0.45283497  0.15114037  0.76825905  1  -1.251935  0  -0.572452  -0.76272  0  2.080798  0
O  O173  1  0.04717315  0.15113733  0.23173940  1  -1.252167  0  -0.572418  -0.762681  0  2.080894  0
O  O174  1  0.54717052  0.84886130  0.23173928  1  -1.251933  0  -0.57239  -0.762663  0  2.080948  0
O  O175  1  0.95283596  0.84886149  0.76826480  1  -1.251892  0  -0.572334  -0.76254  0  2.081027  0
