# generated using pymatgen
data_CuH6(C3O)2
_symmetry_space_group_name_H-M   'P 1'
_cell_length_a   6.58190479
_cell_length_b   9.79372108
_cell_length_c   10.84711178
_cell_angle_alpha   116.81390027
_cell_angle_beta   103.74410344
_cell_angle_gamma   90.00085669
_symmetry_Int_Tables_number   1
_chemical_formula_structural   CuH6(C3O)2
_chemical_formula_sum   'Cu4 H24 C24 O8'
_cell_volume   601.51718742
_cell_formula_units_Z   4
loop_
 _symmetry_equiv_pos_site_id
 _symmetry_equiv_pos_as_xyz
  1  'x, y, z'
loop_
 _atom_site_type_symbol
 _atom_site_label
 _atom_site_symmetry_multiplicity
 _atom_site_fract_x
 _atom_site_fract_y
 _atom_site_fract_z
 _atom_site_occupancy
 _atom_site_hle17_bader_spin_density
 _atom_site_hle17_ddec_charge
 _atom_site_hle17_ddec_spin_density
 _atom_site_hle17_ddec_sum_bond_order
 _atom_site_hle17_magmom
 _atom_site_hse06_10hf_bader_spin_density
 _atom_site_hse06_10hf_ddec_charge
 _atom_site_hse06_10hf_ddec_spin_density
 _atom_site_hse06_10hf_ddec_sum_bond_order
 _atom_site_hse06_10hf_magmom
 _atom_site_hse06_bader_spin_density
 _atom_site_hse06_ddec_charge
 _atom_site_hse06_ddec_spin_density
 _atom_site_hse06_ddec_sum_bond_order
 _atom_site_hse06_magmom
 _atom_site_pbe_bader_spin_density
 _atom_site_pbe_cm5_charge
 _atom_site_pbe_ddec_charge
 _atom_site_pbe_ddec_spin_density
 _atom_site_pbe_ddec_sum_bond_order
 _atom_site_pbe_magmom
Cu  Cu0  1  0.74998734  0.77920277  0.99997136  1  0  0.5082  0  1.609069  0  0  0.399042  0  2.071393  0  0  0.428011  0  1.998478  0  0  0.419341  0.381556  0  2.119846  0
Cu  Cu1  1  0.25000384  0.22079317  0.00001518  1  0  0.50813  0  1.609006  0  0  0.398984  0  2.071294  0  0  0.42795  0  1.99839  0  0  0.419333  0.381487  0  2.119772  0
Cu  Cu2  1  0.00002471  0.99998953  0.00000738  1  0  0.458379  0  1.723868  0  0  0.346062  0  2.214097  0  0  0.378529  0  2.13294  0  0  0.404025  0.328754  0  2.2676  0
Cu  Cu3  1  0.49998666  0.00000256  0.00000016  1  0  0.458697  0  1.723525  0  0  0.346304  0  2.213763  0  0  0.378764  0  2.132641  0  0  0.404238  0.329074  0  2.267171  0
H  H4  1  0.60364846  0.72432038  0.61115742  1  0  0.119187  0  0.950776  0  0  0.140443  0  1.008227  0  0  0.141862  0  1.00837  0  0  0.091513  0.139316  0  1.008131  0
H  H5  1  0.89654883  0.11265033  0.38847536  1  0  0.118692  0  0.950993  0  0  0.139974  0  1.008521  0  0  0.141349  0  1.008715  0  0  0.091275  0.138853  0  1.008402  0
H  H6  1  0.39636148  0.27568464  0.38884300  1  0  0.119194  0  0.950696  0  0  0.140399  0  1.008223  0  0  0.141817  0  1.008365  0  0  0.091491  0.139275  0  1.008128  0
H  H7  1  0.10344544  0.88734534  0.61152719  1  0  0.118648  0  0.950979  0  0  0.139971  0  1.008486  0  0  0.141347  0  1.008676  0  0  0.091263  0.138843  0  1.008373  0
H  H8  1  0.66555685  0.76212194  0.47885119  1  0  0.10562  0  0.978299  0  0  0.124243  0  1.046578  0  0  0.124225  0  1.049756  0  0  0.091411  0.12403  0  1.044785  0
H  H9  1  0.83486929  0.28280878  0.52083252  1  0  0.105457  0  0.979902  0  0  0.124123  0  1.047965  0  0  0.124092  0  1.051154  0  0  0.091335  0.123904  0  1.046167  0
H  H10  1  0.33445543  0.23787845  0.52114855  1  0  0.105539  0  0.978285  0  0  0.124177  0  1.04657  0  0  0.124158  0  1.04975  0  0  0.091368  0.123963  0  1.044776  0
H  H11  1  0.16513676  0.71720090  0.47916652  1  0  0.105375  0  0.980067  0  0  0.124073  0  1.048113  0  0  0.124042  0  1.051301  0  0  0.091325  0.123856  0  1.046312  0
H  H12  1  0.49158225  0.59700176  0.42659565  1  0  0.112774  0  0.95167  0  0  0.135951  0  1.010601  0  0  0.13695  0  1.011382  0  0  0.092538  0.134914  0  1.010555  0
H  H13  1  0.00862575  0.16980372  0.57304170  1  0  0.112775  0  0.951669  0  0  0.136005  0  1.010456  0  0  0.136994  0  1.011244  0  0  0.092762  0.134961  0  1.010434  0
H  H14  1  0.50843141  0.40300667  0.57340949  1  0  0.112703  0  0.951649  0  0  0.135889  0  1.010588  0  0  0.136886  0  1.011373  0  0  0.092516  0.13485  0  1.010544  0
H  H15  1  0.99136307  0.83019667  0.42695650  1  0  0.112757  0  0.951582  0  0  0.136008  0  1.010374  0  0  0.136996  0  1.011162  0  0  0.092802  0.134968  0  1.010351  0
H  H16  1  0.44384573  0.56984261  0.78105160  1  0  0.108173  0  0.982571  0  0  0.127118  0  1.052755  0  0  0.129532  0  1.050486  0  0  0.085369  0.125082  0  1.054553  0
H  H17  1  0.05605845  0.78878518  0.21919618  1  0  0.107798  0  0.983009  0  0  0.126691  0  1.053313  0  0  0.129138  0  1.05101  0  0  0.085297  0.124631  0  1.055135  0
H  H18  1  0.55616498  0.43014856  0.21894406  1  0  0.108168  0  0.982603  0  0  0.127097  0  1.052794  0  0  0.129531  0  1.050504  0  0  0.085366  0.125054  0  1.054596  0
H  H19  1  0.94393740  0.21121062  0.78079927  1  0  0.107765  0  0.982982  0  0  0.126642  0  1.053305  0  0  0.129093  0  1.050998  0  0  0.085276  0.124582  0  1.055129  0
H  H20  1  0.22986999  0.60876103  0.86100801  1  0  0.098076  0  0.969879  0  0  0.118929  0  1.033425  0  0  0.120392  0  1.032507  0  0  0.085395  0.117539  0  1.034393  0
H  H21  1  0.26990161  0.74766496  0.13917610  1  0  0.097728  0  0.969194  0  0  0.118496  0  1.03302  0  0  0.119928  0  1.032136  0  0  0.085166  0.117112  0  1.033984  0
H  H22  1  0.77013954  0.39123235  0.13899394  1  0  0.098178  0  0.96979  0  0  0.118989  0  1.033371  0  0  0.120449  0  1.032459  0  0  0.085427  0.117599  0  1.034337  0
H  H23  1  0.73009151  0.25234223  0.86083202  1  0  0.097718  0  0.969211  0  0  0.118493  0  1.033021  0  0  0.119919  0  1.032141  0  0  0.085156  0.117108  0  1.033988  0
H  H24  1  0.28082223  0.41619664  0.76465887  1  0  0.120469  0  0.938717  0  0  0.144234  0  0.993894  0  0  0.146007  0  0.993665  0  0  0.094108  0.142848  0  0.99421  0
H  H25  1  0.21915624  0.65164557  0.23573917  1  0  0.120875  0  0.936891  0  0  0.144508  0  0.992398  0  0  0.146283  0  0.992152  0  0  0.094355  0.143144  0  0.992697  0
H  H26  1  0.71918379  0.58379454  0.23533612  1  0  0.120503  0  0.938649  0  0  0.144278  0  0.993811  0  0  0.146053  0  0.993581  0  0  0.094123  0.142886  0  0.994136  0
H  H27  1  0.78084452  0.34836978  0.76426793  1  0  0.120905  0  0.936739  0  0  0.144478  0  0.992327  0  0  0.146251  0  0.992086  0  0  0.094354  0.143111  0  0.992634  0
C  C28  1  0.92509165  0.70719653  0.76947976  1  0  0.680431  0  3.837019  0  0  0.634115  0  4.105829  0  0  0.670549  0  4.101433  0  0  0.227051  0.609461  0  4.108373  0
C  C29  1  0.57495292  0.93743176  0.23050717  1  0  0.676788  0  3.842655  0  0  0.632192  0  4.109139  0  0  0.668603  0  4.104807  0  0  0.226762  0.607559  0  4.11164  0
C  C30  1  0.07494169  0.29279888  0.23054213  1  0  0.680394  0  3.837505  0  0  0.634198  0  4.106046  0  0  0.670634  0  4.101642  0  0  0.227088  0.609543  0  4.10859  0
C  C31  1  0.42504041  0.06257675  0.76949140  1  0  0.676823  0  3.842595  0  0  0.632226  0  4.109075  0  0  0.668639  0  4.10473  0  0  0.226733  0.607578  0  4.111573  0
C  C32  1  0.95999625  0.59526851  0.62889813  1  0  -0.163616  0  3.736386  0  0  -0.158252  0  3.977494  0  0  -0.164939  0  3.997441  0  0  -0.018797  -0.153982  0  3.964722  0
C  C33  1  0.54010378  0.96618283  0.37110377  1  0  -0.162902  0  3.736598  0  0  -0.15788  0  3.977877  0  0  -0.164605  0  3.997856  0  0  -0.018905  -0.153601  0  3.965135  0
C  C34  1  0.04000742  0.40472728  0.37109845  1  0  -0.16361  0  3.736574  0  0  -0.158108  0  3.977529  0  0  -0.164799  0  3.997477  0  0  -0.01876  -0.153836  0  3.964754  0
C  C35  1  0.45987920  0.03382920  0.62889201  1  0  -0.162975  0  3.736392  0  0  -0.157986  0  3.977629  0  0  -0.164707  0  3.9976  0  0  -0.018897  -0.153694  0  3.964866  0
C  C36  1  0.81960832  0.57915641  0.50210954  1  0  0.083097  0  3.724602  0  0  0.093601  0  3.968434  0  0  0.094525  0  3.991371  0  0  -0.007313  0.092084  0  3.954177  0
C  C37  1  0.68051397  0.07682088  0.49773843  1  0  0.083451  0  3.72401  0  0  0.093258  0  3.969177  0  0  0.094159  0  3.992123  0  0  -0.007538  0.091748  0  3.954958  0
C  C38  1  0.18039341  0.42083718  0.49787939  1  0  0.083199  0  3.724679  0  0  0.093513  0  3.968678  0  0  0.094437  0  3.991618  0  0  -0.007368  0.091998  0  3.954416  0
C  C39  1  0.31946878  0.92317140  0.50225737  1  0  0.083386  0  3.723827  0  0  0.093252  0  3.969007  0  0  0.094157  0  3.991935  0  0  -0.007631  0.091744  0  3.954778  0
C  C40  1  0.63572655  0.66970070  0.50578068  1  0  -0.331445  0  3.704481  0  0  -0.41048  0  3.939306  0  0  -0.413636  0  3.950794  0  0  -0.24364  -0.407769  0  3.931902  0
C  C41  1  0.86449751  0.16343186  0.49388974  1  0  -0.330955  0  3.706771  0  0  -0.409768  0  3.941361  0  0  -0.412863  0  3.952903  0  0  -0.243462  -0.407047  0  3.933926  0
C  C42  1  0.36427597  0.33030663  0.49421964  1  0  -0.3313  0  3.704366  0  0  -0.41027  0  3.939224  0  0  -0.413427  0  3.950718  0  0  -0.243512  -0.407562  0  3.93182  0
C  C43  1  0.13549306  0.83656963  0.50611194  1  0  -0.330728  0  3.706892  0  0  -0.409641  0  3.941438  0  0  -0.412742  0  3.952995  0  0  -0.24342  -0.406919  0  3.934002  0
C  C44  1  0.13909081  0.51761395  0.62974522  1  0  0.076753  0  3.715053  0  0  0.089395  0  3.955787  0  0  0.089696  0  3.97978  0  0  -0.00934  0.088985  0  3.940163  0
C  C45  1  0.36092179  0.88789361  0.37036968  1  0  0.076941  0  3.714797  0  0  0.089464  0  3.956154  0  0  0.089852  0  3.980041  0  0  -0.009156  0.089009  0  3.940611  0
C  C46  1  0.86091149  0.48237383  0.37024412  1  0  0.076848  0  3.715139  0  0  0.089442  0  3.955737  0  0  0.089745  0  3.979729  0  0  -0.009313  0.089031  0  3.940113  0
C  C47  1  0.63906315  0.11212074  0.62962642  1  0  0.07685  0  3.714847  0  0  0.089471  0  3.956092  0  0  0.08985  0  3.979993  0  0  -0.009272  0.089018  0  3.940545  0
C  C48  1  0.27975597  0.52960343  0.76649764  1  0  -0.328475  0  3.719785  0  0  -0.406862  0  3.950034  0  0  -0.40931  0  3.959037  0  0  -0.242217  -0.404695  0  3.944336  0
C  C49  1  0.22016808  0.76317997  0.23381365  1  0  -0.328411  0  3.718165  0  0  -0.406422  0  3.948979  0  0  -0.408949  0  3.958068  0  0  -0.242068  -0.404192  0  3.943199  0
C  C50  1  0.72025004  0.47038770  0.23350009  1  0  -0.328605  0  3.719926  0  0  -0.406964  0  3.950191  0  0  -0.409428  0  3.959176  0  0  -0.242267  -0.404781  0  3.944507  0
C  C51  1  0.77982935  0.23683418  0.76619523  1  0  -0.328291  0  3.717802  0  0  -0.406302  0  3.948672  0  0  -0.408819  0  3.957765  0  0  -0.241996  -0.404047  0  3.942827  0
O  O52  1  0.80659244  0.66013753  0.82398008  1  0  -0.588603  0  2.214879  0  0  -0.509333  0  2.499243  0  0  -0.541146  0  2.482437  0  0  -0.330364  -0.487311  0  2.509897  0
O  O53  1  0.69332948  0.83581359  0.17597025  1  0  -0.587549  0  2.21736  0  0  -0.508757  0  2.500615  0  0  -0.540528  0  2.483771  0  0  -0.330093  -0.48675  0  2.51127  0
O  O54  1  0.19339090  0.33985822  0.17601724  1  0  -0.588511  0  2.21483  0  0  -0.5093  0  2.499118  0  0  -0.541105  0  2.482292  0  0  -0.330313  -0.487276  0  2.509768  0
O  O55  1  0.30664486  0.16417529  0.82402014  1  0  -0.587364  0  2.217419  0  0  -0.508563  0  2.500669  0  0  -0.540333  0  2.483818  0  0  -0.330016  -0.486568  0  2.511336  0
O  O56  1  0.02036471  0.84354575  0.82608778  1  0  -0.576028  0  2.235914  0  0  -0.495901  0  2.524948  0  0  -0.528214  0  2.506561  0  0  -0.327563  -0.475934  0  2.536784  0
O  O57  1  0.47998221  0.01734759  0.17398151  1  0  -0.573914  0  2.236659  0  0  -0.494357  0  2.524811  0  0  -0.526654  0  2.50651  0  0  -0.327315  -0.474414  0  2.536611  0
O  O58  1  0.97966436  0.15645209  0.17392713  1  0  -0.576107  0  2.235993  0  0  -0.496057  0  2.52498  0  0  -0.528371  0  2.506585  0  0  -0.327651  -0.476091  0  2.536822  0
O  O59  1  0.52000544  0.98265516  0.82601383  1  0  -0.574052  0  2.236501  0  0  -0.494525  0  2.524703  0  0  -0.526824  0  2.506402  0  0  -0.327375  -0.474587  0  2.536497  0
