# generated using pymatgen
data_Ag2H11C16S2N7
_symmetry_space_group_name_H-M   'P 1'
_cell_length_a   4.04573066
_cell_length_b   11.44710939
_cell_length_c   20.18920139
_cell_angle_alpha   89.99904250
_cell_angle_beta   90.98547485
_cell_angle_gamma   90.00111207
_symmetry_Int_Tables_number   1
_chemical_formula_structural   Ag2H11C16S2N7
_chemical_formula_sum   'Ag4 H22 C32 S4 N14'
_cell_volume   934.86241032
_cell_formula_units_Z   2
loop_
 _symmetry_equiv_pos_site_id
 _symmetry_equiv_pos_as_xyz
  1  'x, y, z'
loop_
 _atom_site_type_symbol
 _atom_site_label
 _atom_site_symmetry_multiplicity
 _atom_site_fract_x
 _atom_site_fract_y
 _atom_site_fract_z
 _atom_site_occupancy
 _atom_site_hle17_bader_spin_density
 _atom_site_hle17_ddec_charge
 _atom_site_hle17_ddec_spin_density
 _atom_site_hle17_ddec_sum_bond_order
 _atom_site_hle17_magmom
 _atom_site_hse06_10hf_bader_spin_density
 _atom_site_hse06_10hf_ddec_charge
 _atom_site_hse06_10hf_ddec_spin_density
 _atom_site_hse06_10hf_ddec_sum_bond_order
 _atom_site_hse06_10hf_magmom
 _atom_site_hse06_bader_spin_density
 _atom_site_hse06_ddec_charge
 _atom_site_hse06_ddec_spin_density
 _atom_site_hse06_ddec_sum_bond_order
 _atom_site_hse06_magmom
 _atom_site_pbe_bader_spin_density
 _atom_site_pbe_cm5_charge
 _atom_site_pbe_ddec_charge
 _atom_site_pbe_ddec_spin_density
 _atom_site_pbe_ddec_sum_bond_order
 _atom_site_pbe_magmom
Ag  Ag0  1  0.15273662  0.47715710  0.09890153  1  0  0.399998  0  1.818881  0  0  0.27664  0  2.322377  0  0  0.293674  0  2.281657  0  0  0.389977  0.26612  0  2.350002  0
Ag  Ag1  1  0.84721626  0.47716907  0.40109972  1  0  0.400054  0  1.81884  0  0  0.276736  0  2.322313  0  0  0.293769  0  2.281589  0  0  0.38999  0.266209  0  2.349931  0
Ag  Ag2  1  0.84727789  0.52283093  0.90109659  1  0  0.400058  0  1.818961  0  0  0.276705  0  2.322449  0  0  0.293733  0  2.281745  0  0  0.389954  0.266178  0  2.350078  0
Ag  Ag3  1  0.15274614  0.52284080  0.59889998  1  0  0.40007  0  1.818852  0  0  0.276717  0  2.32233  0  0  0.293738  0  2.281627  0  0  0.38996  0.26619  0  2.349959  0
H  H4  1  0.39017588  0.60840861  0.21261684  1  0  0.345975  0  0.878315  0  0  0.331346  0  0.935917  0  0  0.337725  0  0.931158  0  0  0.31458  0.326737  0  0.939406  0
H  H5  1  0.60979927  0.60841352  0.28737934  1  0  0.346002  0  0.877935  0  0  0.331353  0  0.935577  0  0  0.337737  0  0.930813  0  0  0.314535  0.326745  0  0.939067  0
H  H6  1  0.60981427  0.39158117  0.78737763  1  0  0.345948  0  0.878145  0  0  0.331329  0  0.93576  0  0  0.337707  0  0.930998  0  0  0.314578  0.32672  0  0.939244  0
H  H7  1  0.39019068  0.39158412  0.71261710  1  0  0.345989  0  0.8782  0  0  0.331374  0  0.935786  0  0  0.33775  0  0.931033  0  0  0.314581  0.326765  0  0.939274  0
H  H8  1  0.50001252  0.11503673  0.25000218  1  0  0.121439  0  0.969454  0  0  0.132525  0  1.028848  0  0  0.136164  0  1.027841  0  0  0.111491  0.130002  0  1.029674  0
H  H9  1  0.50001614  0.88495829  0.75000249  1  0  0.121485  0  0.969494  0  0  0.132592  0  1.028841  0  0  0.136231  0  1.027834  0  0  0.11152  0.130053  0  1.029692  0
H  H10  1  0.14993760  0.03957804  0.19019132  1  0  0.112788  0  0.937539  0  0  0.128276  0  0.987402  0  0  0.131175  0  0.986401  0  0  0.11461  0.125728  0  0.989218  0
H  H11  1  0.85003375  0.03957784  0.30981534  1  0  0.112782  0  0.937614  0  0  0.128316  0  0.987432  0  0  0.131214  0  0.986434  0  0  0.11462  0.125784  0  0.989229  0
H  H12  1  0.85002500  0.96041523  0.80980640  1  0  0.112905  0  0.937601  0  0  0.128284  0  0.987577  0  0  0.131184  0  0.986575  0  0  0.114608  0.125745  0  0.989381  0
H  H13  1  0.14997935  0.96041368  0.69019614  1  0  0.112936  0  0.93744  0  0  0.128264  0  0.987486  0  0  0.131162  0  0.986489  0  0  0.114616  0.125766  0  0.989234  0
H  H14  1  0.82868864  0.95067287  0.09887523  1  0  0.111246  0  0.973888  0  0  0.118609  0  1.036953  0  0  0.121621  0  1.034842  0  0  0.107087  0.116419  0  1.038473  0
H  H15  1  0.17135540  0.95068277  0.40113101  1  0  0.111274  0  0.973863  0  0  0.118622  0  1.036975  0  0  0.121662  0  1.034781  0  0  0.107062  0.116432  0  1.038498  0
H  H16  1  0.17131645  0.04932914  0.90111836  1  0  0.111316  0  0.973927  0  0  0.118657  0  1.037011  0  0  0.121672  0  1.034892  0  0  0.107091  0.116466  0  1.03853  0
H  H17  1  0.82869152  0.04932710  0.59888817  1  0  0.111368  0  0.973957  0  0  0.118747  0  1.03698  0  0  0.12177  0  1.034838  0  0  0.107116  0.116549  0  1.038523  0
H  H18  1  0.66819390  0.07765972  0.99940410  1  0  0.101268  0  0.955935  0  0  0.113802  0  1.012996  0  0  0.116079  0  1.013427  0  0  0.108041  0.112252  0  1.012623  0
H  H19  1  0.33186112  0.07769380  0.50059260  1  0  0.101293  0  0.95591  0  0  0.113904  0  1.012873  0  0  0.116179  0  1.013319  0  0  0.108114  0.11234  0  1.01254  0
H  H20  1  0.33185624  0.92233180  0.00058438  1  0  0.101321  0  0.955873  0  0  0.113867  0  1.012908  0  0  0.116136  0  1.013364  0  0  0.1081  0.112315  0  1.012534  0
H  H21  1  0.66815183  0.92234577  0.49942037  1  0  0.101309  0  0.95597  0  0  0.113852  0  1.012988  0  0  0.116121  0  1.013434  0  0  0.108093  0.112303  0  1.01261  0
H  H22  1  0.82857179  0.28714259  0.00115820  1  0  0.067535  0  0.994524  0  0  0.074163  0  1.065523  0  0  0.075707  0  1.065358  0  0  0.09795  0.07265  0  1.066177  0
H  H23  1  0.17144904  0.28716012  0.49883107  1  0  0.06753  0  0.994641  0  0  0.074209  0  1.065563  0  0  0.075753  0  1.06539  0  0  0.097917  0.072697  0  1.066213  0
H  H24  1  0.17147074  0.71285592  0.99883221  1  0  0.067472  0  0.994584  0  0  0.074079  0  1.065596  0  0  0.075625  0  1.065428  0  0  0.097887  0.072568  0  1.066247  0
H  H25  1  0.82853102  0.71286722  0.50116530  1  0  0.067396  0  0.994507  0  0  0.07409  0  1.065458  0  0  0.075638  0  1.065284  0  0  0.097898  0.072575  0  1.066111  0
C  C26  1  0.49998203  0.44550444  0.24999835  1  0  0.645057  0  3.818914  0  0  0.597227  0  4.09657  0  0  0.623086  0  4.102747  0  0  0.348115  0.579971  0  4.092249  0
C  C27  1  0.50001033  0.55448971  0.74999861  1  0  0.645234  0  3.818757  0  0  0.597415  0  4.096389  0  0  0.623275  0  4.102557  0  0  0.348141  0.580161  0  4.092073  0
C  C28  1  0.49998071  0.20971390  0.24999899  1  0  -0.281479  0  3.721705  0  0  -0.31158  0  3.985981  0  0  -0.326904  0  4.007044  0  0  -0.101866  -0.301347  0  3.97177  0
C  C29  1  0.50000135  0.79028199  0.75000185  1  0  -0.281658  0  3.721712  0  0  -0.311698  0  3.985978  0  0  -0.327025  0  4.007041  0  0  -0.101868  -0.301466  0  3.971771  0
C  C30  1  0.33581517  0.27266445  0.20009237  1  0  0.25569  0  3.761702  0  0  0.242965  0  4.011109  0  0  0.258693  0  4.025039  0  0  0.127912  0.232302  0  4.00185  0
C  C31  1  0.66417398  0.27266850  0.29990868  1  0  0.256069  0  3.761435  0  0  0.24322  0  4.01105  0  0  0.258951  0  4.024975  0  0  0.128083  0.232583  0  4.001744  0
C  C32  1  0.66419387  0.72732532  0.79991066  1  0  0.256209  0  3.76148  0  0  0.243245  0  4.011182  0  0  0.258975  0  4.025109  0  0  0.128094  0.232611  0  4.001875  0
C  C33  1  0.33582780  0.72733088  0.70009281  1  0  0.256039  0  3.761756  0  0  0.243305  0  4.011281  0  0  0.259034  0  4.02521  0  0  0.128114  0.232671  0  4.001976  0
C  C34  1  0.15386459  0.21272373  0.14537578  1  0  0.15725  0  3.746793  0  0  0.156694  0  3.984498  0  0  0.160439  0  4.004858  0  0  0.114471  0.154102  0  3.970809  0
C  C35  1  0.84612165  0.21273093  0.35462286  1  0  0.156961  0  3.747135  0  0  0.156476  0  3.984847  0  0  0.160219  0  4.005209  0  0  0.114254  0.153876  0  3.971162  0
C  C36  1  0.84612509  0.78726780  0.85462314  1  0  0.156726  0  3.747354  0  0  0.156318  0  3.98498  0  0  0.160063  0  4.00534  0  0  0.114234  0.153718  0  3.971291  0
C  C37  1  0.15388749  0.78726671  0.64537918  1  0  0.157115  0  3.746739  0  0  0.156408  0  3.984582  0  0  0.160154  0  4.004941  0  0  0.114214  0.153807  0  3.970905  0
C  C38  1  0.07628039  0.09342780  0.14797302  1  0  -0.130296  0  3.689724  0  0  -0.149498  0  3.935329  0  0  -0.155486  0  3.956698  0  0  -0.073768  -0.145544  0  3.921391  0
C  C39  1  0.92369941  0.09343125  0.35202724  1  0  -0.130276  0  3.689697  0  0  -0.149529  0  3.935296  0  0  -0.15552  0  3.956674  0  0  -0.073741  -0.145588  0  3.921356  0
C  C40  1  0.92367253  0.90657158  0.85202265  1  0  -0.130211  0  3.689814  0  0  -0.149369  0  3.935378  0  0  -0.155352  0  3.956742  0  0  -0.073702  -0.145424  0  3.921448  0
C  C41  1  0.07631673  0.90657338  0.64797882  1  0  -0.130258  0  3.689524  0  0  -0.149285  0  3.935172  0  0  -0.155273  0  3.956542  0  0  -0.07368  -0.145365  0  3.921222  0
C  C42  1  0.89804360  0.04263780  0.09580629  1  0  -0.011402  0  3.710349  0  0  -0.029446  0  3.96111  0  0  -0.02678  0  3.979189  0  0  -0.066495  -0.030995  0  3.948804  0
C  C43  1  0.10197807  0.04264626  0.40419379  1  0  -0.011272  0  3.709816  0  0  -0.029343  0  3.960649  0  0  -0.02667  0  3.978752  0  0  -0.06644  -0.030891  0  3.948344  0
C  C44  1  0.10194176  0.95736595  0.90418665  1  0  -0.011434  0  3.710261  0  0  -0.029454  0  3.961007  0  0  -0.026788  0  3.979089  0  0  -0.066456  -0.031002  0  3.948703  0
C  C45  1  0.89803787  0.95736186  0.59581425  1  0  -0.011601  0  3.710417  0  0  -0.029665  0  3.961163  0  0  -0.027001  0  3.979254  0  0  -0.066501  -0.031215  0  3.94886  0
C  C46  1  0.80619203  0.11217985  0.04182886  1  0  -0.107931  0  3.71799  0  0  -0.121299  0  3.967371  0  0  -0.127217  0  3.989269  0  0  -0.080173  -0.11762  0  3.952776  0
C  C47  1  0.19380865  0.11220047  0.45817039  1  0  -0.107928  0  3.717941  0  0  -0.121354  0  3.967321  0  0  -0.127281  0  3.989225  0  0  -0.080112  -0.117677  0  3.952714  0
C  C48  1  0.19381311  0.88781604  0.95816424  1  0  -0.107912  0  3.717918  0  0  -0.121277  0  3.967266  0  0  -0.127197  0  3.989161  0  0  -0.080186  -0.117595  0  3.952666  0
C  C49  1  0.80617783  0.88781814  0.54183544  1  0  -0.107863  0  3.718116  0  0  -0.121227  0  3.967484  0  0  -0.127145  0  3.989392  0  0  -0.080221  -0.117544  0  3.952876  0
C  C50  1  0.89448154  0.22969103  0.04234217  1  0  0.133277  0  3.705444  0  0  0.102126  0  3.957265  0  0  0.107825  0  3.975826  0  0  0.043418  0.098314  0  3.945107  0
C  C51  1  0.10549851  0.22970494  0.45765329  1  0  0.133224  0  3.705807  0  0  0.102051  0  3.957571  0  0  0.107755  0  3.976135  0  0  0.043389  0.098246  0  3.945395  0
C  C52  1  0.10553102  0.77030573  0.95765098  1  0  0.133277  0  3.705584  0  0  0.102115  0  3.957413  0  0  0.107818  0  3.975967  0  0  0.043489  0.098308  0  3.945244  0
C  C53  1  0.89448581  0.77031628  0.54234955  1  0  0.133356  0  3.705876  0  0  0.102113  0  3.957619  0  0  0.107811  0  3.976182  0  0  0.043522  0.098304  0  3.945459  0
C  C54  1  0.61076861  0.70890003  0.10776837  1  0  0.230914  0  3.975543  0  0  0.224397  0  4.273497  0  0  0.239727  0  4.290596  0  0  0.117783  0.213815  0  4.261162  0
C  C55  1  0.38920409  0.70891083  0.39223076  1  0  0.231117  0  3.975263  0  0  0.224611  0  4.273231  0  0  0.239938  0  4.290344  0  0  0.117861  0.214028  0  4.260907  0
C  C56  1  0.38921649  0.29108887  0.89222704  1  0  0.230968  0  3.975558  0  0  0.224444  0  4.273538  0  0  0.239775  0  4.290634  0  0  0.117774  0.213859  0  4.261215  0
C  C57  1  0.61079733  0.29108506  0.60777419  1  0  0.230912  0  3.975424  0  0  0.224396  0  4.27342  0  0  0.239726  0  4.290519  0  0  0.117644  0.213814  0  4.261088  0
S  S58  1  0.65641374  0.58898761  0.06227411  1  0  -0.342467  0  2.741335  0  0  -0.290098  0  3.220753  0  0  -0.303821  0  3.196773  0  0  -0.184724  -0.28009  0  3.236778  0
S  S59  1  0.34354019  0.58899676  0.43772606  1  0  -0.342552  0  2.74128  0  0  -0.2902  0  3.220695  0  0  -0.303925  0  3.196722  0  0  -0.184755  -0.280171  0  3.236679  0
S  S60  1  0.34358620  0.41100479  0.93772142  1  0  -0.342601  0  2.741563  0  0  -0.290227  0  3.221004  0  0  -0.303949  0  3.197018  0  0  -0.184745  -0.280194  0  3.236988  0
S  S61  1  0.65642637  0.41100349  0.56228110  1  0  -0.342578  0  2.741356  0  0  -0.290228  0  3.220812  0  0  -0.303949  0  3.196821  0  0  -0.184717  -0.280203  0  3.236805  0
N  N62  1  0.33568084  0.39013254  0.20003479  1  0  -0.458501  0  3.111651  0  0  -0.394524  0  3.391191  0  0  -0.414611  0  3.397486  0  0  -0.337906  -0.381641  0  3.387231  0
N  N63  1  0.66429498  0.39013571  0.29996353  1  0  -0.458559  0  3.111733  0  0  -0.394656  0  3.391441  0  0  -0.414739  0  3.397728  0  0  -0.337938  -0.381785  0  3.387476  0
N  N64  1  0.66430627  0.60985986  0.79996510  1  0  -0.458678  0  3.111619  0  0  -0.394656  0  3.391256  0  0  -0.414741  0  3.397546  0  0  -0.337941  -0.381784  0  3.387289  0
N  N65  1  0.33570711  0.60986367  0.70003499  1  0  -0.458625  0  3.111717  0  0  -0.394724  0  3.39137  0  0  -0.414809  0  3.397657  0  0  -0.337939  -0.381851  0  3.387408  0
N  N66  1  0.49997760  0.56281964  0.24999923  1  0  -0.686282  0  3.091447  0  0  -0.647398  0  3.31492  0  0  -0.669164  0  3.312379  0  0  -0.559453  -0.632347  0  3.316557  0
N  N67  1  0.50001224  0.43717625  0.74999821  1  0  -0.686376  0  3.09156  0  0  -0.647541  0  3.315062  0  0  -0.669296  0  3.312518  0  0  -0.559585  -0.632486  0  3.316701  0
N  N68  1  0.06214525  0.27905184  0.09289407  1  0  -0.306601  0  3.261383  0  0  -0.239491  0  3.538301  0  0  -0.253349  0  3.552492  0  0  -0.332984  -0.230118  0  3.5286  0
N  N69  1  0.93785216  0.27906251  0.40710203  1  0  -0.306654  0  3.261646  0  0  -0.239538  0  3.538464  0  0  -0.2534  0  3.552659  0  0  -0.332969  -0.230166  0  3.528766  0
N  N70  1  0.93788434  0.72094231  0.90710169  1  0  -0.306532  0  3.261608  0  0  -0.239387  0  3.538351  0  0  -0.253251  0  3.552548  0  0  -0.332954  -0.230016  0  3.528651  0
N  N71  1  0.06213520  0.72094910  0.59289538  1  0  -0.306794  0  3.261634  0  0  -0.239515  0  3.538455  0  0  -0.253373  0  3.552644  0  0  -0.333017  -0.230143  0  3.528757  0
N  N72  1  0.56434594  0.79513255  0.13837680  1  0  -0.45819  0  2.58668  0  0  -0.430072  0  2.788839  0  0  -0.443017  0  2.801265  0  0  -0.358953  -0.420609  0  2.780501  0
N  N73  1  0.43564816  0.79515242  0.36162662  1  0  -0.458323  0  2.586539  0  0  -0.430207  0  2.788708  0  0  -0.443163  0  2.801138  0  0  -0.358993  -0.420747  0  2.780378  0
N  N74  1  0.43569086  0.20485636  0.86162100  1  0  -0.458186  0  2.586762  0  0  -0.430069  0  2.788949  0  0  -0.443016  0  2.801372  0  0  -0.358896  -0.42061  0  2.780618  0
N  N75  1  0.56431665  0.20484434  0.63837360  1  0  -0.458134  0  2.586701  0  0  -0.430028  0  2.788875  0  0  -0.442977  0  2.8013  0  0  -0.358807  -0.420564  0  2.780542  0
