# generated using pymatgen
data_AlH6C11NO7
_symmetry_space_group_name_H-M   'P 1'
_cell_length_a   6.65409266
_cell_length_b   11.10670621
_cell_length_c   10.95345162
_cell_angle_alpha   80.74776416
_cell_angle_beta   75.05578639
_cell_angle_gamma   72.96217976
_symmetry_Int_Tables_number   1
_chemical_formula_structural   AlH6C11NO7
_chemical_formula_sum   'Al2 H12 C22 N2 O14'
_cell_volume   744.61972699
_cell_formula_units_Z   2
loop_
 _symmetry_equiv_pos_site_id
 _symmetry_equiv_pos_as_xyz
  1  'x, y, z'
loop_
 _atom_site_type_symbol
 _atom_site_label
 _atom_site_symmetry_multiplicity
 _atom_site_fract_x
 _atom_site_fract_y
 _atom_site_fract_z
 _atom_site_occupancy
 _atom_site_pbe_bader_charge
 _atom_site_pbe_bader_spin_density
 _atom_site_pbe_cm5_charge
 _atom_site_pbe_ddec_charge
 _atom_site_pbe_ddec_spin_density
 _atom_site_pbe_ddec_sum_bond_order
 _atom_site_pbe_magmom
Al  Al0  1  0.49286447  0.50732325  0.50639375  1  2.501849  0  0.395684  1.643386  0  2.571469  0
Al  Al1  1  0.99375070  0.50593539  0.50838409  1  2.502058  0  0.398715  1.636022  0  2.566599  0
H  H2  1  0.27630029  0.35899278  0.60204485  1  0.630692  0  0.339901  0.422938  0  0.885494  0
H  H3  1  0.70350939  0.66184469  0.43473477  1  0.631881  0  0.345943  0.422602  0  0.871407  0
H  H4  1  0.79275126  0.60100025  0.89683899  1  0.118215  0  0.106117  0.110306  0  1.03747  0
H  H5  1  0.64911039  0.60924630  0.12926673  1  0.070919  0  0.105752  0.109369  0  1.002351  0
H  H6  1  0.96343929  0.47422130  0.09290643  1  0.057077  0  0.094627  0.108839  0  1.027506  0
H  H7  1  0.12754530  0.32002548  0.12317792  1  0.058706  0  0.089999  0.096254  0  1.023095  0
H  H8  1  0.28552219  0.30705879  0.88985189  1  0.072303  0  0.092136  0.104585  0  1.014065  0
H  H9  1  0.11541175  0.45952359  0.85704900  1  0.059761  0  0.100693  0.12276  0  0.999995  0
H  H10  1  0.20129111  0.25334420  0.31636972  1  0.0911  0  0.113937  0.119802  0  1.025462  0
H  H11  1  0.52172281  0.14510853  0.16476429  1  0.09618  0  0.114417  0.113459  0  0.972474  0
H  H12  1  0.41620467  0.78263476  0.32566010  1  0.08401  0  0.110826  0.113708  0  1.032764  0
H  H13  1  0.62606492  0.90973471  0.16696287  1  0.075474  0  0.112699  0.111475  0  0.975223  0
C  C14  1  0.85075696  0.28375395  0.48878803  1  1.624155  0  0.275225  0.64851  0  4.099282  0
C  C15  1  0.65488475  0.49751996  0.73344348  1  1.551991  0  0.270716  0.650478  0  4.089776  0
C  C16  1  0.13732384  0.73149273  0.52154630  1  1.669827  0  0.273163  0.64845  0  4.12764  0
C  C17  1  0.32438223  0.52090452  0.27945577  1  1.537755  0  0.266027  0.644466  0  4.101146  0
C  C18  1  0.39871962  0.51927422  0.13989820  1  -0.039171  0  -0.015088  -0.095513  0  3.995427  0
C  C19  1  0.56739971  0.50706545  0.87132956  1  0.024415  0  -0.006754  -0.076784  0  3.959686  0
C  C20  1  0.30581041  0.46935282  0.06608199  1  -0.01085  0  -0.004475  0.059189  0  3.878819  0
C  C21  1  0.65801874  0.56154479  0.94444811  1  -0.046881  0  -0.081436  -0.098335  0  3.98185  0
C  C22  1  0.38827989  0.46357078  0.93547768  1  -0.041991  0  0.003831  0.074961  0  3.867956  0
C  C23  1  0.57590751  0.56732602  0.07446472  1  -0.001552  0  -0.082994  -0.100211  0  3.986222  0
C  C24  1  0.12571716  0.41124641  0.06679615  1  -0.028868  0  -0.155905  -0.198549  0  3.86466  0
C  C25  1  0.22091830  0.40337378  0.91957505  1  -0.009306  0  -0.155814  -0.202767  0  3.851164  0
C  C26  1  0.92163656  0.14175207  0.49053077  1  0.061568  0  0.011318  -0.093648  0  3.883987  0
C  C27  1  0.11873127  0.08068367  0.40927234  1  -0.039935  0  0.013381  0.079066  0  3.933303  0
C  C28  1  0.80194233  0.06903963  0.57569345  1  0.223918  0  0.090612  0.008766  0  3.931076  0
C  C29  1  0.24647846  0.15069092  0.31879737  1  0.00581  0  -0.078932  -0.123566  0  3.939254  0
C  C30  1  0.42658410  0.08972480  0.23448497  1  0.006694  0  -0.072081  -0.056561  0  3.981884  0
C  C31  1  0.06729747  0.87391468  0.51210315  1  0.012033  0  0.017933  -0.078247  0  3.885434  0
C  C32  1  0.88018623  0.93622028  0.59107512  1  0.205753  0  0.086875  0.000123  0  3.934052  0
C  C33  1  0.18608069  0.94481957  0.41560069  1  0.110227  0  0.008383  0.067861  0  3.93789  0
C  C34  1  0.36973651  0.88526283  0.32520639  1  0.000505  0  -0.083604  -0.126667  0  3.942711  0
C  C35  1  0.48663441  0.95647202  0.23638884  1  -0.096553  0  -0.078049  -0.066998  0  4.000397  0
N  N36  1  0.76641943  0.86280699  0.69573604  1  0.43206  0  0.060836  0.515499  0  4.222037  0
N  N37  1  0.59964065  0.13179055  0.66262136  1  0.439224  0  0.065357  0.516989  0  4.240812  0
O  O38  1  0.66794560  0.33958903  0.46488128  1  -1.238172  0  -0.223405  -0.563924  0  2.320909  0
O  O39  1  0.84015059  0.51607570  0.68332573  1  -1.258415  0  -0.232927  -0.585762  0  2.332352  0
O  O40  1  0.00536467  0.67922160  0.49983195  1  -1.247792  0  -0.229141  -0.587577  0  2.342179  0
O  O41  1  0.44690911  0.54809359  0.33781341  1  -1.273597  0  -0.243269  -0.614958  0  2.376941  0
O  O42  1  0.32258103  0.67796193  0.54236335  1  -1.23533  0  -0.221523  -0.563413  0  2.333442  0
O  O43  1  0.14480133  0.49565145  0.33202630  1  -1.252532  0  -0.233097  -0.577492  0  2.31417  0
O  O44  1  0.98107745  0.33431872  0.51428375  1  -1.246952  0  -0.218208  -0.564074  0  2.34674  0
O  O45  1  0.53538402  0.46864545  0.67427645  1  -1.270648  0  -0.238705  -0.607492  0  2.364001  0
O  O46  1  0.25175946  0.44443965  0.55981103  1  -1.430631  0  -0.450393  -0.9944  0  2.198073  0
O  O47  1  0.73561119  0.57079363  0.45386474  1  -1.435697  0  -0.449117  -0.987891  0  2.188652  0
O  O48  1  0.88070095  0.77706931  0.75462552  1  -0.428019  0  -0.095484  -0.287471  0  1.927595  0
O  O49  1  0.56692333  0.89262589  0.71787558  1  -0.457751  0  -0.120353  -0.311135  0  1.883489  0
O  O50  1  0.43417237  0.16778464  0.62089302  1  -0.438616  0  -0.091042  -0.291821  0  1.963562  0
O  O51  1  0.61512235  0.14465227  0.76949784  1  -0.426903  0  -0.103309  -0.294607  0  1.881481  0
