# generated using pymatgen
data_AlH10(C2O)6
_symmetry_space_group_name_H-M   'P 1'
_cell_length_a   6.66017325
_cell_length_b   17.02794016
_cell_length_c   16.07654730
_cell_angle_alpha   78.71850402
_cell_angle_beta   86.27486898
_cell_angle_gamma   86.48522491
_symmetry_Int_Tables_number   1
_chemical_formula_structural   AlH10(C2O)6
_chemical_formula_sum   'Al4 H40 C48 O24'
_cell_volume   1782.01819201
_cell_formula_units_Z   4
loop_
 _symmetry_equiv_pos_site_id
 _symmetry_equiv_pos_as_xyz
  1  'x, y, z'
loop_
 _atom_site_type_symbol
 _atom_site_label
 _atom_site_symmetry_multiplicity
 _atom_site_fract_x
 _atom_site_fract_y
 _atom_site_fract_z
 _atom_site_occupancy
 _atom_site_pbe_bader_charge
 _atom_site_pbe_bader_spin_density
 _atom_site_pbe_cm5_charge
 _atom_site_pbe_ddec_charge
 _atom_site_pbe_ddec_spin_density
 _atom_site_pbe_ddec_sum_bond_order
 _atom_site_pbe_magmom
Al  Al0  1  0.12936312  0.50100388  0.49738483  1  2.501528  0  0.400502  1.646055  0  2.568186  0
Al  Al1  1  0.62936838  0.50060517  0.49835544  1  2.503116  0  0.396831  1.6445  0  2.586518  0
Al  Al2  1  0.64224844  0.99717212  0.99888243  1  2.501517  0  0.397772  1.638695  0  2.587858  0
Al  Al3  1  0.14268822  0.99707181  0.99694086  1  2.497751  0  0.398582  1.640224  0  2.574083  0
H  H4  1  0.64180046  0.86274930  0.81464664  1  0.108057  0  0.114493  0.121337  0  0.988189  0
H  H5  1  0.63104705  0.13218627  0.18979806  1  0.102075  0  0.110348  0.112824  0  0.996539  0
H  H6  1  0.49274125  0.79745150  0.70932269  1  0.064296  0  0.104834  0.10482  0  1.002678  0
H  H7  1  0.77211061  0.19949136  0.29491400  1  0.071408  0  0.104049  0.104689  0  1.001376  0
H  H8  1  0.26263729  0.68472425  0.80737267  1  0.123801  0  0.112269  0.116608  0  0.999709  0
H  H9  1  0.00764080  0.30979030  0.18774238  1  0.113557  0  0.113476  0.118776  0  0.994078  0
H  H10  1  0.52421253  0.69692982  0.61425995  1  0.097343  0  0.10986  0.116219  0  0.995696  0
H  H11  1  0.73455512  0.30280543  0.38652406  1  0.096579  0  0.10869  0.113544  0  0.998177  0
H  H12  1  0.12809585  0.62869709  0.68905648  1  0.08315  0  0.113178  0.120878  0  0.993309  0
H  H13  1  0.13627488  0.36994647  0.30397644  1  0.106216  0  0.113966  0.121263  0  0.990338  0
H  H14  1  0.60280960  0.16140270  0.76500778  1  0.035879  0  0.087594  0.079958  0  0.994796  0
H  H15  1  0.13022348  0.75373526  0.14850517  1  0.046539  0  0.094683  0.096354  0  0.985152  0
H  H16  1  0.57555801  0.22240824  0.84222426  1  0.052113  0  0.096973  0.100134  0  0.97391  0
H  H17  1  0.36095937  0.72409104  0.09926396  1  0.048549  0  0.098563  0.100511  0  0.991433  0
H  H18  1  0.57767380  0.33735912  0.73689237  1  0.065305  0  0.091325  0.089825  0  0.995997  0
H  H19  1  0.42903896  0.61950894  0.21126739  1  0.045376  0  0.097318  0.105511  0  0.98437  0
H  H20  1  0.58832519  0.27703453  0.65938859  1  0.037276  0  0.092721  0.091624  0  0.984327  0
H  H21  1  0.17294353  0.63253253  0.24576984  1  0.06467  0  0.093932  0.097485  0  1.016421  0
H  H22  1  0.95549214  0.11463194  0.71512662  1  0.024666  0  0.092602  0.089012  0  0.97655  0
H  H23  1  0.12278855  0.86056090  0.23888150  1  0.014807  0  0.095752  0.097068  0  0.987163  0
H  H24  1  0.92619953  0.22505545  0.60481188  1  0.00783  0  0.094469  0.092626  0  0.970549  0
H  H25  1  0.08661237  0.73984212  0.33676273  1  0.031834  0  0.092517  0.08992  0  1.011631  0
H  H26  1  0.12632633  0.24191071  0.86052280  1  0.040342  0  0.094894  0.09642  0  0.995237  0
H  H27  1  0.69526336  0.83150919  0.21144295  1  0.052801  0  0.094599  0.097985  0  0.996057  0
H  H28  1  0.88073123  0.27702638  0.89128402  1  0.08179  0  0.099106  0.106849  0  1.004908  0
H  H29  1  0.68098442  0.75060123  0.15834388  1  0.065629  0  0.100947  0.108563  0  0.976226  0
H  H30  1  0.14083180  0.34479402  0.74125604  1  0.054202  0  0.105814  0.087931  0  0.964347  0
H  H31  1  0.62595428  0.75179692  0.34585932  1  0.014373  0  0.096724  0.070829  0  0.96784  0
H  H32  1  0.16777018  0.15317148  0.75093531  1  0.049613  0  0.091977  0.089715  0  0.991068  0
H  H33  1  0.34978698  0.87924957  0.28174964  1  0.0069  0  0.089786  0.085225  0  0.978731  0
H  H34  1  0.15148944  0.25955967  0.63401889  1  0.0377  0  0.095101  0.096133  0  0.990053  0
H  H35  1  0.27549801  0.77210754  0.39278237  1  0.034464  0  0.091488  0.086364  0  0.977935  0
H  H36  1  0.92598887  0.46452271  0.73909907  1  0.040195  0  0.100372  0.030652  0  0.976491  0
H  H37  1  0.87056209  0.64923232  0.34823994  1  0.064148  0  0.102668  0.030169  0  1.022045  0
H  H38  1  0.21998478  0.80036986  0.98080568  1  0.085734  0  0.107983  0.046486  0  1.017949  0
H  H39  1  0.06929822  0.19807072  0.01294547  1  0.08981  0  0.103949  0.042338  0  1.013432  0
H  H40  1  0.36821187  0.45965038  0.60594486  1  0.620496  0  0.351317  0.427226  0  0.860279  0
H  H41  1  0.89583285  0.49964841  0.38720279  1  0.647282  0  0.355619  0.436138  0  0.847345  0
H  H42  1  0.40430401  0.04360878  0.89194685  1  0.616561  0  0.349183  0.4243  0  0.86611  0
H  H43  1  0.87706065  0.02362122  0.09706737  1  0.610731  0  0.351588  0.428169  0  0.859796  0
C  C44  1  0.37490026  0.61793841  0.38493400  1  1.563621  0  0.280166  0.64096  0  4.015314  0
C  C45  1  0.88290794  0.38425205  0.61314069  1  1.559391  0  0.268784  0.622286  0  4.063608  0
C  C46  1  0.41283787  0.40274941  0.40579246  1  1.565888  0  0.266475  0.643032  0  4.093413  0
C  C47  1  0.84603409  0.59850522  0.58904314  1  1.561473  0  0.26391  0.630503  0  4.113961  0
C  C48  1  0.93375487  0.83048122  0.86185853  1  -0.036178  0  -0.004016  -0.066169  0  3.950177  0
C  C49  1  0.34344006  0.16383903  0.13795802  1  -0.011684  0  -0.007802  -0.069603  0  3.953143  0
C  C50  1  0.83007872  0.65827706  0.64582378  1  -0.024012  0  -0.015407  -0.045011  0  3.994348  0
C  C51  1  0.43105541  0.34114458  0.35100055  1  0.022554  0  -0.013569  -0.041685  0  3.984892  0
C  C52  1  0.63146955  0.76068784  0.70456301  1  -0.050447  0  -0.081965  -0.123296  0  3.986277  0
C  C53  1  0.63307699  0.23652689  0.29730149  1  -0.015471  0  -0.083087  -0.12681  0  3.98623  0
C  C54  1  0.64836879  0.70557059  0.65196967  1  -0.053647  0  -0.082022  -0.094159  0  3.986343  0
C  C55  1  0.61282553  0.29327686  0.34797969  1  -0.081426  0  -0.081023  -0.091809  0  3.98439  0
C  C56  1  0.98994997  0.66573393  0.69421382  1  0.033598  0  -0.069641  -0.125302  0  3.908946  0
C  C57  1  0.27425242  0.33232186  0.30163515  1  -0.067059  0  -0.066736  -0.119692  0  3.90298  0
C  C58  1  0.97384519  0.71990186  0.75109968  1  -0.065796  0  0.000522  0.077564  0  4.000517  0
C  C59  1  0.29376932  0.27635722  0.24671984  1  0.040299  0  -0.000256  0.077206  0  3.995846  0
C  C60  1  0.79218665  0.76929483  0.75536747  1  0.086454  0  0.005547  0.089803  0  3.980761  0
C  C61  1  0.47581745  0.22676519  0.24527433  1  0.014064  0  0.004296  0.086265  0  3.981402  0
C  C62  1  0.77788020  0.82429443  0.81123209  1  -0.056782  0  -0.066611  -0.114435  0  3.92718  0
C  C63  1  0.49452504  0.17070745  0.19060596  1  -0.039817  0  -0.06683  -0.10821  0  3.930822  0
C  C64  1  0.11081000  0.77843272  0.86110595  1  -0.024747  0  -0.015643  -0.004148  0  3.985653  0
C  C65  1  0.16522666  0.21550932  0.13659489  1  -0.044136  0  -0.017014  -0.006128  0  3.993748  0
C  C66  1  0.12846904  0.72508403  0.80586504  1  -0.037672  0  -0.065024  -0.128166  0  3.913565  0
C  C67  1  0.14241734  0.26964945  0.19094440  1  -0.05342  0  -0.064859  -0.128843  0  3.908499  0
C  C68  1  0.66725864  0.21176512  0.78584115  1  -0.048389  0  -0.162431  -0.174907  0  3.881628  0
C  C69  1  0.29002527  0.73731028  0.15896423  1  -0.031915  0  -0.155791  -0.175784  0  3.839519  0
C  C70  1  0.66352414  0.28747978  0.71481869  1  -0.06616  0  -0.165093  -0.183285  0  3.889694  0
C  C71  1  0.31532475  0.66278733  0.23076776  1  -0.028371  0  -0.158568  -0.180318  0  3.821672  0
C  C72  1  0.01160662  0.16811678  0.73302211  1  -0.054338  0  -0.155896  -0.170324  0  3.859797  0
C  C73  1  0.26942335  0.83324303  0.25961474  1  0.006365  0  -0.15727  -0.177998  0  3.865136  0
C  C74  1  0.97464181  0.25952655  0.83832850  1  -0.046456  0  -0.157442  -0.206857  0  3.835114  0
C  C75  1  0.60645272  0.78025318  0.20783671  1  -0.04942  0  -0.15791  -0.207504  0  3.853514  0
C  C76  1  0.88448004  0.18777265  0.81103916  1  0.047646  0  -0.013909  0.017887  0  3.810265  0
C  C77  1  0.39145860  0.80856489  0.18256618  1  0.027426  0  -0.012769  0.020034  0  3.808209  0
C  C78  1  0.87908230  0.31210393  0.68622458  1  0.028864  0  -0.00723  0.001878  0  3.775714  0
C  C79  1  0.38381801  0.68865583  0.31126880  1  0.021857  0  -0.007202  0.002156  0  3.783147  0
C  C80  1  0.00056885  0.24059897  0.65819457  1  0.005982  0  -0.154585  -0.17107  0  3.858364  0
C  C81  1  0.24234735  0.75878201  0.33093489  1  -0.021052  0  -0.156045  -0.171832  0  3.874681  0
C  C82  1  0.98413498  0.33185548  0.76382019  1  -0.03065  0  -0.080771  -0.086213  0  3.802703  0
C  C83  1  0.59939607  0.72046022  0.29404059  1  -0.006248  0  -0.088294  -0.095036  0  3.829022  0
C  C84  1  0.36658229  0.09905322  0.08699518  1  1.550439  0  0.266784  0.642812  0  4.096409  0
C  C85  1  0.91462920  0.89520036  0.91286537  1  1.581895  0  0.270237  0.640202  0  4.098858  0
C  C86  1  0.38992015  0.88074887  0.11014101  1  1.57421  0  0.278471  0.643671  0  4.017799  0
C  C87  1  0.89284945  0.11437460  0.88239583  1  1.559645  0  0.27487  0.64508  0  4.016028  0
C  C88  1  0.88775936  0.40888121  0.78581125  1  0.95891  0  0.107423  0.302488  0  3.898505  0
C  C89  1  0.76574027  0.65490968  0.29608637  1  0.910049  0  0.101796  0.310644  0  3.913282  0
C  C90  1  0.26504661  0.77257619  0.92518804  1  0.951468  0  0.100037  0.274649  0  3.942009  0
C  C91  1  0.01460117  0.22022725  0.07124048  1  0.944952  0  0.097095  0.271653  0  3.957445  0
O  O92  1  0.57623529  0.42123965  0.43267933  1  -1.257053  0  -0.237387  -0.595431  0  2.343715  0
O  O93  1  0.02103729  0.56841555  0.57316504  1  -1.26442  0  -0.239179  -0.601275  0  2.372545  0
O  O94  1  0.20313361  0.59472237  0.41567540  1  -1.257718  0  -0.229678  -0.579225  0  2.348877  0
O  O95  1  0.71396983  0.41685454  0.58920163  1  -1.266489  0  -0.23313  -0.595114  0  2.386201  0
O  O96  1  0.23700525  0.43270430  0.42080171  1  -1.262486  0  -0.239395  -0.602244  0  2.342942  0
O  O97  1  0.68277541  0.58062540  0.56179772  1  -1.257799  0  -0.233885  -0.581817  0  2.342615  0
O  O98  1  0.05513445  0.40715156  0.58204095  1  -1.264589  0  -0.238901  -0.601697  0  2.359795  0
O  O99  1  0.54242101  0.58494217  0.41052640  1  -1.256099  0  -0.216099  -0.574176  0  2.412953  0
O  O100  1  0.37184060  0.49383910  0.55013309  1  -1.426222  0  -0.449753  -0.989702  0  2.200559  0
O  O101  1  0.88650840  0.50459220  0.44643703  1  -1.450586  0  -0.448833  -0.99972  0  2.219601  0
O  O102  1  0.22193437  0.90362941  0.07731577  1  -1.271022  0  -0.236578  -0.59509  0  2.353794  0
O  O103  1  0.72888379  0.07994217  0.90615039  1  -1.275773  0  -0.235335  -0.601773  0  2.377479  0
O  O104  1  0.54483386  0.07789625  0.06393566  1  -1.255676  0  -0.235649  -0.591393  0  2.344562  0
O  O105  1  0.07598540  0.92761602  0.92413746  1  -1.25944  0  -0.233703  -0.593525  0  2.361362  0
O  O106  1  0.55385126  0.91554741  0.08864009  1  -1.267447  0  -0.229056  -0.58155  0  2.371745  0
O  O107  1  0.06442634  0.09140999  0.91207843  1  -1.263528  0  -0.244123  -0.611979  0  2.346264  0
O  O108  1  0.73839812  0.91562978  0.93846587  1  -1.250436  0  -0.225851  -0.568365  0  2.346156  0
O  O109  1  0.20511594  0.06811582  0.07260139  1  -1.254798  0  -0.239468  -0.611979  0  2.358659  0
O  O110  1  0.39941128  0.00520892  0.94517117  1  -1.421222  0  -0.449162  -0.984458  0  2.18815  0
O  O111  1  0.88637396  0.99573639  0.04975501  1  -1.415688  0  -0.449654  -0.986457  0  2.192739  0
O  O112  1  0.77298771  0.41296593  0.84717836  1  -1.075561  0  -0.25673  -0.341979  0  2.106724  0
O  O113  1  0.79520682  0.61268197  0.24236633  1  -1.08946  0  -0.278909  -0.385555  0  2.115571  0
O  O114  1  0.42995360  0.73688536  0.92026696  1  -1.083875  0  -0.263852  -0.360415  0  2.128696  0
O  O115  1  0.84266005  0.24948772  0.07769879  1  -1.082378  0  -0.259807  -0.353215  0  2.139615  0
