# generated using pymatgen
data_CuH18C20(NO2)2
_symmetry_space_group_name_H-M   'P 1'
_cell_length_a   9.80688400
_cell_length_b   9.92791150
_cell_length_c   11.79301241
_cell_angle_alpha   114.20920905
_cell_angle_beta   89.72905205
_cell_angle_gamma   117.16096011
_symmetry_Int_Tables_number   1
_chemical_formula_structural   CuH18C20(NO2)2
_chemical_formula_sum   'Cu2 H36 C40 N4 O8'
_cell_volume   907.87349190
_cell_formula_units_Z   2
loop_
 _symmetry_equiv_pos_site_id
 _symmetry_equiv_pos_as_xyz
  1  'x, y, z'
loop_
 _atom_site_type_symbol
 _atom_site_label
 _atom_site_symmetry_multiplicity
 _atom_site_fract_x
 _atom_site_fract_y
 _atom_site_fract_z
 _atom_site_occupancy
 _atom_site_pbe_cm5_charge
 _atom_site_pbe_ddec_charge
 _atom_site_pbe_ddec_spin_density
 _atom_site_pbe_ddec_sum_bond_order
 _atom_site_pbe_magmom
Cu  Cu0  1  0.12669741  0.98744704  0.49935246  1  0.685592  0.769593  0.708353  2.363295  0.55
Cu  Cu1  1  0.87327761  0.01255849  0.50064962  1  0.685555  0.769652  -0.708324  2.363  -0.55
H  H2  1  0.11616900  0.78375444  0.09964323  1  0.101162  0.10104  0.000247  1.028464  0.0
H  H3  1  0.88384076  0.21624232  0.90035404  1  0.101184  0.100989  -0.000247  1.0285  0.0
H  H4  1  0.07621535  0.68607988  0.86445793  1  0.097072  0.092249  -0.000109  1.033263  0.0
H  H5  1  0.92378724  0.31391683  0.13554188  1  0.097097  0.092289  0.000109  1.03322  0.0
H  H6  1  0.87231390  0.70102550  0.75345725  1  0.102243  0.099789  -7e-06  0.985666  0.0
H  H7  1  0.12769408  0.29897631  0.24654517  1  0.102265  0.09981  7e-06  0.985662  0.0
H  H8  1  0.70467382  0.80673163  0.87608438  1  0.096617  0.090104  0.000101  1.031561  0.0
H  H9  1  0.29533255  0.19326888  0.12391930  1  0.096667  0.090191  -0.000101  1.031632  0.0
H  H10  1  0.74387984  0.90043037  0.10975585  1  0.104957  0.107533  -0.000268  1.01217  0.0
H  H11  1  0.25613220  0.09957142  0.89024996  1  0.104901  0.10746  0.000268  1.012222  0.0
H  H12  1  0.64390530  0.82754447  0.69583962  1  0.102959  0.110145  -0.000108  1.004282  0.0
H  H13  1  0.35609606  0.17245616  0.30415053  1  0.102965  0.110156  0.000108  1.004271  0.0
H  H14  1  0.51015214  0.99914206  0.74819139  1  0.100511  0.09681  -2e-06  1.014384  0.0
H  H15  1  0.48984754  0.00085719  0.25180847  1  0.100512  0.096839  2e-06  1.014346  0.0
H  H16  1  0.21810920  0.85544945  0.69684132  1  0.103084  0.112157  0.00011  1.021144  0.0
H  H17  1  0.78188887  0.14454851  0.30315894  1  0.103089  0.112183  -0.00011  1.021113  0.0
H  H18  1  0.48374636  0.51050846  0.60862728  1  0.103851  0.107773  0.000257  1.012701  0.0
H  H19  1  0.51625965  0.48949344  0.39136500  1  0.103841  0.10775  -0.000257  1.012839  0.0
H  H20  1  0.05966209  0.53887494  0.60694251  1  0.102651  0.101636  -0.000257  1.034162  0.0
H  H21  1  0.94033774  0.46111796  0.39305428  1  0.102645  0.101644  0.000257  1.034101  0.0
H  H22  1  0.45664422  0.22527617  0.64508280  1  0.119706  0.102701  -4.4e-05  1.026966  0.0
H  H23  1  0.54334975  0.77472176  0.35491999  1  0.11973  0.102744  4.4e-05  1.026941  0.0
H  H24  1  0.85187074  0.29029981  0.71763659  1  0.097019  0.153882  3.9e-05  1.014382  0.0
H  H25  1  0.14811870  0.70969048  0.28236355  1  0.097048  0.15389  -3.9e-05  1.014315  0.0
H  H26  1  0.72274634  0.37725781  0.76012355  1  0.088608  0.127307  1e-06  1.064637  0.0
H  H27  1  0.27725068  0.62274012  0.23988009  1  0.088593  0.127266  -1e-06  1.064725  0.0
H  H28  1  0.82251978  0.39213445  0.63526412  1  0.093494  0.137969  -1.7e-05  1.014375  0.0
H  H29  1  0.17748249  0.60786604  0.36474040  1  0.093484  0.137945  1.7e-05  1.014364  0.0
H  H30  1  0.60769841  0.58777878  0.21845443  1  0.107721  0.085817  -7e-06  1.031546  0.0
H  H31  1  0.39229994  0.41221535  0.78154619  1  0.107689  0.08575  7e-06  1.031561  0.0
H  H32  1  0.79436173  0.40927116  0.99505203  1  0.096335  0.13965  4e-06  1.007045  0.0
H  H33  1  0.20564055  0.59072935  0.00495080  1  0.096327  0.139631  -4e-06  1.00707  0.0
H  H34  1  0.74035379  0.42567599  0.14283770  1  0.090176  0.130501  -6e-06  1.029483  0.0
H  H35  1  0.25964792  0.57432325  0.85716385  1  0.090155  0.130455  7e-06  1.029558  0.0
H  H36  1  0.62937615  0.23369906  0.99892662  1  0.096853  0.140385  -1e-06  0.988238  0.0
H  H37  1  0.37062805  0.76629893  0.00107363  1  0.096855  0.140365  1e-06  0.988293  0.0
C  C38  1  0.95773320  0.90827912  0.25924734  1  0.212705  0.567398  0.000186  4.164317  0.0
C  C39  1  0.04226866  0.09172268  0.74075340  1  0.212808  0.5675  -0.000186  4.164083  0.0
C  C40  1  0.93235454  0.84772650  0.11841437  1  -0.020306  -0.037554  -0.000291  3.979775  0.0
C  C41  1  0.06764922  0.15227276  0.88158632  1  -0.02032  -0.03765  0.00029  3.979909  0.0
C  C42  1  0.02559833  0.78657650  0.04914661  1  -0.086579  -0.100408  -0.000611  3.97464  -0.001
C  C43  1  0.97441080  0.21342784  0.95085840  1  -0.08662  -0.100313  0.000612  3.974721  0.001
C  C44  1  0.00299747  0.73253476  0.91807111  1  -0.091858  -0.086075  -0.000472  4.003265  -0.001
C  C45  1  0.99701415  0.26746832  0.08193260  1  -0.091929  -0.086246  0.000473  4.003495  0.001
C  C46  1  0.88821550  0.74064487  0.85573106  1  -0.081105  -0.058444  7.4e-05  3.977315  0.0
C  C47  1  0.11179788  0.25936204  0.14427314  1  -0.08104  -0.058321  -7.3e-05  3.97733  0.0
C  C48  1  0.79454508  0.80056253  0.92431357  1  -0.089571  -0.081979  0.000475  4.006577  0.001
C  C49  1  0.20546817  0.19944186  0.07568721  1  -0.089618  -0.082105  -0.000475  4.006668  -0.001
C  C50  1  0.81617127  0.85358111  0.05514625  1  -0.081485  -0.088918  0.000682  3.968495  0.001
C  C51  1  0.18383586  0.14642328  0.94485284  1  -0.081475  -0.088835  -0.000682  3.968545  -0.001
C  C52  1  0.16581362  0.31752616  0.55699901  1  0.209248  0.561105  -7.7e-05  4.180678  0.0
C  C53  1  0.83418170  0.68247692  0.44299964  1  0.209243  0.561104  7.8e-05  4.180549  0.0
C  C54  1  0.26220057  0.50616042  0.60419991  1  -0.023553  -0.047997  -0.000272  3.990094  0.0
C  C55  1  0.73779463  0.49384014  0.39579532  1  -0.02348  -0.047927  0.00027  3.99014  0.0
C  C56  1  0.42705821  0.58752749  0.62934586  1  -0.087305  -0.104747  -0.000736  3.972245  -0.001
C  C57  1  0.57293757  0.41246545  0.37064586  1  -0.087326  -0.104804  0.000735  3.972403  0.001
C  C58  1  0.51600541  0.76442430  0.68005801  1  -0.088462  -0.078721  -0.000463  3.990573  -0.001
C  C59  1  0.48399548  0.23556867  0.31993286  1  -0.088458  -0.078709  0.000462  3.990546  0.001
C  C60  1  0.44078693  0.86086200  0.70767601  1  -0.085828  -0.069725  -2e-05  3.987008  0.0
C  C61  1  0.55921582  0.13913728  0.29232215  1  -0.085857  -0.06979  1.9e-05  3.987084  0.0
C  C62  1  0.27658104  0.78051542  0.68025574  1  -0.091091  -0.085689  0.000477  3.985333  0.001
C  C63  1  0.72342405  0.21948894  0.31974504  1  -0.091068  -0.085712  -0.000477  3.985255  -0.001
C  C64  1  0.18768424  0.60373476  0.62848753  1  -0.084883  -0.096725  0.000629  3.967245  0.001
C  C65  1  0.81231735  0.39627088  0.37151200  1  -0.084879  -0.096672  -0.00063  3.967096  -0.001
C  C66  1  0.47625096  0.12415427  0.57920310  1  0.051129  -0.002133  -0.000426  3.901068  0.0
C  C67  1  0.52374157  0.87584496  0.42079676  1  0.051116  -0.002101  0.000426  3.901101  0.0
C  C68  1  0.62811599  0.14660263  0.58646591  1  0.127679  0.275367  0.000358  3.945954  0.0
C  C69  1  0.37187858  0.85339660  0.41353395  1  0.127711  0.275369  -0.000358  3.945859  0.0
C  C70  1  0.76417415  0.31086495  0.68135565  1  -0.245997  -0.462765  1.1e-05  3.940713  0.0
C  C71  1  0.23582506  0.68913554  0.31864802  1  -0.246013  -0.462733  -1.1e-05  3.940749  0.0
C  C72  1  0.55831175  0.54775029  0.11988009  1  0.04328  -0.013033  -1.3e-05  3.955977  0.0
C  C73  1  0.44168952  0.45225023  0.88012105  1  0.04332  -0.012891  1.3e-05  3.955751  0.0
C  C74  1  0.59178284  0.43873764  0.01862963  1  0.118734  0.253953  -1.8e-05  3.988356  0.0
C  C75  1  0.40821727  0.56126032  0.98137147  1  0.118744  0.253907  1.8e-05  3.98824  0.0
C  C76  1  0.69467090  0.37352405  0.04073396  1  -0.236766  -0.442843  2e-06  3.948428  0.0
C  C77  1  0.30532979  0.62647520  0.95926674  1  -0.236753  -0.442757  -2e-06  3.948494  0.0
N  N78  1  0.34993524  0.98104718  0.49457376  1  -0.316311  -0.256463  -0.000441  3.454926  0.0
N  N79  1  0.65005525  0.01895204  0.50542610  1  -0.316387  -0.25662  0.000443  3.45532  0.0
N  N80  1  0.46807075  0.60873074  0.10237682  1  -0.305888  -0.275186  -6.2e-05  3.319118  0.0
N  N81  1  0.53193037  0.39126722  0.89762512  1  -0.305896  -0.275217  6.1e-05  3.319067  0.0
O  O82  1  0.07850187  0.92111256  0.31373819  1  -0.31273  -0.525798  0.052989  2.390524  0.074
O  O83  1  0.92148928  0.07889039  0.68627229  1  -0.312796  -0.525923  -0.052994  2.390347  -0.074
O  O84  1  0.85697581  0.94238618  0.31426953  1  -0.306888  -0.515278  -0.057356  2.390507  -0.08
O  O85  1  0.14301504  0.05761822  0.68572281  1  -0.306937  -0.515254  0.057347  2.390496  0.08
O  O86  1  0.23996635  0.23651287  0.54392717  1  -0.308945  -0.524395  0.053259  2.397621  0.074
O  O87  1  0.76001463  0.76348120  0.45607430  1  -0.30901  -0.524551  -0.053264  2.397447  -0.074
O  O88  1  0.01679892  0.25341672  0.53673021  1  -0.30776  -0.509905  -0.056194  2.392199  -0.078
O  O89  1  0.98319397  0.74659658  0.46326607  1  -0.307758  -0.509842  0.056187  2.392355  0.078
