# generated using pymatgen
data_PrH17C25(NO4)2
_symmetry_space_group_name_H-M   'P 1'
_cell_length_a   9.47461010
_cell_length_b   12.61947102
_cell_length_c   16.83762262
_cell_angle_alpha   83.75068523
_cell_angle_beta   77.08805399
_cell_angle_gamma   94.24127815
_symmetry_Int_Tables_number   1
_chemical_formula_structural   PrH17C25(NO4)2
_chemical_formula_sum   'Pr2 H34 C50 N4 O16'
_cell_volume   1940.55785495
_cell_formula_units_Z   2
loop_
 _symmetry_equiv_pos_site_id
 _symmetry_equiv_pos_as_xyz
  1  'x, y, z'
loop_
 _atom_site_type_symbol
 _atom_site_label
 _atom_site_symmetry_multiplicity
 _atom_site_fract_x
 _atom_site_fract_y
 _atom_site_fract_z
 _atom_site_occupancy
 _atom_site_pbe_bader_charge
 _atom_site_pbe_bader_spin_density
 _atom_site_pbe_cm5_charge
 _atom_site_pbe_ddec_charge
 _atom_site_pbe_ddec_spin_density
 _atom_site_pbe_ddec_sum_bond_order
 _atom_site_pbe_magmom
Pr  Pr0  1  0.29441916  0.93729693  0.54586301  1  2.245231  0  1.482258  2.068317  0  2.180687  0
Pr  Pr1  1  0.70558176  0.06270051  0.45413768  1  2.245255  0  1.482234  2.068396  0  2.180553  0
H  H2  1  0.33487519  0.19493911  0.04635911  1  0.083221  0  0.104117  0.122662  0  1.013578  0
H  H3  1  0.66509800  0.80505089  0.95364176  1  0.083878  0  0.104141  0.122665  0  1.013502  0
H  H4  1  0.33979717  0.20894412  0.88513836  1  0.081059  0  0.101586  0.119417  0  1.020216  0
H  H5  1  0.66019803  0.79106429  0.11486149  1  0.080926  0  0.101609  0.119451  0  1.020129  0
H  H6  1  0.09602250  0.45750050  0.68206048  1  0.106509  0  0.108401  0.12807  0  1.010662  0
H  H7  1  0.90399086  0.54251893  0.31793658  1  0.106832  0  0.108399  0.128023  0  1.010706  0
H  H8  1  0.90120346  0.60246985  0.70659401  1  0.097356  0  0.110254  0.128913  0  1.006031  0
H  H9  1  0.09878947  0.39753538  0.29341237  1  0.097781  0  0.110282  0.128927  0  1.00599  0
H  H10  1  0.00397317  0.50063754  0.93433847  1  0.545606  0  0.309589  0.263403  0  1.011741  0
H  H11  1  0.99604825  0.49937266  0.06566132  1  0.545434  0  0.309574  0.26347  0  1.011639  0
H  H12  1  0.03556463  0.18542318  0.24015417  1  0.107014  0  0.105111  0.116897  0  1.010333  0
H  H13  1  0.96441618  0.81457771  0.75985896  1  0.107257  0  0.10519  0.117016  0  1.010201  0
H  H14  1  0.14522786  0.07139562  0.33514311  1  0.094125  0  0.109176  0.109313  0  1.013872  0
H  H15  1  0.85475392  0.92860370  0.66487003  1  0.094232  0  0.109176  0.109349  0  1.013864  0
H  H16  1  0.56236085  0.25030438  0.23412233  1  0.104154  0  0.105852  0.110892  0  0.996012  0
H  H17  1  0.43764253  0.74967137  0.76586633  1  0.104156  0  0.105843  0.110865  0  0.996093  0
H  H18  1  0.45487236  0.36253140  0.13571379  1  0.077842  0  0.104251  0.109342  0  0.991219  0
H  H19  1  0.54512186  0.63743840  0.86427424  1  0.076408  0  0.10433  0.109439  0  0.991097  0
H  H20  1  0.46819785  0.38531687  0.78105779  1  0.065558  0  0.105789  0.108063  0  0.993725  0
H  H21  1  0.53181575  0.61469213  0.21893661  1  0.065053  0  0.105732  0.108061  0  0.993652  0
H  H22  1  0.60922577  0.30496874  0.66257736  1  0.080702  0  0.111168  0.117043  0  0.984551  0
H  H23  1  0.39078400  0.69503140  0.33742132  1  0.080848  0  0.111119  0.11701  0  0.984629  0
H  H24  1  0.20813775  0.18461966  0.60900381  1  0.170584  0  0.111919  0.125434  0  1.053239  0
H  H25  1  0.79187008  0.81538360  0.39099485  1  0.170229  0  0.111888  0.125385  0  1.053207  0
H  H26  1  0.06807863  0.26180749  0.72810463  1  0.04978  0  0.106509  0.110698  0  0.988533  0
H  H27  1  0.93193204  0.73820620  0.27188914  1  0.04964  0  0.106501  0.110799  0  0.988505  0
H  H28  1  0.19552959  0.04546453  0.70650904  1  0.596236  0  0.315059  0.393127  0  0.917757  0
H  H29  1  0.80445411  0.95453772  0.29348339  1  0.596323  0  0.315043  0.393219  0  0.917637  0
H  H30  1  0.27825676  0.94291501  0.71494726  1  0.632656  0  0.315183  0.403149  0  0.906837  0
H  H31  1  0.72172425  0.05709058  0.28505947  1  0.632685  0  0.315166  0.403143  0  0.906866  0
H  H32  1  0.08981327  0.75394764  0.59506163  1  0.637515  0  0.322081  0.411881  0  0.892447  0
H  H33  1  0.91019962  0.24604948  0.40494047  1  0.637534  0  0.322106  0.411938  0  0.89233  0
H  H34  1  0.22651976  0.70071212  0.60901764  1  0.602263  0  0.337554  0.421591  0  0.859725  0
H  H35  1  0.77349922  0.29928264  0.39097318  1  0.602485  0  0.337519  0.421571  0  0.859829  0
C  C36  1  0.19868877  0.33516553  0.04270758  1  0.409949  0  0.089745  0.195097  0  4.065337  0
C  C37  1  0.80129947  0.66483626  0.95729498  1  0.409933  0  0.089629  0.195032  0  4.06538  0
C  C38  1  0.28566624  0.25193917  0.01064179  1  -0.046614  0  -0.107561  -0.181961  0  3.981451  0
C  C39  1  0.71432035  0.74805686  0.98935498  1  -0.047528  0  -0.107581  -0.181957  0  3.981545  0
C  C40  1  0.28842957  0.25931327  0.92913981  1  -0.094654  0  -0.109835  -0.190508  0  3.994313  0
C  C41  1  0.71156168  0.74068618  0.07085960  1  -0.094545  0  -0.109709  -0.190398  0  3.994277  0
C  C42  1  0.20282617  0.34702652  0.91209087  1  0.496039  0  0.088824  0.193333  0  4.059862  0
C  C43  1  0.79717907  0.65298621  0.08790608  1  0.496171  0  0.088768  0.19333  0  4.060183  0
C  C44  1  0.17690704  0.37735669  0.83368726  1  0.013496  0  -4.1e-05  -0.082676  0  3.934814  0
C  C45  1  0.82309901  0.62265285  0.16630809  1  0.013558  0  -5.6e-05  -0.082896  0  3.934989  0
C  C46  1  0.08084290  0.45203753  0.81707877  1  0.366106  0  0.102547  0.189886  0  4.012705  0
C  C47  1  0.91918003  0.54797831  0.18292091  1  0.364848  0  0.102597  0.190152  0  4.012519  0
C  C48  1  0.04872305  0.48632441  0.73951130  1  -0.061173  0  -0.102728  -0.192701  0  3.9858  0
C  C49  1  0.95128568  0.51369088  0.26048734  1  -0.061343  0  -0.102779  -0.192774  0  3.986088  0
C  C50  1  0.94955330  0.56052546  0.75184776  1  -0.030036  0  -0.097213  -0.174081  0  3.98559  0
C  C51  1  0.05044968  0.43948486  0.24815327  1  -0.030232  0  -0.097235  -0.17402  0  3.985423  0
C  C52  1  0.92004132  0.57606410  0.83683155  1  0.387701  0  0.103267  0.189469  0  4.004492  0
C  C53  1  0.07996557  0.42394075  0.16316827  1  0.387886  0  0.103308  0.189539  0  4.004409  0
C  C54  1  0.17041511  0.35115822  0.12604796  1  0.053663  0  0.005425  -0.070934  0  3.925979  0
C  C55  1  0.82957736  0.64884213  0.87395417  1  0.049757  0  0.005488  -0.070852  0  3.92573  0
C  C56  1  0.23790085  0.28227978  0.18202530  1  0.014674  0  -0.000303  0.08988  0  4.011675  0
C  C57  1  0.76208119  0.71771216  0.81797600  1  0.018158  0  -0.000249  0.089885  0  4.011722  0
C  C58  1  0.15123459  0.19962161  0.23832902  1  -0.057766  0  -0.088212  -0.139168  0  3.963377  0
C  C59  1  0.84874984  0.80037133  0.76167841  1  -0.057511  0  -0.088315  -0.139347  0  3.963553  0
C  C60  1  0.21216672  0.13597608  0.29187150  1  -0.04093  0  -0.080097  -0.074308  0  3.962836  0
C  C61  1  0.78781910  0.86402015  0.70813842  1  -0.040722  0  -0.080001  -0.074174  0  3.962721  0
C  C62  1  0.36023863  0.15447296  0.29126596  1  -0.047122  0  -0.022206  -0.055529  0  3.978315  0
C  C63  1  0.63974755  0.84551671  0.70873322  1  -0.046506  0  -0.022254  -0.055681  0  3.978581  0
C  C64  1  0.44736830  0.23607843  0.23435998  1  -0.065987  0  -0.086171  -0.089582  0  3.9951  0
C  C65  1  0.55262378  0.76390419  0.76563490  1  -0.066213  0  -0.08631  -0.089686  0  3.995149  0
C  C66  1  0.38696099  0.29891400  0.17982284  1  -0.092897  0  -0.091207  -0.144252  0  3.991785  0
C  C67  1  0.61303025  0.70105815  0.82016953  1  -0.092054  0  -0.091191  -0.144178  0  3.991248  0
C  C68  1  0.42148609  0.09032201  0.35338743  1  1.584094  0  0.233973  0.647767  0  4.158153  0
C  C69  1  0.57850997  0.90966808  0.64661515  1  1.583427  0  0.233998  0.647834  0  4.158067  0
C  C70  1  0.25845577  0.32870794  0.76317488  1  -0.111611  0  0.000802  0.094146  0  4.003362  0
C  C71  1  0.74155177  0.67130572  0.23682465  1  -0.11168  0  0.000841  0.094254  0  4.003419  0
C  C72  1  0.41155441  0.34029023  0.74374181  1  0.079226  0  -0.085832  -0.132413  0  3.974315  0
C  C73  1  0.58845491  0.65971868  0.25625614  1  0.07996  0  -0.085779  -0.132471  0  3.974519  0
C  C74  1  0.49060497  0.29588275  0.67770722  1  -0.066642  0  -0.07739  -0.080994  0  3.966005  0
C  C75  1  0.50940483  0.70411817  0.32229019  1  -0.066645  0  -0.077323  -0.080783  0  3.966149  0
C  C76  1  0.41813428  0.23758535  0.62986498  1  -0.061712  0  -0.015239  -0.03472  0  3.970853  0
C  C77  1  0.58187438  0.76241397  0.37013511  1  -0.06178  0  -0.01529  -0.035092  0  3.971093  0
C  C78  1  0.26530679  0.22645466  0.64792527  1  -0.077936  0  -0.087969  -0.124199  0  3.993737  0
C  C79  1  0.73469671  0.77354922  0.35207212  1  -0.077997  0  -0.087972  -0.123989  0  3.993538  0
C  C80  1  0.18679499  0.27155559  0.71390850  1  -0.022485  0  -0.089592  -0.13933  0  3.983691  0
C  C81  1  0.81321752  0.72845338  0.28608604  1  -0.022054  0  -0.089659  -0.139601  0  3.983778  0
C  C82  1  0.50476253  0.18628546  0.56217419  1  1.541827  0  0.217323  0.628108  0  4.170186  0
C  C83  1  0.49524484  0.81371216  0.43782266  1  1.54195  0  0.217389  0.628415  0  4.170266  0
C  C84  1  0.98359458  0.94174037  0.49039559  1  1.600609  0  0.218552  0.502376  0  4.251776  0
C  C85  1  0.01640734  0.05825325  0.50961362  1  1.620617  0  0.218397  0.502286  0  4.25165  0
N  N86  1  0.14825946  0.39116583  0.98202288  1  -1.147854  0  -0.354555  -0.421191  0  3.187076  0
N  N87  1  0.85174412  0.60883811  0.01797806  1  -1.147782  0  -0.354522  -0.421201  0  3.186923  0
N  N88  1  0.00027944  0.50796517  0.87384649  1  -1.272672  0  -0.375748  -0.262775  0  3.589202  0
N  N89  1  0.99974675  0.49203640  0.12615226  1  -1.272033  0  -0.375743  -0.262954  0  3.588924  0
O  O90  1  0.33566320  0.01911774  0.40405882  1  -1.209553  0  -0.395635  -0.658523  0  2.286413  0
O  O91  1  0.66433095  0.98087550  0.59594492  1  -1.209342  0  -0.395661  -0.658547  0  2.286182  0
O  O92  1  0.55644026  0.11184314  0.35266418  1  -1.223679  0  -0.391823  -0.689863  0  2.261484  0
O  O93  1  0.44355654  0.88815735  0.64733678  1  -1.223519  0  -0.391869  -0.689906  0  2.261372  0
O  O94  1  0.44561527  0.10373263  0.53821902  1  -1.223412  0  -0.44443  -0.754935  0  2.402481  0
O  O95  1  0.55438665  0.89626251  0.46178530  1  -1.22337  0  -0.444426  -0.755046  0  2.402481  0
O  O96  1  0.63636318  0.22138926  0.53012924  1  -1.176241  0  -0.373105  -0.628911  0  2.156893  0
O  O97  1  0.36364568  0.77861249  0.46987179  1  -1.176357  0  -0.373128  -0.629036  0  2.157123  0
O  O98  1  0.06076018  0.87194772  0.51345600  1  -1.20092  0  -0.379169  -0.617203  0  2.27827  0
O  O99  1  0.93922906  0.12804874  0.48655998  1  -1.200682  0  -0.379112  -0.617242  0  2.278095  0
O  O100  1  0.88339886  0.92678449  0.45330170  1  -1.187283  0  -0.367177  -0.579993  0  2.300747  0
O  O101  1  0.11660884  0.07321717  0.54669652  1  -1.187301  0  -0.367126  -0.57989  0  2.30072  0
O  O102  1  0.19263102  0.96981751  0.69864428  1  -1.21246  0  -0.600997  -0.785467  0  1.987402  0
O  O103  1  0.80735816  0.03018344  0.30135408  1  -1.212609  0  -0.60099  -0.78559  0  1.98727  0
O  O104  1  0.16425196  0.75567129  0.62732028  1  -1.20318  0  -0.602048  -0.792076  0  2.001228  0
O  O105  1  0.83576816  0.24432203  0.37267764  1  -1.203393  0  -0.602022  -0.792127  0  2.001238  0
