# generated using pymatgen
data_CdH28C32(NO2)4
_symmetry_space_group_name_H-M   'P 1'
_cell_length_a   11.67357424
_cell_length_b   12.32188538
_cell_length_c   13.19808365
_cell_angle_alpha   102.56441949
_cell_angle_beta   90.00642623
_cell_angle_gamma   118.26189503
_symmetry_Int_Tables_number   1
_chemical_formula_structural   CdH28C32(NO2)4
_chemical_formula_sum   'Cd2 H56 C64 N8 O16'
_cell_volume   1620.28611203
_cell_formula_units_Z   2
loop_
 _symmetry_equiv_pos_site_id
 _symmetry_equiv_pos_as_xyz
  1  'x, y, z'
loop_
 _atom_site_type_symbol
 _atom_site_label
 _atom_site_symmetry_multiplicity
 _atom_site_fract_x
 _atom_site_fract_y
 _atom_site_fract_z
 _atom_site_occupancy
 _atom_site_hle17_bader_spin_density
 _atom_site_hle17_ddec_charge
 _atom_site_hle17_ddec_spin_density
 _atom_site_hle17_ddec_sum_bond_order
 _atom_site_hle17_magmom
 _atom_site_hse06_10hf_bader_spin_density
 _atom_site_hse06_10hf_ddec_charge
 _atom_site_hse06_10hf_ddec_spin_density
 _atom_site_hse06_10hf_ddec_sum_bond_order
 _atom_site_hse06_10hf_magmom
 _atom_site_hse06_bader_spin_density
 _atom_site_hse06_ddec_charge
 _atom_site_hse06_ddec_spin_density
 _atom_site_hse06_ddec_sum_bond_order
 _atom_site_hse06_magmom
 _atom_site_pbe_bader_spin_density
 _atom_site_pbe_cm5_charge
 _atom_site_pbe_ddec_charge
 _atom_site_pbe_ddec_spin_density
 _atom_site_pbe_ddec_sum_bond_order
 _atom_site_pbe_magmom
Cd  Cd0  1  0.79926053  0.99995784  0.74990923  1  0  1.131637  0  1.710288  0  0  0.94535  0  2.163682  0  0  0.998821  0  2.111698  0  0  0.768837  0.906872  0  2.200209  0
Cd  Cd1  1  0.20074111  0.00004113  0.25008958  1  0  1.131666  0  1.71025  0  0  0.945401  0  2.163631  0  0  0.99887  0  2.111652  0  0  0.768841  0.90692  0  2.200148  0
H  H2  1  0.55115672  0.60433152  0.85242945  1  0  0.108025  0  0.942135  0  0  0.121339  0  1.003053  0  0  0.122735  0  1.002803  0  0  0.116635  0.120291  0  1.003345  0
H  H3  1  0.94698892  0.39566377  0.64754181  1  0  0.108944  0  0.942269  0  0  0.121536  0  1.003854  0  0  0.122962  0  1.003621  0  0  0.116999  0.120513  0  1.004024  0
H  H4  1  0.44884378  0.39567030  0.14756991  1  0  0.108045  0  0.942143  0  0  0.121338  0  1.003067  0  0  0.122734  0  1.002817  0  0  0.116639  0.120287  0  1.003363  0
H  H5  1  0.05301017  0.60433523  0.35245928  1  0  0.108955  0  0.942298  0  0  0.121532  0  1.003879  0  0  0.122959  0  1.003647  0  0  0.117014  0.120512  0  1.004048  0
H  H6  1  0.70697781  0.62747064  0.88925482  1  0  0.10913  0  0.911643  0  0  0.125411  0  0.968241  0  0  0.127153  0  0.967061  0  0  0.123022  0.124141  0  0.969161  0
H  H7  1  0.07967198  0.37256757  0.61069726  1  0  0.109537  0  0.911884  0  0  0.125809  0  0.968347  0  0  0.127561  0  0.967185  0  0  0.123  0.124497  0  0.969281  0
H  H8  1  0.29302439  0.37253117  0.11074378  1  0  0.109143  0  0.911669  0  0  0.125418  0  0.968252  0  0  0.127166  0  0.967064  0  0  0.123028  0.124145  0  0.969176  0
H  H9  1  0.92032804  0.62743329  0.38930116  1  0  0.109534  0  0.911873  0  0  0.125804  0  0.968323  0  0  0.127557  0  0.96716  0  0  0.123005  0.1245  0  0.969247  0
H  H10  1  0.76476840  0.62650980  0.04314332  1  0  0.08747  0  0.918615  0  0  0.103867  0  0.970537  0  0  0.106413  0  0.967623  0  0  0.126278  0.102081  0  0.972588  0
H  H11  1  0.13834056  0.37343750  0.45686742  1  0  0.087639  0  0.919038  0  0  0.104009  0  0.970776  0  0  0.106551  0  0.967881  0  0  0.126384  0.102273  0  0.972777  0
H  H12  1  0.23523116  0.37349015  0.95685719  1  0  0.087482  0  0.918593  0  0  0.103875  0  0.970521  0  0  0.106422  0  0.967605  0  0  0.126282  0.102096  0  0.972574  0
H  H13  1  0.86165660  0.62656621  0.54313155  1  0  0.087625  0  0.918961  0  0  0.103953  0  0.970742  0  0  0.106496  0  0.967847  0  0  0.126358  0.102218  0  0.972745  0
H  H14  1  0.73253280  0.61725783  0.22654186  1  0  0.12567  0  0.941376  0  0  0.138197  0  0.995573  0  0  0.14218  0  0.994767  0  0  0.106201  0.135372  0  0.996348  0
H  H15  1  0.11545908  0.38293909  0.27345769  1  0  0.125261  0  0.941261  0  0  0.137739  0  0.995753  0  0  0.141727  0  0.994949  0  0  0.105991  0.134917  0  0.996497  0
H  H16  1  0.26746942  0.38274403  0.77345978  1  0  0.12562  0  0.941458  0  0  0.138164  0  0.995633  0  0  0.142148  0  0.994827  0  0  0.106183  0.135331  0  0.996413  0
H  H17  1  0.88453227  0.61705985  0.72653960  1  0  0.125221  0  0.941286  0  0  0.137705  0  0.995773  0  0  0.141693  0  0.994968  0  0  0.105986  0.134883  0  0.996516  0
H  H18  1  0.34379784  0.65597032  0.26840642  1  0  0.09318  0  0.96487  0  0  0.102676  0  1.028972  0  0  0.105988  0  1.026336  0  0  0.099843  0.100236  0  1.030939  0
H  H19  1  0.68813568  0.34448643  0.23163486  1  0  0.093301  0  0.964694  0  0  0.102558  0  1.029122  0  0  0.105865  0  1.026494  0  0  0.099723  0.100112  0  1.031109  0
H  H20  1  0.65620123  0.34402864  0.73159163  1  0  0.093179  0  0.964934  0  0  0.102677  0  1.029028  0  0  0.105988  0  1.026393  0  0  0.099843  0.100237  0  1.030997  0
H  H21  1  0.31185677  0.65550785  0.76836759  1  0  0.093401  0  0.9645  0  0  0.102595  0  1.029001  0  0  0.1059  0  1.026379  0  0  0.099721  0.10015  0  1.030983  0
H  H22  1  0.19182095  0.67962738  0.15075392  1  0  0.105049  0  0.940367  0  0  0.116509  0  0.996256  0  0  0.120215  0  0.99457  0  0  0.102513  0.113872  0  0.997571  0
H  H23  1  0.51236497  0.32054051  0.34908759  1  0  0.105922  0  0.940101  0  0  0.116852  0  0.99628  0  0  0.12065  0  0.994509  0  0  0.102582  0.114152  0  0.997679  0
H  H24  1  0.80818296  0.32037442  0.84924392  1  0  0.105043  0  0.940307  0  0  0.116469  0  0.996238  0  0  0.120175  0  0.994551  0  0  0.102496  0.113835  0  0.997556  0
H  H25  1  0.48763156  0.67945852  0.65091502  1  0  0.105859  0  0.940177  0  0  0.116825  0  0.996305  0  0  0.120622  0  0.994535  0  0  0.102609  0.114127  0  0.997705  0
H  H26  1  0.24352176  0.69753185  0.96851668  1  0  0.111458  0  0.964221  0  0  0.119523  0  1.027014  0  0  0.123445  0  1.023175  0  0  0.102021  0.116647  0  1.029808  0
H  H27  1  0.54609273  0.30272890  0.53137706  1  0  0.112137  0  0.962669  0  0  0.120698  0  1.024987  0  0  0.124607  0  1.021166  0  0  0.102407  0.117842  0  1.027769  0
H  H28  1  0.75648084  0.30246902  0.03148249  1  0  0.111488  0  0.964214  0  0  0.119544  0  1.027016  0  0  0.123467  0  1.023177  0  0  0.102029  0.116664  0  1.029815  0
H  H29  1  0.45390305  0.69727206  0.46862743  1  0  0.112105  0  0.962748  0  0  0.120739  0  1.024973  0  0  0.124651  0  1.021145  0  0  0.102421  0.11785  0  1.027797  0
H  H30  1  0.43951131  0.69244661  0.90707895  1  0  0.096147  0  0.976747  0  0  0.109582  0  1.035324  0  0  0.112144  0  1.03478  0  0  0.103167  0.107731  0  1.035857  0
H  H31  1  0.74720293  0.30794322  0.59299002  1  0  0.09652  0  0.976186  0  0  0.109677  0  1.035023  0  0  0.112302  0  1.034402  0  0  0.103002  0.107797  0  1.035585  0
H  H32  1  0.56049119  0.30755236  0.09291986  1  0  0.096149  0  0.976735  0  0  0.109592  0  1.035304  0  0  0.112154  0  1.03476  0  0  0.103176  0.107748  0  1.035819  0
H  H33  1  0.25279312  0.69205485  0.40701165  1  0  0.096467  0  0.976196  0  0  0.109638  0  1.035021  0  0  0.112264  0  1.034399  0  0  0.102987  0.107759  0  1.035584  0
H  H34  1  0.94673068  0.88222416  0.85153976  1  0  0.071209  0  0.954083  0  0  0.081624  0  1.015787  0  0  0.083728  0  1.014052  0  0  0.112095  0.080098  0  1.017093  0
H  H35  1  0.06426214  0.11758016  0.64826498  1  0  0.071112  0  0.954131  0  0  0.081049  0  1.016389  0  0  0.083202  0  1.014591  0  0  0.11223  0.079503  0  1.017699  0
H  H36  1  0.05327114  0.11777860  0.14845903  1  0  0.071155  0  0.954116  0  0  0.081596  0  1.015798  0  0  0.083702  0  1.014059  0  0  0.112091  0.080056  0  1.017117  0
H  H37  1  0.93574044  0.88242068  0.35173192  1  0  0.071099  0  0.954164  0  0  0.081029  0  1.016416  0  0  0.083182  0  1.014619  0  0  0.112208  0.079485  0  1.017731  0
H  H38  1  0.15673332  0.87570982  0.85506187  1  0  0.111477  0  0.961415  0  0  0.12031  0  1.023285  0  0  0.12326  0  1.022298  0  0  0.111321  0.11825  0  1.024113  0
H  H39  1  0.28098626  0.12432452  0.64482338  1  0  0.111652  0  0.962004  0  0  0.120768  0  1.023567  0  0  0.123618  0  1.022738  0  0  0.111383  0.118762  0  1.024321  0
H  H40  1  0.84326936  0.12429295  0.14493767  1  0  0.111479  0  0.961436  0  0  0.120342  0  1.0233  0  0  0.123277  0  1.02233  0  0  0.111312  0.11828  0  1.024127  0
H  H41  1  0.71901670  0.87567538  0.35517409  1  0  0.111598  0  0.961881  0  0  0.120709  0  1.023468  0  0  0.123557  0  1.022643  0  0  0.111358  0.118702  0  1.024229  0
H  H42  1  0.37548973  0.99048156  0.91148847  1  0  0.114133  0  0.950851  0  0  0.124468  0  1.011601  0  0  0.127656  0  1.010429  0  0  0.111936  0.122257  0  1.012496  0
H  H43  1  0.38474938  0.00936694  0.58857642  1  0  0.113761  0  0.9505  0  0  0.12409  0  1.011354  0  0  0.127325  0  1.010126  0  0  0.111789  0.121837  0  1.01228  0
H  H44  1  0.62451155  0.00951839  0.08851280  1  0  0.114126  0  0.950903  0  0  0.124463  0  1.011655  0  0  0.12765  0  1.010483  0  0  0.111927  0.122253  0  1.012533  0
H  H45  1  0.61525284  0.99063491  0.41142446  1  0  0.11375  0  0.950538  0  0  0.124075  0  1.011393  0  0  0.127308  0  1.010168  0  0  0.111779  0.12182  0  1.012326  0
H  H46  1  0.58973023  0.99063192  0.90463094  1  0  0.078721  0  0.943998  0  0  0.090574  0  1.003757  0  0  0.092511  0  1.002305  0  0  0.117637  0.08919  0  1.004804  0
H  H47  1  0.59889231  0.00931182  0.59529421  1  0  0.078025  0  0.943841  0  0  0.090067  0  1.003577  0  0  0.091999  0  1.002111  0  0  0.117562  0.08868  0  1.004636  0
H  H48  1  0.41027227  0.00936705  0.09536787  1  0  0.078723  0  0.943985  0  0  0.090577  0  1.003745  0  0  0.092513  0  1.002295  0  0  0.117629  0.089191  0  1.004799  0
H  H49  1  0.40111037  0.99069096  0.40470533  1  0  0.078091  0  0.94385  0  0  0.090141  0  1.00356  0  0  0.092072  0  1.002095  0  0  0.117602  0.088751  0  1.00462  0
H  H50  1  0.81609709  0.02996690  0.95836462  1  0  0.406233  0  0.916429  0  0  0.370522  0  0.989399  0  0  0.383053  0  0.971303  0  0  0.275527  0.361692  0  1.002122  0
H  H51  1  0.78633210  0.97010755  0.54146484  1  0  0.407405  0  0.915111  0  0  0.3714  0  0.988573  0  0  0.383934  0  0.970475  0  0  0.275736  0.3626  0  1.001253  0
H  H52  1  0.18390512  0.97003493  0.04163474  1  0  0.406201  0  0.916475  0  0  0.370495  0  0.989433  0  0  0.383025  0  0.971341  0  0  0.275503  0.36166  0  1.002165  0
H  H53  1  0.21366917  0.02989239  0.45853568  1  0  0.407404  0  0.915115  0  0  0.371387  0  0.988597  0  0  0.383924  0  0.970496  0  0  0.275731  0.362586  0  1.001278  0
H  H54  1  0.93035467  0.17328983  0.96190498  1  0  0.421462  0  0.823788  0  0  0.408507  0  0.870816  0  0  0.416773  0  0.861667  0  0  0.320121  0.402422  0  0.877769  0
H  H55  1  0.75704865  0.82669924  0.53798252  1  0  0.421504  0  0.822989  0  0  0.408963  0  0.869511  0  0  0.41722  0  0.86034  0  0  0.320234  0.402922  0  0.876386  0
H  H56  1  0.06964705  0.82671102  0.03809268  1  0  0.421465  0  0.82382  0  0  0.408514  0  0.870849  0  0  0.416789  0  0.861678  0  0  0.320102  0.402422  0  0.87781  0
H  H57  1  0.24295128  0.17329973  0.46201629  1  0  0.42154  0  0.823026  0  0  0.408999  0  0.869542  0  0  0.417257  0  0.860368  0  0  0.320246  0.402957  0  0.876417  0
C  C58  1  0.70276215  0.80109910  0.89482176  1  0  0.661872  0  3.91391  0  0  0.614016  0  4.224243  0  0  0.646755  0  4.217122  0  0  0.19849  0.591795  0  4.22827  0
C  C59  1  0.90188553  0.19892866  0.60513440  1  0  0.662852  0  3.911548  0  0  0.614653  0  4.222375  0  0  0.647466  0  4.215206  0  0  0.198464  0.59238  0  4.226483  0
C  C60  1  0.29723922  0.19890276  0.10517988  1  0  0.661822  0  3.913859  0  0  0.613931  0  4.224223  0  0  0.646669  0  4.217105  0  0  0.198462  0.591716  0  4.228242  0
C  C61  1  0.09811660  0.80107129  0.39486687  1  0  0.662831  0  3.911703  0  0  0.614651  0  4.222473  0  0  0.647464  0  4.215304  0  0  0.198465  0.592363  0  4.226604  0
C  C62  1  0.63900834  0.66495898  0.90905306  1  0  -0.161462  0  3.647032  0  0  -0.228316  0  3.906932  0  0  -0.227478  0  3.91275  0  0  -0.05753  -0.228758  0  3.902963  0
C  C63  1  0.97422256  0.33506139  0.59091573  1  0  -0.163024  0  3.647562  0  0  -0.229362  0  3.90803  0  0  -0.228679  0  3.914067  0  0  -0.057555  -0.229655  0  3.903727  0
C  C64  1  0.36099254  0.33504191  0.09094688  1  0  -0.16149  0  3.647066  0  0  -0.228281  0  3.906905  0  0  -0.227445  0  3.912726  0  0  -0.057513  -0.228718  0  3.902933  0
C  C65  1  0.02577701  0.66493857  0.40908554  1  0  -0.163088  0  3.647612  0  0  -0.229376  0  3.90801  0  0  -0.228695  0  3.914048  0  0  -0.057545  -0.229676  0  3.903726  0
C  C66  1  0.68550429  0.63758621  0.07878026  1  0  0.113163  0  3.72225  0  0  0.065139  0  3.988664  0  0  0.079455  0  4.003493  0  0  0.0444  0.055393  0  3.979249  0
C  C67  1  0.04804782  0.36244600  0.42120842  1  0  0.11212  0  3.721761  0  0  0.064216  0  3.988158  0  0  0.078526  0  4.002985  0  0  0.043903  0.054346  0  3.978906  0
C  C68  1  0.31449746  0.36241469  0.92122119  1  0  0.113157  0  3.72227  0  0  0.06513  0  3.988696  0  0  0.079444  0  4.003526  0  0  0.044406  0.055364  0  3.979299  0
C  C69  1  0.95194926  0.63755583  0.57879170  1  0  0.112091  0  3.721578  0  0  0.064243  0  3.987961  0  0  0.07855  0  4.00279  0  0  0.043928  0.054376  0  3.978708  0
C  C70  1  0.66629654  0.63177048  0.18006722  1  0  -0.29621  0  3.767512  0  0  -0.317445  0  4.039483  0  0  -0.333187  0  4.058183  0  0  -0.125571  -0.30702  0  4.026654  0
C  C71  1  0.03470052  0.36836903  0.31994369  1  0  -0.294686  0  3.767222  0  0  -0.316166  0  4.038893  0  0  -0.331917  0  4.057566  0  0  -0.124787  -0.305721  0  4.025954  0
C  C72  1  0.33370483  0.36823138  0.81993442  1  0  -0.296092  0  3.767565  0  0  -0.317367  0  4.039503  0  0  -0.333111  0  4.058201  0  0  -0.125544  -0.30693  0  4.026673  0
C  C73  1  0.96529390  0.63163090  0.68005606  1  0  -0.294602  0  3.767256  0  0  -0.316118  0  4.038862  0  0  -0.331858  0  4.057546  0  0  -0.124737  -0.305674  0  4.025921  0
C  C74  1  0.56106042  0.64565300  0.22686109  1  0  0.388739  0  3.913534  0  0  0.370355  0  4.185902  0  0  0.395274  0  4.190004  0  0  0.10723  0.353925  0  4.182433  0
C  C75  1  0.91565045  0.35467033  0.27321219  1  0  0.388286  0  3.913698  0  0  0.370856  0  4.184744  0  0  0.395796  0  4.188737  0  0  0.107288  0.354479  0  4.181179  0
C  C76  1  0.43894086  0.35434695  0.77314018  1  0  0.388572  0  3.913687  0  0  0.370264  0  4.185944  0  0  0.395194  0  4.19003  0  0  0.107224  0.353843  0  4.182461  0
C  C77  1  0.08434208  0.64532584  0.72678911  1  0  0.388264  0  3.913732  0  0  0.370962  0  4.184639  0  0  0.395872  0  4.188666  0  0  0.107314  0.354588  0  4.181062  0
C  C78  1  0.47415003  0.65877560  0.15479958  1  0  -0.119932  0  3.744171  0  0  -0.103686  0  3.978909  0  0  -0.114548  0  4.004333  0  0  -0.025351  -0.096842  0  3.961904  0
C  C79  1  0.81565657  0.34161785  0.34527446  1  0  -0.119328  0  3.745099  0  0  -0.10384  0  3.980081  0  0  -0.114617  0  4.00533  0  0  -0.025813  -0.097046  0  3.963081  0
C  C80  1  0.52585076  0.34122338  0.84519998  1  0  -0.119888  0  3.74421  0  0  -0.103651  0  3.978922  0  0  -0.114515  0  4.004341  0  0  -0.025333  -0.096813  0  3.961922  0
C  C81  1  0.18433662  0.65837450  0.65472534  1  0  -0.119293  0  3.74505  0  0  -0.103934  0  3.980105  0  0  -0.114698  0  4.005361  0  0  -0.025755  -0.09713  0  3.963095  0
C  C82  1  0.36181141  0.66346261  0.18854009  1  0  -0.073715  0  3.761219  0  0  -0.096796  0  4.011917  0  0  -0.09503  0  4.032526  0  0  -0.088471  -0.097562  0  3.99784  0
C  C83  1  0.69866798  0.33699286  0.31150080  1  0  -0.074666  0  3.760981  0  0  -0.097515  0  4.011964  0  0  -0.095768  0  4.032577  0  0  -0.088918  -0.098281  0  3.997909  0
C  C84  1  0.63819023  0.33653636  0.81145872  1  0  -0.073769  0  3.761292  0  0  -0.096849  0  4.01199  0  0  -0.095083  0  4.032599  0  0  -0.088501  -0.097613  0  3.997915  0
C  C85  1  0.30132350  0.66299950  0.68849976  1  0  -0.074819  0  3.761  0  0  -0.097601  0  4.012019  0  0  -0.095857  0  4.032632  0  0  -0.089005  -0.098372  0  3.99796  0
C  C86  1  0.27850071  0.67632921  0.12322086  1  0  -0.080432  0  3.760359  0  0  -0.09504  0  4.012799  0  0  -0.100293  0  4.03472  0  0  -0.094519  -0.091711  0  3.99781  0
C  C87  1  0.60239969  0.32400653  0.37673365  1  0  -0.080842  0  3.759603  0  0  -0.094723  0  4.011866  0  0  -0.100063  0  4.033794  0  0  -0.093825  -0.091322  0  3.996876  0
C  C88  1  0.72150140  0.32367068  0.87677662  1  0  -0.080426  0  3.760233  0  0  -0.095013  0  4.012681  0  0  -0.100266  0  4.0346  0  0  -0.094521  -0.091684  0  3.997696  0
C  C89  1  0.39759540  0.67598964  0.62326765  1  0  -0.08072  0  3.759668  0  0  -0.094614  0  4.011906  0  0  -0.099953  0  4.033836  0  0  -0.093805  -0.091213  0  3.996909  0
C  C90  1  0.30789288  0.68740043  0.02127446  1  0  -0.03722  0  3.744237  0  0  -0.051821  0  3.992332  0  0  -0.049448  0  4.011232  0  0  -0.082889  -0.052927  0  3.979141  0
C  C91  1  0.62069143  0.31293216  0.47869765  1  0  -0.038971  0  3.744526  0  0  -0.054197  0  3.992766  0  0  -0.051836  0  4.011731  0  0  -0.084045  -0.055298  0  3.979493  0
C  C92  1  0.69210923  0.31259948  0.97872377  1  0  -0.037211  0  3.744143  0  0  -0.051798  0  3.992226  0  0  -0.049425  0  4.011123  0  0  -0.08288  -0.052907  0  3.97904  0
C  C93  1  0.37930720  0.68706591  0.52130478  1  0  -0.039004  0  3.74459  0  0  -0.054305  0  3.992842  0  0  -0.051942  0  4.011805  0  0  -0.0841  -0.055376  0  3.97959  0
C  C94  1  0.41815122  0.68352773  0.98599695  1  0  -0.178336  0  3.762356  0  0  -0.199538  0  4.021743  0  0  -0.206869  0  4.043897  0  0  -0.101432  -0.194744  0  4.006621  0
C  C95  1  0.73482569  0.31684063  0.51403441  1  0  -0.177845  0  3.762545  0  0  -0.198812  0  4.021642  0  0  -0.206173  0  4.04371  0  0  -0.100758  -0.194012  0  4.006555  0
C  C96  1  0.58184909  0.31647029  0.01400168  1  0  -0.17838  0  3.762323  0  0  -0.199591  0  4.02172  0  0  -0.206918  0  4.04387  0  0  -0.101445  -0.194787  0  4.0066  0
C  C97  1  0.26516989  0.68315650  0.48596783  1  0  -0.177758  0  3.762526  0  0  -0.198749  0  4.021626  0  0  -0.20611  0  4.043697  0  0  -0.100703  -0.193945  0  4.006527  0
C  C98  1  0.50127455  0.66675712  0.05108451  1  0  0.174702  0  3.738898  0  0  0.15887  0  3.986195  0  0  0.16872  0  4.007503  0  0  0.103524  0.152592  0  3.971573  0
C  C99  1  0.83472216  0.33353413  0.44896593  1  0  0.174266  0  3.738924  0  0  0.159056  0  3.985527  0  0  0.16889  0  4.00678  0  0  0.103481  0.152776  0  3.97089  0
C  C100  1  0.49872663  0.33324091  0.94891488  1  0  0.174783  0  3.738865  0  0  0.158931  0  3.986189  0  0  0.16878  0  4.007496  0  0  0.103532  0.152649  0  3.971571  0
C  C101  1  0.16527076  0.66646109  0.55103594  1  0  0.174256  0  3.738852  0  0  0.159125  0  3.985416  0  0  0.168956  0  4.006671  0  0  0.103502  0.152843  0  3.970777  0
C  C102  1  0.02385727  0.93463515  0.80708713  1  0  0.128309  0  3.731155  0  0  0.095858  0  3.984614  0  0  0.102336  0  4.00365  0  0  0.042397  0.09155  0  3.97153  0
C  C103  1  0.08910952  0.06522854  0.69272671  1  0  0.129755  0  3.729975  0  0  0.0978  0  3.983436  0  0  0.10427  0  4.002367  0  0  0.042749  0.093501  0  3.970371  0
C  C104  1  0.97614588  0.06536855  0.19291108  1  0  0.128571  0  3.730896  0  0  0.096127  0  3.984368  0  0  0.102606  0  4.003399  0  0  0.042526  0.091833  0  3.971284  0
C  C105  1  0.91089258  0.93477134  0.30727000  1  0  0.129736  0  3.729917  0  0  0.097832  0  3.983329  0  0  0.104304  0  4.002257  0  0  0.04278  0.093529  0  3.97027  0
C  C106  1  0.14135758  0.93239150  0.80942743  1  0  -0.125061  0  3.687063  0  0  -0.143022  0  3.934499  0  0  -0.148951  0  3.954264  0  0  -0.07412  -0.139102  0  3.921198  0
C  C107  1  0.20892823  0.06757179  0.69044440  1  0  -0.125649  0  3.687267  0  0  -0.144089  0  3.934996  0  0  -0.149945  0  3.954766  0  0  -0.073866  -0.140202  0  3.921682  0
C  C108  1  0.85864424  0.06761126  0.19057136  1  0  -0.125148  0  3.686872  0  0  -0.143171  0  3.93439  0  0  -0.149087  0  3.95416  0  0  -0.07412  -0.139255  0  3.921087  0
C  C109  1  0.79107349  0.93242905  0.30955249  1  0  -0.125581  0  3.687101  0  0  -0.144022  0  3.934853  0  0  -0.149879  0  3.954624  0  0  -0.073849  -0.140134  0  3.921551  0
C  C110  1  0.23687873  0.99999285  0.74996390  1  0  0.103856  0  3.719878  0  0  0.11172  0  3.953875  0  0  0.115537  0  3.973775  0  0  0.018462  0.109243  0  3.940504  0
C  C111  1  0.76312433  0.00000896  0.25003470  1  0  0.10393  0  3.719799  0  0  0.111748  0  3.953906  0  0  0.115567  0  3.973801  0  0  0.018469  0.109271  0  3.940535  0
C  C112  1  0.36272009  0.99997201  0.75001443  1  0  0.106811  0  3.741658  0  0  0.118091  0  3.973136  0  0  0.121716  0  3.995325  0  0  0.021153  0.115761  0  3.958232  0
C  C113  1  0.63728261  0.00003078  0.24998664  1  0  0.106793  0  3.741704  0  0  0.118086  0  3.973192  0  0  0.12171  0  3.99538  0  0  0.021133  0.115756  0  3.958282  0
C  C114  1  0.42117725  0.99314456  0.83949925  1  0  -0.142051  0  3.679763  0  0  -0.161942  0  3.927698  0  0  -0.16938  0  3.949303  0  0  -0.072614  -0.157038  0  3.913225  0
C  C115  1  0.42791015  0.00673772  0.66050675  1  0  -0.140682  0  3.677145  0  0  -0.16066  0  3.925339  0  0  -0.168136  0  3.946905  0  0  -0.072431  -0.155715  0  3.910834  0
C  C116  1  0.57882496  0.00685726  0.16050011  1  0  -0.1421  0  3.679822  0  0  -0.161979  0  3.927747  0  0  -0.169414  0  3.949351  0  0  -0.072615  -0.157067  0  3.913271  0
C  C117  1  0.57209169  0.99326508  0.33949432  1  0  -0.14066  0  3.677188  0  0  -0.160624  0  3.925372  0  0  -0.168096  0  3.94694  0  0  -0.072429  -0.155688  0  3.910887  0
C  C118  1  0.54031439  0.99393944  0.83626034  1  0  0.136314  0  3.720775  0  0  0.105285  0  3.972369  0  0  0.111831  0  3.992787  0  0  0.051122  0.100933  0  3.958348  0
C  C119  1  0.54625519  0.00599526  0.66369451  1  0  0.1363  0  3.718608  0  0  0.105116  0  3.970398  0  0  0.111688  0  3.990796  0  0  0.050967  0.100761  0  3.956344  0
C  C120  1  0.45968820  0.00606144  0.16373884  1  0  0.136339  0  3.72077  0  0  0.1053  0  3.972378  0  0  0.111846  0  3.992797  0  0  0.051107  0.100941  0  3.958363  0
C  C121  1  0.45374532  0.99400660  0.33630713  1  0  0.136193  0  3.718599  0  0  0.105009  0  3.970408  0  0  0.111581  0  3.990804  0  0  0.050918  0.100655  0  3.956348  0
N  N122  1  0.60785327  0.65509291  0.01458270  1  0  -0.089147  0  3.550245  0  0  -0.00215  0  3.773019  0  0  -0.020553  0  3.798566  0  0  -0.244301  0.01013  0  3.755214  0
N  N123  1  0.95291233  0.34499038  0.48540802  1  0  -0.088343  0  3.547838  0  0  -0.001538  0  3.770816  0  0  -0.01991  0  3.796422  0  0  -0.243974  0.010759  0  3.752912  0
N  N124  1  0.39214799  0.34490701  0.98541629  1  0  -0.089211  0  3.550317  0  0  -0.002223  0  3.773085  0  0  -0.020628  0  3.79864  0  0  -0.244339  0.010065  0  3.75528  0
N  N125  1  0.04708418  0.65500862  0.51459231  1  0  -0.088199  0  3.547648  0  0  -0.001441  0  3.770588  0  0  -0.019807  0  3.796183  0  0  -0.244028  0.010854  0  3.752694  0
N  N126  1  0.99757306  0.99992804  0.74990090  1  0  -0.360258  0  3.30368  0  0  -0.280751  0  3.570186  0  0  -0.300824  0  3.58948  0  0  -0.337399  -0.266335  0  3.556474  0
N  N127  1  0.00242998  0.00007373  0.25009542  1  0  -0.360413  0  3.303542  0  0  -0.280944  0  3.570086  0  0  -0.301019  0  3.58938  0  0  -0.337516  -0.266524  0  3.556367  0
N  N128  1  0.60193721  0.99999659  0.74996838  1  0  -0.334171  0  3.276025  0  0  -0.255819  0  3.540629  0  0  -0.277003  0  3.562506  0  0  -0.330995  -0.240715  0  3.525281  0
N  N129  1  0.39806536  0.00000502  0.25003225  1  0  -0.334134  0  3.27595  0  0  -0.255795  0  3.540575  0  0  -0.276981  0  3.562455  0  0  -0.330962  -0.240684  0  3.525218  0
O  O130  1  0.70551485  0.80766470  0.79993806  1  0  -0.652463  0  1.971879  0  0  -0.591462  0  2.218995  0  0  -0.619624  0  2.207813  0  0  -0.339673  -0.571766  0  2.226117  0
O  O131  1  0.89795625  0.19231937  0.70000429  1  0  -0.652805  0  1.970665  0  0  -0.591486  0  2.217772  0  0  -0.619636  0  2.206537  0  0  -0.340238  -0.571887  0  2.224966  0
O  O132  1  0.29448566  0.19233714  0.20006282  1  0  -0.65242  0  1.971845  0  0  -0.591412  0  2.218969  0  0  -0.619577  0  2.207797  0  0  -0.33966  -0.571721  0  2.22609  0
O  O133  1  0.10204941  0.80768248  0.29999735  1  0  -0.652829  0  1.970677  0  0  -0.59152  0  2.217771  0  0  -0.619673  0  2.206543  0  0  -0.340223  -0.571914  0  2.224967  0
O  O134  1  0.74857296  0.89199317  0.97600407  1  0  -0.629663  0  1.991945  0  0  -0.580857  0  2.220918  0  0  -0.605831  0  2.213268  0  0  -0.32465  -0.563369  0  2.2256  0
O  O135  1  0.85689954  0.10803607  0.52393044  1  0  -0.630254  0  1.991373  0  0  -0.581098  0  2.220661  0  0  -0.606109  0  2.212998  0  0  -0.324356  -0.563705  0  2.225381  0
O  O136  1  0.25142746  0.10800679  0.02399796  1  0  -0.629643  0  1.991933  0  0  -0.580832  0  2.220918  0  0  -0.605809  0  2.21327  0  0  -0.324659  -0.563349  0  2.225603  0
O  O137  1  0.14310260  0.89196390  0.47607159  1  0  -0.630209  0  1.991529  0  0  -0.581066  0  2.220806  0  0  -0.606079  0  2.213146  0  0  -0.324359  -0.563665  0  2.225531  0
O  O138  1  0.54382028  0.64688609  0.32105950  1  0  -0.551998  0  1.872219  0  0  -0.51678  0  2.078752  0  0  -0.535585  0  2.071728  0  0  -0.332082  -0.503658  0  2.083136  0
O  O139  1  0.89719004  0.35355154  0.17903721  1  0  -0.552114  0  1.872921  0  0  -0.517056  0  2.078797  0  0  -0.535879  0  2.071736  0  0  -0.33206  -0.50391  0  2.083103  0
O  O140  1  0.45618061  0.35311480  0.67894120  1  0  -0.551912  0  1.872233  0  0  -0.516719  0  2.078714  0  0  -0.535528  0  2.071686  0  0  -0.332058  -0.503605  0  2.083102  0
O  O141  1  0.10280201  0.64644366  0.82096315  1  0  -0.552162  0  1.872921  0  0  -0.517154  0  2.078719  0  0  -0.535969  0  2.07167  0  0  -0.332136  -0.504013  0  2.083023  0
O  O142  1  0.84168765  0.10927487  0.93163932  1  0  -0.829363  0  1.843657  0  0  -0.77367  0  2.034438  0  0  -0.794619  0  2.004331  0  0  -0.582613  -0.759078  0  2.055697  0
O  O143  1  0.73249613  0.89081586  0.56818132  1  0  -0.830389  0  1.841729  0  0  -0.77507  0  2.032269  0  0  -0.795975  0  2.002146  0  0  -0.582958  -0.760501  0  2.053379  0
O  O144  1  0.15831456  0.89072694  0.06835929  1  0  -0.829339  0  1.843704  0  0  -0.773672  0  2.034464  0  0  -0.794614  0  2.004342  0  0  -0.582572  -0.75907  0  2.055726  0
O  O145  1  0.26750256  0.10918406  0.43181767  1  0  -0.830438  0  1.841755  0  0  -0.775117  0  2.032308  0  0  -0.79602  0  2.002174  0  0  -0.582971  -0.760549  0  2.05342  0
