# generated using pymatgen
data_MgH38C18(NO3)4
_symmetry_space_group_name_H-M   'P 1'
_cell_length_a   7.83373708
_cell_length_b   10.01569712
_cell_length_c   10.10209988
_cell_angle_alpha   69.01155037
_cell_angle_beta   67.83220746
_cell_angle_gamma   68.24093172
_symmetry_Int_Tables_number   1
_chemical_formula_structural   MgH38C18(NO3)4
_chemical_formula_sum   'Mg1 H38 C18 N4 O12'
_cell_volume   659.40315683
_cell_formula_units_Z   1
loop_
 _symmetry_equiv_pos_site_id
 _symmetry_equiv_pos_as_xyz
  1  'x, y, z'
loop_
 _atom_site_type_symbol
 _atom_site_label
 _atom_site_symmetry_multiplicity
 _atom_site_fract_x
 _atom_site_fract_y
 _atom_site_fract_z
 _atom_site_occupancy
 _atom_site_hle17_bader_spin_density
 _atom_site_hle17_ddec_charge
 _atom_site_hle17_ddec_spin_density
 _atom_site_hle17_ddec_sum_bond_order
 _atom_site_hle17_magmom
 _atom_site_hse06_10hf_bader_spin_density
 _atom_site_hse06_10hf_ddec_charge
 _atom_site_hse06_10hf_ddec_spin_density
 _atom_site_hse06_10hf_ddec_sum_bond_order
 _atom_site_hse06_10hf_magmom
 _atom_site_hse06_bader_spin_density
 _atom_site_hse06_ddec_charge
 _atom_site_hse06_ddec_spin_density
 _atom_site_hse06_ddec_sum_bond_order
 _atom_site_hse06_magmom
 _atom_site_pbe_bader_spin_density
 _atom_site_pbe_cm5_charge
 _atom_site_pbe_ddec_charge
 _atom_site_pbe_ddec_spin_density
 _atom_site_pbe_ddec_sum_bond_order
 _atom_site_pbe_magmom
Mg  Mg0  1  0.00000268  0.99999932  0.99999554  1  0  1.501238  0  1.126089  0  0  1.399793  0  1.374178  0  0  1.422017  0  1.338844  0  0  0.790522  1.383985  0  1.399016  0
H  H1  1  0.16158934  0.60096170  0.86664683  1  0  0.078257  0  0.92607  0  0  0.09666  0  0.984531  0  0  0.098002  0  0.983507  0  0  0.104274  0.095665  0  0.985192  0
H  H2  1  0.83840834  0.39903633  0.13335361  1  0  0.078248  0  0.926034  0  0  0.096639  0  0.984508  0  0  0.097984  0  0.983482  0  0  0.104271  0.095645  0  0.985168  0
H  H3  1  0.15981445  0.57811950  0.70142809  1  0  0.074531  0  0.925759  0  0  0.090375  0  0.986853  0  0  0.091614  0  0.985878  0  0  0.107933  0.089511  0  0.987496  0
H  H4  1  0.84018952  0.42187610  0.29857218  1  0  0.074485  0  0.925813  0  0  0.090326  0  0.986903  0  0  0.091566  0  0.985929  0  0  0.10792  0.08946  0  0.987546  0
H  H5  1  0.36891004  0.34651546  0.92788094  1  0  0.090359  0  0.914402  0  0  0.105728  0  0.974363  0  0  0.10671  0  0.973959  0  0  0.115713  0.104659  0  0.975324  0
H  H6  1  0.63109757  0.65348132  0.07211385  1  0  0.090391  0  0.914422  0  0  0.105712  0  0.974391  0  0  0.106694  0  0.97399  0  0  0.115694  0.104642  0  0.975352  0
H  H7  1  0.16463715  0.34246062  0.89428576  1  0  0.11298  0  0.927522  0  0  0.126951  0  0.985516  0  0  0.129166  0  0.983797  0  0  0.122824  0.12536  0  0.986768  0
H  H8  1  0.83536553  0.65753491  0.10571691  1  0  0.113022  0  0.927483  0  0  0.126962  0  0.985471  0  0  0.129178  0  0.98375  0  0  0.122844  0.12537  0  0.986723  0
H  H9  1  0.18593580  0.28674868  0.68855106  1  0  0.100001  0  0.933347  0  0  0.110016  0  0.998549  0  0  0.112076  0  0.997365  0  0  0.116437  0.108445  0  0.99948  0
H  H10  1  0.81405621  0.71325851  0.31144425  1  0  0.100026  0  0.933354  0  0  0.110032  0  0.998537  0  0  0.112087  0  0.997365  0  0  0.116464  0.108458  0  0.999469  0
H  H11  1  0.29338562  0.42914609  0.55874073  1  0  0.090197  0  0.935168  0  0  0.098172  0  1.005338  0  0  0.100223  0  1.003898  0  0  0.112466  0.096386  0  1.00694  0
H  H12  1  0.70661714  0.57085749  0.44125241  1  0  0.090239  0  0.935112  0  0  0.098181  0  1.005297  0  0  0.100235  0  1.003854  0  0  0.112458  0.096394  0  1.0069  0
H  H13  1  0.33620924  0.22410232  0.45481083  1  0  0.090373  0  0.920494  0  0  0.112744  0  0.970663  0  0  0.113684  0  0.970669  0  0  0.104856  0.112031  0  0.970733  0
H  H14  1  0.66378762  0.77589808  0.54518614  1  0  0.09041  0  0.920492  0  0  0.112792  0  0.970659  0  0  0.113735  0  0.970662  0  0  0.104889  0.112079  0  0.970728  0
H  H15  1  0.46987909  0.09561058  0.57344027  1  0  0.079901  0  0.945789  0  0  0.09877  0  1.005992  0  0  0.099106  0  1.006981  0  0  0.098332  0.098389  0  1.005539  0
H  H16  1  0.53011432  0.90438768  0.42655944  1  0  0.079946  0  0.945763  0  0  0.098759  0  1.006029  0  0  0.099094  0  1.007025  0  0  0.098323  0.098378  0  1.005576  0
H  H17  1  0.28600673  0.75358894  0.53714670  1  0  0.053304  0  0.933031  0  0  0.071787  0  0.994608  0  0  0.072592  0  0.993706  0  0  0.099063  0.071165  0  0.995365  0
H  H18  1  0.71399168  0.24640682  0.46285523  1  0  0.053284  0  0.933064  0  0  0.071738  0  0.994645  0  0  0.072541  0  0.993745  0  0  0.099054  0.071116  0  0.9954  0
H  H19  1  0.30636394  0.83021936  0.66238366  1  0  0.057719  0  0.935329  0  0  0.074069  0  0.999836  0  0  0.07545  0  0.998877  0  0  0.094041  0.073031  0  1.000836  0
H  H20  1  0.69363336  0.16977983  0.33761554  1  0  0.057699  0  0.935334  0  0  0.074058  0  0.999808  0  0  0.075435  0  0.998849  0  0  0.094057  0.073018  0  1.00081  0
H  H21  1  0.64728387  0.10172026  0.69939652  1  0  0.097362  0  0.934154  0  0  0.110873  0  0.99247  0  0  0.113302  0  0.990247  0  0  0.116642  0.109227  0  0.993993  0
H  H22  1  0.35271952  0.89828115  0.30059612  1  0  0.097427  0  0.93406  0  0  0.11089  0  0.992401  0  0  0.113316  0  0.990179  0  0  0.11663  0.109243  0  0.993923  0
H  H23  1  0.58547237  0.14349082  0.87083569  1  0  0.117773  0  0.942972  0  0  0.125232  0  1.0125  0  0  0.127811  0  1.011207  0  0  0.124746  0.12331  0  1.01364  0
H  H24  1  0.41453371  0.85651136  0.12916084  1  0  0.117719  0  0.943022  0  0  0.125188  0  1.012499  0  0  0.127764  0  1.011207  0  0  0.124735  0.123266  0  1.013639  0
H  H25  1  0.58533488  0.67095880  0.76260975  1  0  0.107482  0  0.942378  0  0  0.122982  0  1.000923  0  0  0.125488  0  0.998875  0  0  0.113825  0.121028  0  1.00284  0
H  H26  1  0.41466352  0.32905030  0.23738496  1  0  0.107453  0  0.942509  0  0  0.122971  0  1.001014  0  0  0.125474  0  0.998975  0  0  0.113826  0.121016  0  1.002932  0
H  H27  1  0.46690364  0.54477598  0.89921570  1  0  0.085518  0  0.954694  0  0  0.099656  0  1.022293  0  0  0.101336  0  1.021427  0  0  0.108125  0.098032  0  1.023964  0
H  H28  1  0.53309232  0.45523729  0.10078437  1  0  0.085559  0  0.954643  0  0  0.099664  0  1.022299  0  0  0.101345  0  1.021432  0  0  0.108119  0.09804  0  1.023966  0
H  H29  1  0.53666798  0.35073534  0.67269897  1  0  0.267073  0  0.899686  0  0  0.244207  0  0.971455  0  0  0.253209  0  0.96445  0  0  0.306922  0.237182  0  0.977481  0
H  H30  1  0.46332816  0.64926733  0.32729650  1  0  0.267102  0  0.899668  0  0  0.244228  0  0.971453  0  0  0.253231  0  0.964444  0  0  0.306915  0.237199  0  0.977482  0
H  H31  1  0.96310481  0.01930739  0.74375508  1  0  0.421646  0  0.828382  0  0  0.406798  0  0.87887  0  0  0.414637  0  0.869628  0  0  0.324524  0.401143  0  0.885674  0
H  H32  1  0.03688193  0.98069447  0.25624356  1  0  0.421627  0  0.828456  0  0  0.406725  0  0.879022  0  0  0.414563  0  0.869782  0  0  0.324502  0.401071  0  0.885821  0
H  H33  1  0.90731169  0.19239449  0.73632249  1  0  0.425782  0  0.882095  0  0  0.387901  0  0.957112  0  0  0.400224  0  0.939059  0  0  0.285119  0.379178  0  0.9699  0
H  H34  1  0.09268442  0.80760453  0.26368110  1  0  0.425824  0  0.882024  0  0  0.387932  0  0.957071  0  0  0.400255  0  0.939016  0  0  0.285128  0.379209  0  0.969859  0
H  H35  1  0.83433721  0.28349709  0.97492556  1  0  0.425544  0  0.885816  0  0  0.39357  0  0.952314  0  0  0.404083  0  0.936965  0  0  0.291617  0.386237  0  0.962992  0
H  H36  1  0.16565843  0.71650395  0.02508149  1  0  0.425523  0  0.885838  0  0  0.393559  0  0.952318  0  0  0.404072  0  0.936968  0  0  0.291606  0.386226  0  0.962995  0
H  H37  1  0.69416261  0.17954914  0.08928722  1  0  0.410641  0  0.904289  0  0  0.376864  0  0.974531  0  0  0.388284  0  0.957853  0  0  0.288398  0.36861  0  0.986705  0
H  H38  1  0.30583869  0.82044644  0.91071587  1  0  0.410611  0  0.904343  0  0  0.376835  0  0.974587  0  0  0.388255  0  0.957908  0  0  0.288373  0.36858  0  0.986762  0
C  C39  1  0.24902797  0.54656798  0.77533326  1  0  -0.031587  0  3.680027  0  0  -0.093364  0  3.949957  0  0  -0.090296  0  3.960967  0  0  -0.068502  -0.095353  0  3.942251  0
C  C40  1  0.75097443  0.45343306  0.22466774  1  0  -0.03152  0  3.680142  0  0  -0.093275  0  3.949982  0  0  -0.090213  0  3.961002  0  0  -0.068473  -0.095262  0  3.942273  0
C  C41  1  0.29464953  0.37988126  0.84332443  1  0  -0.025224  0  3.515996  0  0  -0.08789  0  3.776139  0  0  -0.084326  0  3.784933  0  0  -0.060097  -0.090201  0  3.770219  0
C  C42  1  0.70535295  0.62011447  0.15667427  1  0  -0.025323  0  3.516155  0  0  -0.087855  0  3.776155  0  0  -0.084292  0  3.784955  0  0  -0.060095  -0.090168  0  3.770235  0
C  C43  1  0.32226321  0.31212189  0.62077222  1  0  -0.006493  0  3.512006  0  0  -0.063333  0  3.767539  0  0  -0.06049  0  3.777901  0  0  -0.064271  -0.065209  0  3.760663  0
C  C44  1  0.67773596  0.68788045  0.37922738  1  0  -0.006527  0  3.512062  0  0  -0.063264  0  3.767524  0  0  -0.060424  0  3.777886  0  0  -0.064254  -0.065139  0  3.760648  0
C  C45  1  0.43471612  0.21369007  0.51422064  1  0  -0.149588  0  3.687982  0  0  -0.195183  0  3.952703  0  0  -0.196599  0  3.966469  0  0  -0.16278  -0.193939  0  3.943034  0
C  C46  1  0.56527719  0.78630830  0.48577708  1  0  -0.149643  0  3.688103  0  0  -0.195223  0  3.952885  0  0  -0.196645  0  3.96666  0  0  -0.162829  -0.19398  0  3.943214  0
C  C47  1  0.38316887  0.74702083  0.59623882  1  0  9e-05  0  3.67677  0  0  -0.05968  0  3.948763  0  0  -0.056148  0  3.960826  0  0  -0.071636  -0.062014  0  3.940132  0
C  C48  1  0.61682982  0.25297832  0.40375997  1  0  0.000146  0  3.676797  0  0  -0.05955  0  3.948644  0  0  -0.056013  0  3.960702  0  0  -0.071579  -0.061884  0  3.940014  0
C  C49  1  0.52720265  0.14040821  0.78922102  1  0  -0.165486  0  3.549803  0  0  -0.224584  0  3.798565  0  0  -0.225698  0  3.804916  0  0  -0.064776  -0.223906  0  3.794298  0
C  C50  1  0.47280112  0.85958759  0.21077528  1  0  -0.165549  0  3.549867  0  0  -0.224491  0  3.798502  0  0  -0.225597  0  3.804851  0  0  -0.064766  -0.223814  0  3.794232  0
C  C51  1  0.40419963  0.03153218  0.86306506  1  0  0.69346  0  3.882301  0  0  0.646398  0  4.184933  0  0  0.678458  0  4.178269  0  0  0.211846  0.624617  0  4.188823  0
C  C52  1  0.59579848  0.96846389  0.13693092  1  0  0.693534  0  3.882355  0  0  0.646372  0  4.185085  0  0  0.678431  0  4.17842  0  0  0.21179  0.624592  0  4.188973  0
C  C53  1  0.54533463  0.57033142  0.78058063  1  0  -0.185466  0  3.685995  0  0  -0.239917  0  3.937089  0  0  -0.241823  0  3.945878  0  0  -0.077477  -0.238432  0  3.93121  0
C  C54  1  0.45466709  0.42967184  0.21941987  1  0  -0.185489  0  3.68599  0  0  -0.239926  0  3.937088  0  0  -0.241833  0  3.945875  0  0  -0.077468  -0.238435  0  3.931198  0
C  C55  1  0.73055551  0.44354369  0.76388889  1  0  0.672811  0  3.860638  0  0  0.623791  0  4.167203  0  0  0.656053  0  4.160307  0  0  0.203309  0.602007  0  4.170794  0
C  C56  1  0.26944699  0.55646243  0.23611838  1  0  0.67272  0  3.860614  0  0  0.62364  0  4.16728  0  0  0.655904  0  4.160384  0  0  0.203211  0.601856  0  4.170867  0
N  N57  1  0.42565791  0.29722508  0.72693358  1  0  -0.079735  0  3.343349  0  0  0.004236  0  3.551134  0  0  -0.008236  0  3.569341  0  0  -0.347431  0.012856  0  3.539161  0
N  N58  1  0.57434395  0.70277282  0.27306561  1  0  -0.079822  0  3.343467  0  0  0.004049  0  3.5513  0  0  -0.008427  0  3.569511  0  0  -0.347466  0.012671  0  3.53932  0
N  N59  1  0.42314829  0.59524325  0.69010403  1  0  -0.215835  0  3.258048  0  0  -0.139333  0  3.519302  0  0  -0.153202  0  3.53942  0  0  -0.346119  -0.128824  0  3.505093  0
N  N60  1  0.57685900  0.40475539  0.30989721  1  0  -0.215756  0  3.257925  0  0  -0.139326  0  3.519239  0  0  -0.153194  0  3.539353  0  0  -0.346186  -0.128819  0  3.505028  0
O  O61  1  0.23253698  0.08086251  0.93564209  1  0  -0.713619  0  1.995204  0  0  -0.653835  0  2.229752  0  0  -0.677956  0  2.219782  0  0  -0.359508  -0.63698  0  2.236072  0
O  O62  1  0.76746525  0.91913349  0.06435165  1  0  -0.713689  0  1.995175  0  0  -0.653877  0  2.229759  0  0  -0.677992  0  2.219776  0  0  -0.359505  -0.637023  0  2.236078  0
O  O63  1  0.48630148  0.89998399  0.84956082  1  0  -0.631918  0  1.895509  0  0  -0.58739  0  2.116091  0  0  -0.610571  0  2.105569  0  0  -0.329914  -0.571336  0  2.123322  0
O  O64  1  0.51371574  0.10000895  0.15043719  1  0  -0.6319  0  1.895672  0  0  -0.587348  0  2.116293  0  0  -0.610524  0  2.105765  0  0  -0.329859  -0.571289  0  2.123511  0
O  O65  1  0.76039118  0.35565906  0.68643580  1  0  -0.65399  0  1.970442  0  0  -0.593829  0  2.192766  0  0  -0.619059  0  2.181979  0  0  -0.329425  -0.575802  0  2.199718  0
O  O66  1  0.23961052  0.64434129  0.31357951  1  0  -0.653861  0  1.970465  0  0  -0.593657  0  2.192811  0  0  -0.618888  0  2.182029  0  0  -0.329264  -0.575631  0  2.19976  0
O  O67  1  0.83970668  0.43056790  0.83624569  1  0  -0.645894  0  1.927688  0  0  -0.594572  0  2.150604  0  0  -0.618457  0  2.140649  0  0  -0.33947  -0.577776  0  2.156978  0
O  O68  1  0.16028509  0.56944258  0.16377045  1  0  -0.645948  0  1.927632  0  0  -0.594621  0  2.15062  0  0  -0.618503  0  2.140663  0  0  -0.339514  -0.577814  0  2.156967  0
O  O69  1  0.98884157  0.08958241  0.77462736  1  0  -0.882497  0  1.845011  0  0  -0.834013  0  2.030565  0  0  -0.85036  0  2.000939  0  0  -0.596013  -0.822636  0  2.051636  0
O  O70  1  0.01115697  0.91041245  0.22537085  1  0  -0.882512  0  1.845018  0  0  -0.833977  0  2.030646  0  0  -0.850323  0  2.00102  0  0  -0.596  -0.822603  0  2.051713  0
O  O71  1  0.82638845  0.19201492  0.05853133  1  0  -0.916123  0  1.873074  0  0  -0.860789  0  2.059447  0  0  -0.87933  0  2.026561  0  0  -0.628855  -0.847689  0  2.082371  0
O  O72  1  0.17361379  0.80798182  0.94146910  1  0  -0.916042  0  1.873157  0  0  -0.860722  0  2.059523  0  0  -0.879266  0  2.026639  0  0  -0.628813  -0.847626  0  2.082445  0
