# generated using pymatgen
data_Cu2H24C35(NO7)2
_symmetry_space_group_name_H-M   'P 1'
_cell_length_a   9.59895175
_cell_length_b   10.28777361
_cell_length_c   10.89726357
_cell_angle_alpha   70.78073606
_cell_angle_beta   66.14497067
_cell_angle_gamma   63.29434159
_symmetry_Int_Tables_number   1
_chemical_formula_structural   Cu2H24C35(NO7)2
_chemical_formula_sum   'Cu2 H24 C35 N2 O14'
_cell_volume   864.77287438
_cell_formula_units_Z   1
loop_
 _symmetry_equiv_pos_site_id
 _symmetry_equiv_pos_as_xyz
  1  'x, y, z'
loop_
 _atom_site_type_symbol
 _atom_site_label
 _atom_site_symmetry_multiplicity
 _atom_site_fract_x
 _atom_site_fract_y
 _atom_site_fract_z
 _atom_site_occupancy
 _atom_site_pbe_cm5_charge
 _atom_site_pbe_ddec_charge
 _atom_site_pbe_ddec_spin_density
 _atom_site_pbe_ddec_sum_bond_order
 _atom_site_pbe_magmom
Cu  Cu0  1  0.87220104  0.48824965  0.50239372  1  0.689044  0.753121  0.708152  2.432087  0.548
Cu  Cu1  1  0.12780576  0.51175889  0.49761121  1  0.689007  0.753169  -0.70817  2.431899  -0.548
H  H2  1  0.12226529  0.33878725  0.91621278  1  0.101218  0.108555  -0.000281  1.0225  0.0
H  H3  1  0.87774330  0.66120578  0.08378625  1  0.101266  0.108606  0.000281  1.022502  0.0
H  H4  1  0.08395013  0.21216723  0.15987492  1  0.096249  0.09479  0.000118  1.026095  0.0
H  H5  1  0.91606254  0.78782139  0.84012036  1  0.096206  0.094782  -0.000118  1.025994  0.0
H  H6  1  0.88411888  0.08441039  0.27240387  1  0.100526  0.098287  -1e-06  0.997444  0.0
H  H7  1  0.11589674  0.91557380  0.72759081  1  0.100512  0.098249  0.0  0.997516  0.0
H  H8  1  0.72074187  0.08641397  0.14232534  1  0.096458  0.093635  -0.000101  1.036648  0.0
H  H9  1  0.27925536  0.91359009  0.85767522  1  0.096473  0.093668  0.000101  1.036709  0.0
H  H10  1  0.75890715  0.21458048  0.90038482  1  0.100643  0.102479  0.000271  1.025571  0.0
H  H11  1  0.24108805  0.78543134  0.09961864  1  0.100609  0.102399  -0.000272  1.025605  0.0
H  H12  1  0.06249012  0.06263735  0.39267470  1  0.102615  0.102611  0.000333  1.032199  0.0
H  H13  1  0.93749053  0.93737663  0.60733145  1  0.102643  0.102597  -0.000333  1.032204  0.0
H  H14  1  0.22963563  0.81358008  0.32533932  1  0.10155  0.113536  -0.000107  1.016655  0.0
H  H15  1  0.77033637  0.18643276  0.67467485  1  0.101441  0.113355  0.000107  1.016717  0.0
H  H16  1  0.53239422  0.71440836  0.27799092  1  0.096494  0.093655  8e-06  1.039413  0.0
H  H17  1  0.46757730  0.28559450  0.72201368  1  0.096483  0.093691  -8e-06  1.039442  0.0
H  H18  1  0.66503730  0.85462925  0.30782181  1  0.100645  0.109359  0.000109  1.006529  0.0
H  H19  1  0.33495423  0.14536925  0.69216783  1  0.10066  0.109317  -0.000109  1.006647  0.0
H  H20  1  0.49536732  0.10623597  0.37248209  1  0.104508  0.108429  -0.000261  1.011904  0.0
H  H21  1  0.50462695  0.89376697  0.62750519  1  0.104511  0.108395  0.000261  1.011914  0.0
H  H22  1  0.76075078  0.37551421  0.34325169  1  0.12471  0.103787  -4.8e-05  0.99191  0.0
H  H23  1  0.23925032  0.62448876  0.65675150  1  0.12477  0.103821  4.8e-05  0.991838  0.0
H  H24  1  0.49067008  0.39829010  0.33210358  1  0.126783  0.109745  3.6e-05  0.986736  0.0
H  H25  1  0.50932943  0.60171397  0.66790167  1  0.126817  0.109765  -3.6e-05  0.986745  0.0
C  C26  1  0.62886627  0.57948040  0.99037436  1  0.363831  0.713474  7e-06  4.132739  0.0
C  C27  1  0.37116189  0.42051492  0.00962157  1  0.363673  0.713349  -7e-06  4.132974  0.0
C  C28  1  0.49998921  0.99997056  0.00000687  1  0.372489  0.718774  -0.0  4.125941  0.0
C  C29  1  0.96417345  0.36221558  0.74896850  1  0.207414  0.56271  -1.7e-05  4.177795  0.0
C  C30  1  0.03583630  0.63778853  0.25103768  1  0.207441  0.562763  1.4e-05  4.177833  0.0
C  C31  1  0.94310284  0.28371510  0.89403314  1  -0.024227  -0.044923  -0.000191  3.988194  0.0
C  C32  1  0.05691052  0.71628016  0.10596440  1  -0.024194  -0.044886  0.000189  3.988542  0.0
C  C33  1  0.03550157  0.28241125  0.96691373  1  -0.088379  -0.096522  0.000588  3.966278  0.001
C  C34  1  0.96450611  0.71758400  0.03308860  1  -0.088463  -0.096679  -0.000588  3.966671  -0.001
C  C35  1  0.01353991  0.21164316  0.10279787  1  -0.096831  -0.092139  0.000478  4.011905  0.001
C  C36  1  0.98647141  0.78834878  0.89720419  1  -0.096745  -0.092078  -0.000477  4.011802  -0.001
C  C37  1  0.90066957  0.14064005  0.16619264  1  -0.085133  -0.068864  1e-06  3.982472  0.0
C  C38  1  0.09934447  0.85935078  0.83380696  1  -0.085167  -0.068834  -0.0  3.982618  0.0
C  C39  1  0.80890151  0.14137737  0.09366374  1  -0.091187  -0.081857  -0.000474  4.004363  -0.001
C  C40  1  0.19110708  0.85862120  0.90633356  1  -0.091194  -0.081959  0.000474  4.004544  0.001
C  C41  1  0.82965734  0.21299630  0.95811380  1  -0.089895  -0.100861  -0.000647  3.983309  -0.001
C  C42  1  0.17035035  0.78700448  0.04188496  1  -0.089862  -0.100696  0.000647  3.983372  0.001
C  C43  1  0.16861939  0.24850126  0.42267625  1  0.213332  0.572601  -0.000287  4.166024  -0.001
C  C44  1  0.83137990  0.75150614  0.57732254  1  0.213328  0.572663  0.000285  4.166253  0.001
C  C45  1  0.26988157  0.09910404  0.38432501  1  -0.024752  -0.041983  0.000183  3.981548  0.0
C  C46  1  0.73011340  0.90090555  0.61566638  1  -0.024729  -0.042  -0.000184  3.98162  0.0
C  C47  1  0.19477272  0.01643181  0.37190435  1  -0.089459  -0.104673  -0.000556  3.990088  -0.001
C  C48  1  0.80521134  0.98358218  0.62809048  1  -0.089578  -0.104746  0.000556  3.990363  0.001
C  C49  1  0.28852751  0.87813840  0.33388830  1  -0.095797  -0.094756  -0.000487  4.000748  -0.001
C  C50  1  0.71145085  0.12187003  0.66611396  1  -0.095644  -0.094412  0.000487  4.000445  0.001
C  C51  1  0.45811127  0.82176643  0.30909053  1  -0.096795  -0.087375  2.8e-05  4.016351  0.0
C  C52  1  0.54186640  0.17824089  0.69090681  1  -0.096799  -0.087615  -2.8e-05  4.016618  0.0
C  C53  1  0.53332308  0.90214368  0.32411903  1  -0.094213  -0.088788  0.000482  3.999205  0.001
C  C54  1  0.46666438  0.09786478  0.67587080  1  -0.094201  -0.088536  -0.000482  3.999562  -0.001
C  C55  1  0.43953342  0.04108053  0.36098201  1  -0.08462  -0.091521  0.000665  3.971242  0.001
C  C56  1  0.56046041  0.95892907  0.63900704  1  -0.084636  -0.091562  -0.000665  3.971291  -0.001
C  C57  1  0.64355454  0.43070440  0.41340469  1  0.063362  0.058652  -0.000737  3.911105  -0.001
C  C58  1  0.35644656  0.56929857  0.58659942  1  0.063329  0.058662  0.000738  3.91103  0.001
C  C59  1  0.49592331  0.44364146  0.40681940  1  0.060586  0.05562  0.000717  3.902374  0.001
C  C60  1  0.50407825  0.55636041  0.59318489  1  0.060539  0.055608  -0.000717  3.902342  -0.001
N  N61  1  0.64683510  0.48704698  0.50651254  1  -0.319972  -0.197176  -0.000253  3.513657  0.001
N  N62  1  0.35316873  0.51295489  0.49349093  1  -0.320049  -0.19724  0.000254  3.513757  -0.001
O  O63  1  0.66691641  0.55735869  0.08744315  1  -0.167959  -0.354911  2e-06  2.235376  0.0
O  O64  1  0.33308494  0.44265758  0.91255031  1  -0.167949  -0.354991  -2e-06  2.234803  0.0
O  O65  1  0.59077329  0.60235544  0.89327580  1  -0.168681  -0.340667  -5e-06  2.225586  0.0
O  O66  1  0.40928165  0.39761893  0.10670057  1  -0.168524  -0.340469  5e-06  2.226417  0.0
O  O67  1  0.50553873  0.89288311  0.97839815  1  -0.167359  -0.355834  6e-06  2.251518  0.0
O  O68  1  0.49444473  0.10705997  0.02161528  1  -0.167031  -0.355471  -6e-06  2.251306  0.0
O  O69  1  0.08368937  0.40729334  0.69190057  1  -0.312238  -0.511973  -0.056603  2.364884  -0.079
O  O70  1  0.91631493  0.59271297  0.30811053  1  -0.312201  -0.511946  0.0566  2.364821  0.079
O  O71  1  0.86120797  0.37865113  0.69390408  1  -0.312317  -0.519484  0.054605  2.377031  0.076
O  O72  1  0.13879928  0.62135630  0.30609553  1  -0.312369  -0.51955  -0.054592  2.377206  -0.076
O  O73  1  0.01556988  0.29641416  0.43831039  1  -0.314826  -0.515691  0.05918  2.367284  0.082
O  O74  1  0.98442715  0.70359877  0.56168932  1  -0.314833  -0.515765  -0.059176  2.367562  -0.082
O  O75  1  0.24258843  0.31614059  0.43751771  1  -0.311706  -0.524652  -0.054235  2.401746  -0.075
O  O76  1  0.75741085  0.68386127  0.56248648  1  -0.311648  -0.524591  0.054245  2.401903  0.075
