# generated using pymatgen
data_GdH18C19N3O11
_symmetry_space_group_name_H-M   'P 1'
_cell_length_a   7.21807475
_cell_length_b   11.11122781
_cell_length_c   13.46300000
_cell_angle_alpha   102.78530605
_cell_angle_beta   101.76512632
_cell_angle_gamma   90.80320486
_symmetry_Int_Tables_number   1
_chemical_formula_structural   GdH18C19N3O11
_chemical_formula_sum   'Gd2 H36 C38 N6 O22'
_cell_volume   1028.88263763
_cell_formula_units_Z   2
loop_
 _symmetry_equiv_pos_site_id
 _symmetry_equiv_pos_as_xyz
  1  'x, y, z'
loop_
 _atom_site_type_symbol
 _atom_site_label
 _atom_site_symmetry_multiplicity
 _atom_site_fract_x
 _atom_site_fract_y
 _atom_site_fract_z
 _atom_site_occupancy
 _atom_site_hle17_bader_spin_density
 _atom_site_hle17_ddec_charge
 _atom_site_hle17_ddec_spin_density
 _atom_site_hle17_ddec_sum_bond_order
 _atom_site_hle17_magmom
 _atom_site_hse06_10hf_bader_spin_density
 _atom_site_hse06_10hf_ddec_charge
 _atom_site_hse06_10hf_ddec_spin_density
 _atom_site_hse06_10hf_ddec_sum_bond_order
 _atom_site_hse06_10hf_magmom
 _atom_site_hse06_bader_spin_density
 _atom_site_hse06_ddec_charge
 _atom_site_hse06_ddec_spin_density
 _atom_site_hse06_ddec_sum_bond_order
 _atom_site_hse06_magmom
 _atom_site_pbe_bader_charge
 _atom_site_pbe_bader_spin_density
 _atom_site_pbe_cm5_charge
 _atom_site_pbe_ddec_charge
 _atom_site_pbe_ddec_spin_density
 _atom_site_pbe_ddec_sum_bond_order
 _atom_site_pbe_magmom
Gd  Gd0  1  0.11259846  0.89115529  0.66068987  1  0  2.188185  0  1.82522  0  0  2.102448  0  2.192949  0  0  2.158683  0  2.131383  0  2.182938  0  1.467627  2.058461  0  2.242703  0
Gd  Gd1  1  0.88739343  0.10884215  0.33930907  1  0  2.188159  0  1.825186  0  0  2.102347  0  2.193034  0  0  2.158608  0  2.131421  0  2.182945  0  1.467582  2.058346  0  2.242812  0
H  H2  1  0.83602134  0.73152408  0.18659519  1  0  0.118838  0  0.961773  0  0  0.120391  0  1.036377  0  0  0.125339  0  1.031195  0  0.135839  0  0.110607  0.116787  0  1.040155  0
H  H3  1  0.16398807  0.26846412  0.81339730  1  0  0.118872  0  0.961774  0  0  0.120443  0  1.036336  0  0  0.125399  0  1.031166  0  0.135874  0  0.110615  0.116841  0  1.040114  0
H  H4  1  0.95593851  0.34935509  0.17013199  1  0  0.111372  0  0.953658  0  0  0.119376  0  1.021495  0  0  0.122967  0  1.018974  0  0.102852  0  0.111853  0.116778  0  1.023321  0
H  H5  1  0.04405683  0.65063403  0.82987101  1  0  0.111459  0  0.953497  0  0  0.119435  0  1.021361  0  0  0.123029  0  1.018836  0  0.102915  0  0.111859  0.116838  0  1.023188  0
H  H6  1  0.13248468  0.61788763  0.46012097  1  0  0.134109  0  0.943406  0  0  0.138741  0  1.011032  0  0  0.143467  0  1.006876  0  0.171994  0  0.121908  0.135265  0  1.014151  0
H  H7  1  0.86751755  0.38211444  0.53987549  1  0  0.134168  0  0.943327  0  0  0.138733  0  1.011  0  0  0.143484  0  1.00682  0  0.171963  0  0.121913  0.135251  0  1.014136  0
H  H8  1  0.39205528  0.48737913  0.61916134  1  0  0.151492  0  0.937141  0  0  0.154136  0  1.005288  0  0  0.159067  0  1.000635  0  0.244699  0  0.124053  0.15051  0  1.008704  0
H  H9  1  0.60795614  0.51263034  0.38084045  1  0  0.15157  0  0.937091  0  0  0.154188  0  1.005273  0  0  0.159122  0  1.000614  0  0.244627  0  0.124045  0.150562  0  1.00869  0
H  H10  1  0.70674140  0.36440928  0.88624999  1  0  0.091376  0  0.99383  0  0  0.093863  0  1.074368  0  0  0.097943  0  1.070188  0  0.082814  0  0.105105  0.090933  0  1.077344  0
H  H11  1  0.29325490  0.63559001  0.11374681  1  0  0.091368  0  0.993849  0  0  0.093873  0  1.074368  0  0  0.097954  0  1.07019  0  0.082684  0  0.105091  0.090941  0  1.077347  0
H  H12  1  0.56937240  0.74240349  0.91837534  1  0  0.11092  0  0.947662  0  0  0.119327  0  1.013438  0  0  0.123083  0  1.010405  0  0.106671  0  0.112351  0.116619  0  1.015615  0
H  H13  1  0.43062108  0.25759581  0.08163451  1  0  0.111023  0  0.947652  0  0  0.119369  0  1.013483  0  0  0.123121  0  1.010461  0  0.106742  0  0.11235  0.116658  0  1.015669  0
H  H14  1  0.79277910  0.26053988  0.75387186  1  0  0.378818  0  0.862706  0  0  0.356395  0  0.932898  0  0  0.364503  0  0.925567  0  0.629532  0  0.317748  0.350622  0  0.938127  0
H  H15  1  0.20722004  0.73945941  0.24611856  1  0  0.378893  0  0.862508  0  0  0.356439  0  0.932736  0  0  0.364548  0  0.925407  0  0.629386  0  0.317765  0.350666  0  0.937966  0
H  H16  1  0.71314079  0.85042918  0.52767918  1  0  0.451919  0  0.821113  0  0  0.422038  0  0.888666  0  0  0.432287  0  0.873354  0  0.659108  0  0.323167  0.414709  0  0.899622  0
H  H17  1  0.28685074  0.14956457  0.47231979  1  0  0.451822  0  0.821071  0  0  0.42195  0  0.88875  0  0  0.432199  0  0.873439  0  0.658942  0  0.323119  0.414617  0  0.899713  0
H  H18  1  0.76917552  0.99071768  0.54060610  1  0  0.431528  0  0.83562  0  0  0.400977  0  0.913702  0  0  0.410885  0  0.901914  0  0.622276  0  0.317475  0.393861  0  0.922164  0
H  H19  1  0.23082017  0.00927514  0.45939168  1  0  0.431499  0  0.835693  0  0  0.400949  0  0.913766  0  0  0.410854  0  0.901988  0  0.622223  0  0.317462  0.393832  0  0.922225  0
H  H20  1  0.40571229  0.07012437  0.63349050  1  0  0.422226  0  0.881356  0  0  0.39074  0  0.947219  0  0  0.401302  0  0.931609  0  0.616518  0  0.300839  0.383236  0  0.9583  0
H  H21  1  0.59427677  0.92987307  0.36650591  1  0  0.422213  0  0.88136  0  0  0.390717  0  0.947252  0  0  0.401273  0  0.931655  0  0.616509  0  0.300846  0.383213  0  0.958334  0
H  H22  1  0.52961153  0.95436145  0.62188600  1  0  0.44554  0  0.839931  0  0  0.421733  0  0.890216  0  0  0.431969  0  0.875229  0  0.64465  0  0.30495  0.414372  0  0.901004  0
H  H23  1  0.47037770  0.04563785  0.37810927  1  0  0.445473  0  0.840022  0  0  0.421665  0  0.890313  0  0  0.431903  0  0.875324  0  0.644661  0  0.304946  0.414306  0  0.901097  0
H  H24  1  0.72937143  0.93448799  0.78767025  1  0  0.057728  0  0.915718  0  0  0.067684  0  0.981508  0  0  0.069328  0  0.977174  0  0.12689  0  0.137053  0.066201  0  0.984846  0
H  H25  1  0.27061700  0.06551778  0.21233207  1  0  0.057737  0  0.915649  0  0  0.067688  0  0.981446  0  0  0.069333  0  0.977108  0  0.127208  0  0.137025  0.066202  0  0.984785  0
H  H26  1  0.55586424  0.17743346  0.91011760  1  0  0.097625  0  0.930538  0  0  0.116505  0  0.996541  0  0  0.117187  0  0.995827  0  0.050486  0  0.100914  0.115867  0  0.997189  0
H  H27  1  0.44414020  0.82257693  0.08989102  1  0  0.097626  0  0.93061  0  0  0.116533  0  0.996587  0  0  0.117219  0  0.995867  0  0.050507  0  0.100931  0.115893  0  0.997236  0
H  H28  1  0.61659934  0.09543568  0.01096911  1  0  0.115037  0  0.945088  0  0  0.135247  0  1.005553  0  0  0.136478  0  1.005152  0  0.086408  0  0.10933  0.134204  0  1.006015  0
H  H29  1  0.38341066  0.90457378  0.98903847  1  0  0.11511  0  0.944994  0  0  0.1353  0  1.005492  0  0  0.136527  0  1.005099  0  0.08667  0  0.109364  0.134256  0  1.005955  0
H  H30  1  0.52533564  0.01232093  0.87844222  1  0  0.120858  0  0.9649  0  0  0.136609  0  1.033716  0  0  0.138679  0  1.032266  0  0.085681  0  0.11451  0.135026  0  1.034777  0
H  H31  1  0.47466455  0.98768946  0.12156668  1  0  0.120934  0  0.964856  0  0  0.136739  0  1.033626  0  0  0.13881  0  1.032174  0  0.085508  0  0.114562  0.135151  0  1.034681  0
H  H32  1  0.90813677  0.26825330  0.97971425  1  0  0.091936  0  0.96512  0  0  0.103842  0  1.047307  0  0  0.104687  0  1.046069  0  0.069561  0  0.097632  0.103055  0  1.048345  0
H  H33  1  0.09187236  0.73174692  0.02028708  1  0  0.091881  0  0.965142  0  0  0.1038  0  1.047318  0  0  0.104645  0  1.04609  0  0.06962  0  0.097599  0.103017  0  1.048352  0
H  H34  1  0.08601857  0.16086099  0.95679788  1  0  0.115045  0  0.945166  0  0  0.131711  0  1.00999  0  0  0.133971  0  1.007836  0  0.108701  0  0.11037  0.129927  0  1.011691  0
H  H35  1  0.91398631  0.83913922  0.04319853  1  0  0.115034  0  0.945322  0  0  0.131745  0  1.010088  0  0  0.134004  0  1.007936  0  0.108778  0  0.110339  0.129946  0  1.011805  0
H  H36  1  0.96536126  0.16273525  0.06163233  1  0  0.109846  0  0.945056  0  0  0.132314  0  1.003343  0  0  0.132899  0  1.00364  0  0.069833  0  0.11105  0.131734  0  1.003299  0
H  H37  1  0.03465087  0.83726681  0.93836744  1  0  0.109868  0  0.945041  0  0  0.132348  0  1.003303  0  0  0.132931  0  1.003598  0  0.069816  0  0.111082  0.131768  0  1.003256  0
C  C38  1  0.98831711  0.82053716  0.38790157  1  0  0.731459  0  3.852452  0  0  0.682482  0  4.144  0  0  0.718845  0  4.132547  0  1.603047  0  0.235049  0.657694  0  4.151058  0
C  C39  1  0.01168459  0.17945936  0.61209456  1  0  0.731529  0  3.852695  0  0  0.682607  0  4.14416  0  0  0.718957  0  4.132731  0  1.602324  0  0.235111  0.657823  0  4.151212  0
C  C40  1  0.97996725  0.68805823  0.32983791  1  0  -0.078204  0  3.766026  0  0  -0.053857  0  4.000785  0  0  -0.062828  0  4.022371  0  -0.036561  0  -0.01549  -0.048156  0  3.986384  0
C  C41  1  0.02003852  0.31193644  0.67015759  1  0  -0.078169  0  3.766023  0  0  -0.053879  0  4.000812  0  0  -0.062842  0  4.022399  0  -0.036817  0  -0.01551  -0.048183  0  3.986416  0
C  C42  1  0.89720631  0.65944685  0.22369609  1  0  -0.15623  0  3.724864  0  0  -0.189424  0  3.974085  0  0  -0.188583  0  3.992403  0  -0.117844  0  -0.086179  -0.189595  0  3.961611  0
C  C43  1  0.10279761  0.34054319  0.77629687  1  0  -0.156419  0  3.72503  0  0  -0.189586  0  3.974341  0  0  -0.188757  0  3.992667  0  -0.117957  0  -0.086252  -0.189761  0  3.961873  0
C  C44  1  0.89125700  0.53755052  0.16536537  1  0  0.141416  0  3.838018  0  0  0.150064  0  4.09344  0  0  0.146611  0  4.119809  0  0.310857  0  0.079583  0.152271  0  4.075468  0
C  C45  1  0.10873993  0.46244045  0.83462477  1  0  0.141704  0  3.837683  0  0  0.150211  0  4.093347  0  0  0.146751  0  4.119732  0  0.310625  0  0.079751  0.152417  0  4.075373  0
C  C46  1  0.96587285  0.44468813  0.21451698  1  0  -0.105021  0  3.657993  0  0  -0.14202  0  3.907646  0  0  -0.142053  0  3.929013  0  -0.070047  0  -0.06681  -0.141681  0  3.893102  0
C  C47  1  0.03412160  0.55530654  0.78548174  1  0  -0.105178  0  3.658078  0  0  -0.142114  0  3.907758  0  0  -0.142154  0  3.929146  0  -0.069844  0  -0.066851  -0.141772  0  3.89321  0
C  C48  1  0.05158394  0.47354085  0.32058142  1  0  -0.050211  0  3.709249  0  0  -0.022431  0  3.940783  0  0  -0.031053  0  3.964859  0  0.079162  0  -0.005821  -0.017107  0  3.924821  0
C  C49  1  0.94841467  0.52645290  0.67941906  1  0  -0.050159  0  3.709361  0  0  -0.022371  0  3.940825  0  0  -0.030993  0  3.964905  0  0.078562  0  -0.005853  -0.017046  0  3.924861  0
C  C50  1  0.06071856  0.59568868  0.37821293  1  0  -0.026927  0  3.598866  0  0  -0.066621  0  3.846757  0  0  -0.063676  0  3.863911  0  -0.025147  0  -0.051659  -0.068249  0  3.835204  0
C  C51  1  0.93928738  0.40430784  0.62178441  1  0  -0.027022  0  3.598893  0  0  -0.066598  0  3.846735  0  0  -0.063671  0  3.863869  0  -0.025151  0  -0.051638  -0.068224  0  3.835174  0
C  C52  1  0.13367948  0.37395165  0.37422964  1  0  0.67201  0  3.916103  0  0  0.624603  0  4.217461  0  0  0.657559  0  4.210467  0  1.615139  0  0.211812  0.602236  0  4.221295  0
C  C53  1  0.86632549  0.62604950  0.62577438  1  0  0.671983  0  3.915923  0  0  0.624547  0  4.217347  0  0  0.657503  0  4.210353  0  1.615911  0  0.21182  0.60218  0  4.221182  0
C  C54  1  0.37258960  0.72826100  0.72487587  1  0  0.634716  0  3.933042  0  0  0.590179  0  4.227157  0  0  0.623827  0  4.22113  0  1.576684  0  0.192038  0.567493  0  4.230121  0
C  C55  1  0.62740431  0.27174292  0.27513042  1  0  0.634661  0  3.933405  0  0  0.590154  0  4.227461  0  0  0.623802  0  4.221437  0  1.576377  0  0.192032  0.567468  0  4.230424  0
C  C56  1  0.47453601  0.62604210  0.76438160  1  0  -0.040228  0  3.709924  0  0  -0.012719  0  3.938862  0  0  -0.022335  0  3.961937  0  -0.038027  0  -0.004355  -0.006844  0  3.923638  0
C  C57  1  0.52546605  0.37395812  0.23562639  1  0  -0.040102  0  3.709853  0  0  -0.012591  0  3.938734  0  0  -0.022209  0  3.961811  0  -0.037717  0  -0.004384  -0.006715  0  3.92351  0
C  C58  1  0.46594372  0.50698166  0.70091928  1  0  -0.009552  0  3.551524  0  0  -0.04746  0  3.797578  0  0  -0.04301  0  3.814608  0  -0.047392  0  -0.042872  -0.05007  0  3.786059  0
C  C59  1  0.53406276  0.49302040  0.29908136  1  0  -0.009712  0  3.551576  0  0  -0.047635  0  3.79755  0  0  -0.043187  0  3.814586  0  -0.047412  0  -0.04287  -0.050244  0  3.786029  0
C  C60  1  0.55256160  0.41243827  0.74493465  1  0  -0.091473  0  3.79481  0  0  -0.065996  0  4.033245  0  0  -0.077214  0  4.058682  0  -0.011173  0  -0.013631  -0.058682  0  4.015991  0
C  C61  1  0.44743301  0.58757305  0.25506564  1  0  -0.091419  0  3.794657  0  0  -0.065748  0  4.032918  0  0  -0.076973  0  4.058358  0  -0.010957  0  -0.013519  -0.058426  0  4.01566  0
C  C62  1  0.64524027  0.43682308  0.84961571  1  0  -0.130194  0  3.718265  0  0  -0.169088  0  3.973196  0  0  -0.167903  0  3.993671  0  -0.035078  0  -0.077001  -0.169471  0  3.959224  0
C  C63  1  0.35475727  0.56317436  0.15038237  1  0  -0.130333  0  3.718331  0  0  -0.16931  0  3.973223  0  0  -0.16813  0  3.993706  0  -0.035016  0  -0.077062  -0.169693  0  3.959251  0
C  C64  1  0.65290554  0.55618033  0.91235200  1  0  0.155448  0  3.830688  0  0  0.16346  0  4.084154  0  0  0.16059  0  4.109357  0  0.319029  0  0.083918  0.165098  0  4.067147  0
C  C65  1  0.34709440  0.44381249  0.08764772  1  0  0.155529  0  3.831078  0  0  0.163581  0  4.084464  0  0  0.160711  0  4.109665  0  0.318766  0  0.083924  0.165222  0  4.067453  0
C  C66  1  0.56746597  0.65013750  0.86919549  1  0  -0.088325  0  3.63255  0  0  -0.124892  0  3.87816  0  0  -0.123337  0  3.896527  0  0.044688  0  -0.058086  -0.12556  0  3.86578  0
C  C67  1  0.43252317  0.34986087  0.13080778  1  0  -0.08841  0  3.632759  0  0  -0.124949  0  3.878348  0  0  -0.123392  0  3.896712  0  0.044655  0  -0.058018  -0.12562  0  3.865967  0
C  C68  1  0.53747638  0.28248455  0.68418929  1  0  0.668365  0  3.739117  0  0  0.620065  0  4.025986  0  0  0.653151  0  4.017399  0  1.489751  0  0.252051  0.597475  0  4.03151  0
C  C69  1  0.46253204  0.71752306  0.31580886  1  0  0.6684  0  3.739137  0  0  0.619875  0  4.026217  0  0  0.652983  0  4.017595  0  1.49031  0  0.251883  0.597287  0  4.031744  0
C  C70  1  0.85016846  0.99746853  0.83501540  1  0  0.420111  0  3.781045  0  0  0.343973  0  4.076169  0  0  0.373347  0  4.074667  0  1.366689  0  0.189503  0.324308  0  4.07649  0
C  C71  1  0.14982554  0.00253631  0.16498364  1  0  0.420077  0  3.781066  0  0  0.343959  0  4.076139  0  0  0.373333  0  4.074636  0  1.36635  0  0.189515  0.3243  0  4.076452  0
C  C72  1  0.61477642  0.09218555  0.92861713  1  0  -0.186938  0  3.634465  0  0  -0.286579  0  3.878792  0  0  -0.283588  0  3.888709  0  0.267732  0  -0.13083  -0.288283  0  3.87215  0
C  C73  1  0.38522917  0.90782207  0.07139185  1  0  -0.18711  0  3.63446  0  0  -0.286836  0  3.878765  0  0  -0.283846  0  3.88868  0  0.268054  0  -0.130983  -0.288531  0  3.872122  0
C  C74  1  0.95092993  0.17401596  0.98143539  1  0  -0.176142  0  3.628051  0  0  -0.276493  0  3.872347  0  0  -0.273047  0  3.882034  0  0.245243  0  -0.136465  -0.278502  0  3.865925  0
C  C75  1  0.04907441  0.82599351  0.01856340  1  0  -0.176003  0  3.628034  0  0  -0.276383  0  3.872261  0  0  -0.272939  0  3.881948  0  0.245261  0  -0.136312  -0.278383  0  3.865849  0
N  N76  1  0.80981400  0.50176295  0.05766329  1  0  -0.144969  0  2.996435  0  0  -0.121303  0  3.278597  0  0  -0.120189  0  3.28815  0  -0.469367  0  -0.146536  -0.122031  0  3.272234  0
N  N77  1  0.19018576  0.49822802  0.94233681  1  0  -0.145046  0  2.996098  0  0  -0.121359  0  3.278329  0  0  -0.120242  0  3.287883  0  -0.468867  0  -0.146582  -0.122084  0  3.271964  0
N  N78  1  0.73678026  0.58908300  0.01945802  1  0  -0.159582  0  3.015098  0  0  -0.133498  0  3.297554  0  0  -0.133704  0  3.307079  0  -0.498941  0  -0.150316  -0.133268  0  3.291219  0
N  N79  1  0.26321985  0.41091167  0.98054800  1  0  -0.159561  0  3.015517  0  0  -0.133484  0  3.297953  0  0  -0.133687  0  3.307479  0  -0.499168  0  -0.150301  -0.133253  0  3.291615  0
N  N80  1  0.80761402  0.08340231  0.91194736  1  0  -0.077636  0  3.495816  0  0  0.027327  0  3.727314  0  0  0.006942  0  3.752697  0  -1.241873  0  -0.278819  0.04092  0  3.709689  0
N  N81  1  0.19238431  0.91660345  0.08805677  1  0  -0.077621  0  3.495901  0  0  0.027339  0  3.7274  0  0  0.006954  0  3.752784  0  -1.242292  0  -0.27886  0.040931  0  3.70977  0
O  O82  1  0.07664062  0.85035890  0.48269123  1  0  -0.76017  0  2.095707  0  0  -0.715448  0  2.358145  0  0  -0.741542  0  2.343079  0  -1.220872  0  -0.410491  -0.696588  0  2.368256  0
O  O83  1  0.92335658  0.14963484  0.51730836  1  0  -0.760148  0  2.095948  0  0  -0.715422  0  2.358342  0  0  -0.741515  0  2.343281  0  -1.220116  0  -0.410509  -0.696562  0  2.368455  0
O  O84  1  0.91196195  0.89760656  0.33791485  1  0  -0.726374  0  2.075444  0  0  -0.679096  0  2.328416  0  0  -0.706526  0  2.317788  0  -1.196338  0  -0.396172  -0.659445  0  2.335372  0
O  O85  1  0.08804258  0.10238996  0.66208457  1  0  -0.726533  0  2.075385  0  0  -0.679284  0  2.328348  0  0  -0.706711  0  2.317731  0  -1.196322  0  -0.396263  -0.659641  0  2.335308  0
O  O86  1  0.07842861  0.26108913  0.32295996  1  0  -0.808213  0  2.058074  0  0  -0.762276  0  2.318238  0  0  -0.791624  0  2.308205  0  -1.210906  0  -0.46672  -0.740608  0  2.324242  0
O  O87  1  0.92156778  0.73891109  0.67705038  1  0  -0.80818  0  2.057972  0  0  -0.762251  0  2.318142  0  0  -0.791596  0  2.308116  0  -1.211117  0  -0.466758  -0.740597  0  2.324159  0
O  O88  1  0.24370642  0.40329812  0.46048337  1  0  -0.561577  0  1.890513  0  0  -0.52371  0  2.107935  0  0  -0.544898  0  2.100123  0  -1.159288  0  -0.300546  -0.508856  0  2.112792  0
O  O89  1  0.75630182  0.59670764  0.53951665  1  0  -0.561598  0  1.890425  0  0  -0.523718  0  2.107876  0  0  -0.544906  0  2.100065  0  -1.159259  0  -0.300518  -0.508858  0  2.112725  0
O  O90  1  0.34973999  0.82665463  0.79167306  1  0  -0.720298  0  1.961573  0  0  -0.681927  0  2.205901  0  0  -0.708049  0  2.19636  0  -1.189453  0  -0.389633  -0.663071  0  2.211788  0
O  O91  1  0.65024985  0.17335114  0.20833387  1  0  -0.720285  0  1.961842  0  0  -0.681908  0  2.206157  0  0  -0.708034  0  2.196619  0  -1.189249  0  -0.389561  -0.663046  0  2.212037  0
O  O92  1  0.30361053  0.71481384  0.62827584  1  0  -0.643209  0  1.962607  0  0  -0.602606  0  2.190859  0  0  -0.627194  0  2.182439  0  -1.165856  0  -0.363539  -0.585183  0  2.196211  0
O  O93  1  0.69638480  0.28519007  0.37172764  1  0  -0.643204  0  1.962648  0  0  -0.602638  0  2.190937  0  0  -0.627229  0  2.182517  0  -1.165751  0  -0.3636  -0.585211  0  2.196291  0
O  O94  1  0.40231610  0.23400434  0.61471501  1  0  -0.52197  0  2.019917  0  0  -0.466703  0  2.229808  0  0  -0.488749  0  2.221744  0  -1.15234  0  -0.245335  -0.451714  0  2.235431  0
O  O95  1  0.59769391  0.76600512  0.38527771  1  0  -0.522071  0  2.020135  0  0  -0.466703  0  2.230106  0  0  -0.488746  0  2.22202  0  -1.152999  0  -0.245305  -0.451749  0  2.235759  0
O  O96  1  0.67791007  0.20982017  0.71350604  1  0  -0.530797  0  2.105941  0  0  -0.477501  0  2.312417  0  0  -0.498448  0  2.301513  0  -1.153045  0  -0.325574  -0.462804  0  2.319622  0
O  O97  1  0.32209083  0.79018282  0.28648376  1  0  -0.530832  0  2.1056  0  0  -0.477478  0  2.312239  0  0  -0.498431  0  2.301318  0  -1.152947  0  -0.325529  -0.46277  0  2.319435  0
O  O98  1  0.75674001  0.92767703  0.58037193  1  0  -0.854445  0  1.873189  0  0  -0.807806  0  2.063049  0  0  -0.82693  0  2.03463  0  -1.244634  0  -0.570836  -0.793871  0  2.083093  0
O  O99  1  0.24325577  0.07231671  0.41962677  1  0  -0.854307  0  1.873166  0  0  -0.80765  0  2.063134  0  0  -0.826778  0  2.034717  0  -1.244395  0  -0.570779  -0.793745  0  2.083246  0
O  O100  1  0.40811652  0.98313464  0.63866963  1  0  -0.905338  0  1.892205  0  0  -0.864957  0  2.075615  0  0  -0.88383  0  2.042518  0  -1.253922  0  -0.634838  -0.851017  0  2.099076  0
O  O101  1  0.59187412  0.01686465  0.36132506  1  0  -0.905245  0  1.89219  0  0  -0.864849  0  2.075577  0  0  -0.883727  0  2.042471  0  -1.253959  0  -0.634844  -0.850909  0  2.099038  0
O  O102  1  0.01398214  0.98659837  0.81678914  1  0  -0.613898  0  2.08946  0  0  -0.571784  0  2.349044  0  0  -0.595248  0  2.339804  0  -1.177367  0  -0.373911  -0.554939  0  2.354901  0
O  O103  1  0.98600576  0.01340185  0.18320913  1  0  -0.613924  0  2.089425  0  0  -0.571824  0  2.349032  0  0  -0.595298  0  2.339797  0  -1.177463  0  -0.3739  -0.554973  0  2.354882  0
