# generated using pymatgen
data_AgH22C18N5O3
_symmetry_space_group_name_H-M   'P 1'
_cell_length_a   8.95215978
_cell_length_b   8.95198124
_cell_length_c   12.20457242
_cell_angle_alpha   97.15195040
_cell_angle_beta   97.15188175
_cell_angle_gamma   99.91908490
_symmetry_Int_Tables_number   1
_chemical_formula_structural   AgH22C18N5O3
_chemical_formula_sum   'Ag2 H44 C36 N10 O6'
_cell_volume   945.23515987
_cell_formula_units_Z   2
loop_
 _symmetry_equiv_pos_site_id
 _symmetry_equiv_pos_as_xyz
  1  'x, y, z'
loop_
 _atom_site_type_symbol
 _atom_site_label
 _atom_site_symmetry_multiplicity
 _atom_site_fract_x
 _atom_site_fract_y
 _atom_site_fract_z
 _atom_site_occupancy
 _atom_site_pbe_bader_charge
 _atom_site_pbe_bader_spin_density
 _atom_site_pbe_cm5_charge
 _atom_site_pbe_ddec_charge
 _atom_site_pbe_ddec_spin_density
 _atom_site_pbe_ddec_sum_bond_order
 _atom_site_pbe_magmom
Ag  Ag0  1  0.24952217  0.75047126  0.24999395  1  0.568591  0  0.487452  0.334414  0  1.920479  0
Ag  Ag1  1  0.75045496  0.24953609  0.74999519  1  0.568684  0  0.487385  0.334291  0  1.920518  0
H  H2  1  0.14559483  0.58271860  0.76813725  1  0.076131  0  0.098026  0.144125  0  1.019908  0
H  H3  1  0.41729888  0.85437358  0.73184622  1  0.075878  0  0.097966  0.143929  0  1.020003  0
H  H4  1  0.85439492  0.41729454  0.23185848  1  0.075897  0  0.097971  0.143979  0  1.019984  0
H  H5  1  0.58272988  0.14560761  0.26813541  1  0.076316  0  0.098008  0.144065  0  1.019936  0
H  H6  1  0.06279516  0.74391396  0.74527530  1  0.062877  0  0.092356  0.130748  0  1.01953  0
H  H7  1  0.25612723  0.93718207  0.75472777  1  0.063538  0  0.092371  0.130661  0  1.019479  0
H  H8  1  0.93719918  0.25610457  0.25472626  1  0.063285  0  0.092361  0.130655  0  1.019546  0
H  H9  1  0.74392218  0.06281209  0.24528069  1  0.06285  0  0.092326  0.130695  0  1.019546  0
H  H10  1  0.94269330  0.56342421  0.73720843  1  0.087484  0  0.096549  0.146588  0  1.02439  0
H  H11  1  0.43661311  0.05727151  0.76278636  1  0.087086  0  0.096564  0.146526  0  1.024507  0
H  H12  1  0.05729301  0.43659503  0.26278345  1  0.087139  0  0.096546  0.146526  0  1.024441  0
H  H13  1  0.56344318  0.94270707  0.23720738  1  0.087337  0  0.096561  0.146565  0  1.024458  0
H  H14  1  0.79137871  0.67724577  0.91009778  1  0.081057  0  0.105064  0.147104  0  1.026552  0
H  H15  1  0.32277431  0.20860942  0.58990111  1  0.081316  0  0.105048  0.147129  0  1.026654  0
H  H16  1  0.20859498  0.32276204  0.08988699  1  0.081506  0  0.105032  0.146998  0  1.026878  0
H  H17  1  0.67726018  0.79138864  0.41009979  1  0.081177  0  0.105049  0.146996  0  1.026718  0
H  H18  1  0.94526276  0.75412508  0.24466349  1  0.054901  0  0.086188  0.119764  0  1.04061  0
H  H19  1  0.24590424  0.05474729  0.25533343  1  0.053804  0  0.086192  0.119765  0  1.040458  0
H  H20  1  0.05471666  0.24589847  0.75532652  1  0.055048  0  0.08614  0.119674  0  1.040643  0
H  H21  1  0.75413138  0.94527238  0.74466545  1  0.055217  0  0.086189  0.119729  0  1.040722  0
H  H22  1  0.76832528  0.66002982  0.16166499  1  0.08881  0  0.092758  0.140755  0  1.028656  0
H  H23  1  0.34000239  0.23168267  0.33834847  1  0.088596  0  0.092736  0.140694  0  1.028769  0
H  H24  1  0.23165185  0.33998429  0.83833788  1  0.088951  0  0.092695  0.140571  0  1.028865  0
H  H25  1  0.66004013  0.76832818  0.66166744  1  0.088506  0  0.092768  0.140777  0  1.028629  0
H  H26  1  0.83203080  0.85741724  0.16340093  1  0.051056  0  0.092507  0.136212  0  1.008248  0
H  H27  1  0.14261391  0.16797560  0.33661078  1  0.051275  0  0.09253  0.136268  0  1.007915  0
H  H28  1  0.16793831  0.14259083  0.83658754  1  0.051101  0  0.092497  0.136142  0  1.008092  0
H  H29  1  0.85742401  0.83204113  0.66340197  1  0.051005  0  0.092477  0.136181  0  1.008325  0
H  H30  1  0.36187115  0.63463116  0.04698494  1  0.118711  0  0.111244  0.102812  0  1.021348  0
H  H31  1  0.36534693  0.63808683  0.45300875  1  0.103828  0  0.111288  0.102805  0  1.021393  0
H  H32  1  0.63809339  0.36536028  0.95302290  1  0.103969  0  0.111278  0.102782  0  1.02137  0
H  H33  1  0.63464972  0.36189949  0.54698681  1  0.104024  0  0.111224  0.102785  0  1.021357  0
H  H34  1  0.32442438  0.62578820  0.89997803  1  0.141494  0  0.115619  0.110985  0  1.026359  0
H  H35  1  0.37420877  0.67554120  0.60001547  1  0.141791  0  0.115602  0.110981  0  1.02628  0
H  H36  1  0.67554703  0.37419779  0.10002503  1  0.141711  0  0.115605  0.11094  0  1.026264  0
H  H37  1  0.62580622  0.32444975  0.39997973  1  0.141722  0  0.115582  0.111006  0  1.026364  0
H  H38  1  0.61392470  0.76812724  0.96990325  1  0.053329  0  0.101803  0.103744  0  1.014328  0
H  H39  1  0.23185599  0.38605353  0.53008673  1  0.053658  0  0.101736  0.103666  0  1.014482  0
H  H40  1  0.38604786  0.23184771  0.03008334  1  0.053786  0  0.101712  0.103655  0  1.014469  0
H  H41  1  0.76814983  0.61394130  0.46992601  1  0.053756  0  0.101733  0.103645  0  1.014426  0
H  H42  1  0.22243593  0.97526892  0.01434000  1  0.047547  0  0.101107  0.098809  0  1.031274  0
H  H43  1  0.02473026  0.77755600  0.48567394  1  0.047733  0  0.101115  0.098875  0  1.031357  0
H  H44  1  0.77752975  0.02471710  0.98565845  1  0.048013  0  0.101126  0.098763  0  1.031505  0
H  H45  1  0.97527671  0.22243567  0.51433042  1  0.047649  0  0.101125  0.098809  0  1.031344  0
C  C46  1  0.04809676  0.63778136  0.78270372  1  -0.093579  0  -0.235009  -0.433116  0  3.943662  0
C  C47  1  0.36225004  0.95187682  0.71729148  1  -0.093237  0  -0.234985  -0.432677  0  3.943523  0
C  C48  1  0.95189070  0.36223359  0.21729115  1  -0.09294  0  -0.23492  -0.432774  0  3.943698  0
C  C49  1  0.63778905  0.04810861  0.28270460  1  -0.093431  0  -0.23497  -0.433011  0  3.943737  0
C  C50  1  0.03425489  0.66974350  0.90309497  1  0.394424  0  0.103841  0.220394  0  3.977612  0
C  C51  1  0.33028273  0.96572258  0.59690508  1  0.393451  0  0.103831  0.220413  0  3.977984  0
C  C52  1  0.96571995  0.33026904  0.09690099  1  0.393407  0  0.103797  0.220366  0  3.977855  0
C  C53  1  0.66974717  0.03426560  0.40309533  1  0.394277  0  0.103837  0.220448  0  3.977787  0
C  C54  1  0.90639251  0.68780847  0.95407672  1  -0.050387  0  -0.127411  -0.355096  0  3.954382  0
C  C55  1  0.31221113  0.09358590  0.54592605  1  -0.049588  0  -0.127332  -0.355038  0  3.954727  0
C  C56  1  0.09357660  0.31219285  0.04591524  1  -0.050282  0  -0.127337  -0.354881  0  3.954905  0
C  C57  1  0.68781534  0.90640499  0.45407920  1  -0.05024  0  -0.127372  -0.354867  0  3.954627  0
C  C58  1  0.95726638  0.71692980  0.06997107  1  0.477343  0  0.092969  0.261559  0  4.042901  0
C  C59  1  0.28310436  0.04272406  0.43003183  1  0.477833  0  0.092922  0.261442  0  4.042615  0
C  C60  1  0.04270388  0.28307961  0.93002337  1  0.477826  0  0.092861  0.261296  0  4.042712  0
C  C61  1  0.71693586  0.95727960  0.56997175  1  0.477501  0  0.092898  0.261348  0  4.042836  0
C  C62  1  0.87135617  0.74781748  0.16459248  1  -0.069867  0  -0.240089  -0.424547  0  3.943291  0
C  C63  1  0.25221253  0.12864762  0.33541136  1  -0.069085  0  -0.24013  -0.424559  0  3.942835  0
C  C64  1  0.12861867  0.25219281  0.83539836  1  -0.070119  0  -0.239898  -0.424099  0  3.943034  0
C  C65  1  0.74782539  0.87136460  0.66459442  1  -0.069916  0  -0.24006  -0.424464  0  3.943318  0
C  C66  1  0.31464956  0.69235097  0.97985815  1  0.267899  0  -0.051092  -0.144906  0  3.923596  0
C  C67  1  0.30764644  0.68532299  0.52013856  1  0.282593  0  -0.051077  -0.14472  0  3.923515  0
C  C68  1  0.68532070  0.30764156  0.02014540  1  0.282562  0  -0.051086  -0.144648  0  3.923299  0
C  C69  1  0.69236052  0.31466755  0.47985750  1  0.282678  0  -0.050986  -0.1448  0  3.923608  0
C  C70  1  0.40732523  0.85314026  0.99052004  1  -0.031055  0  -0.011412  0.094111  0  3.962608  0
C  C71  1  0.14685950  0.59265430  0.50948005  1  -0.030551  0  -0.011455  0.094043  0  3.962832  0
C  C72  1  0.59264389  0.14685768  0.00948062  1  -0.03022  0  -0.011392  0.093954  0  3.962869  0
C  C73  1  0.85315091  0.40733690  0.49052049  1  -0.030717  0  -0.01143  0.094087  0  3.962741  0
C  C74  1  0.56372116  0.87020865  0.98292351  1  -0.033943  0  -0.089341  -0.11839  0  3.97177  0
C  C75  1  0.12978345  0.43625779  0.51707487  1  -0.03516  0  -0.089279  -0.118239  0  3.972097  0
C  C76  1  0.43625370  0.12978025  0.01707194  1  -0.034879  0  -0.089338  -0.118282  0  3.97223  0
C  C77  1  0.87022351  0.56373726  0.48293800  1  -0.034986  0  -0.089372  -0.11828  0  3.971908  0
C  C78  1  0.34406294  0.98506912  0.00787747  1  -0.031455  0  -0.096548  -0.150757  0  4.010556  0
C  C79  1  0.01493855  0.65592453  0.49213344  1  -0.031337  0  -0.096461  -0.150792  0  4.010687  0
C  C80  1  0.65590274  0.01493041  0.99212220  1  -0.032515  0  -0.096545  -0.150556  0  4.010637  0
C  C81  1  0.98507071  0.34406871  0.50787373  1  -0.03127  0  -0.096584  -0.150766  0  4.010639  0
N  N82  1  0.47412918  0.52589011  0.25000674  1  0.781032  0  0.089556  0.690484  0  4.458057  0
N  N83  1  0.52588122  0.47412811  0.75000937  1  0.781165  0  0.08955  0.690462  0  4.457907  0
N  N84  1  0.10872758  0.71592061  0.08894022  1  -0.719378  0  -0.279892  -0.271871  0  3.499272  0
N  N85  1  0.28410232  0.89125637  0.41105698  1  -0.720286  0  -0.279786  -0.271683  0  3.499153  0
N  N86  1  0.89124154  0.28408409  0.91105860  1  -0.720543  0  -0.279805  -0.271809  0  3.498985  0
N  N87  1  0.71592070  0.10874287  0.58893970  1  -0.719455  0  -0.279766  -0.27164  0  3.499119  0
N  N88  1  0.15394140  0.68707720  0.98710156  1  -0.82886  0  -0.15297  0.103031  0  3.756376  0
N  N89  1  0.31293300  0.84603556  0.51289524  1  -0.828664  0  -0.153057  0.102663  0  3.756971  0
N  N90  1  0.84602886  0.31292096  0.01289841  1  -0.828421  0  -0.152974  0.102989  0  3.756189  0
N  N91  1  0.68708200  0.15395539  0.48710078  1  -0.829484  0  -0.153016  0.10286  0  3.756726  0
O  O92  1  0.34765208  0.49348640  0.28753759  1  -0.5564  0  -0.198628  -0.450452  0  2.023769  0
O  O93  1  0.50653900  0.65234595  0.21244755  1  -0.556143  0  -0.198651  -0.450374  0  2.023593  0
O  O94  1  0.65233652  0.50653778  0.71245086  1  -0.556639  0  -0.198655  -0.450397  0  2.023606  0
O  O95  1  0.49347370  0.34765019  0.78754053  1  -0.555924  0  -0.198629  -0.450425  0  2.023577  0
O  O96  1  0.56626049  0.43377573  0.25004670  1  -0.526007  0  -0.192268  -0.448336  0  1.982193  0
O  O97  1  0.43376482  0.56625662  0.75003106  1  -0.526167  0  -0.192266  -0.448289  0  1.982127  0
