# generated using pymatgen
data_ZnH11C13NO4
_symmetry_space_group_name_H-M   'P 1'
_cell_length_a   9.58459933
_cell_length_b   10.94402510
_cell_length_c   11.00795035
_cell_angle_alpha   89.98595086
_cell_angle_beta   90.01188253
_cell_angle_gamma   89.22024965
_symmetry_Int_Tables_number   1
_chemical_formula_structural   ZnH11C13NO4
_chemical_formula_sum   'Zn2 H22 C26 N2 O8'
_cell_volume   1154.56200905
_cell_formula_units_Z   2
loop_
 _symmetry_equiv_pos_site_id
 _symmetry_equiv_pos_as_xyz
  1  'x, y, z'
loop_
 _atom_site_type_symbol
 _atom_site_label
 _atom_site_symmetry_multiplicity
 _atom_site_fract_x
 _atom_site_fract_y
 _atom_site_fract_z
 _atom_site_occupancy
 _atom_site_pbe_bader_charge
 _atom_site_pbe_bader_spin_density
 _atom_site_pbe_cm5_charge
 _atom_site_pbe_ddec_charge
 _atom_site_pbe_ddec_spin_density
 _atom_site_pbe_ddec_sum_bond_order
 _atom_site_pbe_magmom
Zn  Zn0  1  0.64146731  0.50163634  0.50027036  1  1.250366  0  0.656377  0.79309  0  2.469416  0
Zn  Zn1  1  0.35853662  0.49836133  0.49973153  1  1.243237  0  0.6564  0.793123  0  2.469388  0
H  H2  1  0.13611607  0.35991188  0.37316548  1  0.180035  0  0.141372  0.122986  0  0.958111  0
H  H3  1  0.86388577  0.64008764  0.62683641  1  0.18011  0  0.141381  0.122977  0  0.958169  0
H  H4  1  0.13209719  0.64023350  0.62634056  1  0.106596  0  0.140043  0.119052  0  0.965903  0
H  H5  1  0.86790569  0.35976784  0.37366041  1  0.106579  0  0.140044  0.119034  0  0.965916  0
H  H6  1  0.39448886  0.08557088  0.68453528  1  0.035878  0  0.096344  0.082935  0  1.002021  0
H  H7  1  0.60549839  0.91442786  0.31546387  1  0.036587  0  0.096379  0.08297  0  1.001974  0
H  H8  1  0.62970849  0.92353870  0.67705519  1  0.045766  0  0.093978  0.07819  0  1.005594  0
H  H9  1  0.37027771  0.07646096  0.32294487  1  0.045639  0  0.093972  0.078178  0  1.005717  0
H  H10  1  0.74334619  0.06737961  0.48634532  1  0.05842  0  0.092654  0.079037  0  1.001105  0
H  H11  1  0.25664209  0.93262003  0.51365474  1  0.058206  0  0.092691  0.079086  0  1.001375  0
H  H12  1  0.55946598  0.28665752  0.76981161  1  0.026416  0  0.091916  0.135222  0  1.016759  0
H  H13  1  0.67129630  0.23895513  0.88864330  1  0.012989  0  0.091772  0.125521  0  0.989663  0
H  H14  1  0.49258841  0.20020495  0.89241070  1  0.032971  0  0.088615  0.116902  0  1.004729  0
H  H15  1  0.44053482  0.71334201  0.23019027  1  0.026395  0  0.091888  0.135128  0  1.016794  0
H  H16  1  0.50741237  0.79979915  0.10759210  1  0.033007  0  0.088576  0.116829  0  1.004752  0
H  H17  1  0.32870766  0.76103797  0.11135314  1  0.013049  0  0.091763  0.125492  0  0.989733  0
H  H18  1  0.48078988  0.25932449  0.20367077  1  0.037536  0  0.090258  0.126914  0  1.002989  0
H  H19  1  0.58166386  0.19759128  0.08267577  1  0.026112  0  0.087937  0.118803  0  1.026138  0
H  H20  1  0.66010059  0.29152747  0.19431655  1  0.057105  0  0.08922  0.127729  0  1.001453  0
H  H21  1  0.51920884  0.74067597  0.79632748  1  0.037519  0  0.090287  0.126953  0  1.002953  0
H  H22  1  0.33990024  0.70846475  0.80568716  1  0.057169  0  0.089206  0.127705  0  1.001507  0
H  H23  1  0.41833590  0.80240826  0.91732248  1  0.02569  0  0.087921  0.118753  0  1.02618  0
C  C24  1  0.49990402  0.50164635  0.12491331  1  -0.01254  0  -0.023471  -0.148366  0  3.959443  0
C  C25  1  0.50011867  0.49835664  0.87508950  1  -0.014259  0  -0.023606  -0.148468  0  3.959359  0
C  C26  1  0.50057331  0.49837347  0.73859385  1  1.490316  0  0.218449  0.619287  0  4.165537  0
C  C27  1  0.49944418  0.50162865  0.26140804  1  1.490605  0  0.218412  0.619246  0  4.165625  0
C  C28  1  0.49641476  0.74043823  0.50464331  1  1.497247  0  0.211327  0.58861  0  4.193803  0
C  C29  1  0.50356518  0.25956057  0.49535493  1  1.496837  0  0.211295  0.588671  0  4.193518  0
C  C30  1  0.57246214  0.95902737  0.59824477  1  -0.026956  0  -0.077133  -0.067548  0  3.642889  0
C  C31  1  0.42752406  0.04097137  0.40175347  1  -0.026431  0  -0.077243  -0.067662  0  3.643013  0
C  C32  1  0.63557265  0.03629922  0.49229392  1  -0.030706  0  -0.082721  -0.069732  0  3.655752  0
C  C33  1  0.36441146  0.96369863  0.50770614  1  -0.030371  0  -0.082675  -0.069798  0  3.65599  0
C  C34  1  0.44096550  0.04562215  0.60264361  1  -0.004744  0  -0.074642  -0.063646  0  3.628196  0
C  C35  1  0.55902278  0.95437749  0.39735464  1  -0.005391  0  -0.074639  -0.063678  0  3.627923  0
C  C36  1  0.50548995  0.12379593  0.49634855  1  0.069678  0  -0.009798  -0.030872  0  3.654328  0
C  C37  1  0.49449728  0.87620554  0.50365151  1  0.069788  0  -0.009795  -0.030513  0  3.653894  0
C  C38  1  0.07371120  0.42183036  0.42923452  1  0.537669  0  0.081534  0.065147  0  3.858489  0
C  C39  1  0.92629063  0.57817190  0.57076646  1  0.537874  0  0.081533  0.065154  0  3.858428  0
C  C40  1  0.07150296  0.57813908  0.57055643  1  0.501225  0  0.082103  0.064831  0  3.862536  0
C  C41  1  0.92849992  0.42186226  0.42944364  1  0.501183  0  0.082129  0.064868  0  3.862488  0
C  C42  1  0.53260708  0.38950193  0.93725909  1  -0.019231  0  -0.013966  0.082007  0  3.953587  0
C  C43  1  0.46740833  0.61049655  0.06274099  1  -0.019574  0  -0.014033  0.081979  0  3.953732  0
C  C44  1  0.53251425  0.39148251  0.06507760  1  0.069393  0  -0.01557  0.079004  0  3.953115  0
C  C45  1  0.46749279  0.60852061  0.93492338  1  0.070982  0  -0.01552  0.079008  0  3.953051  0
C  C46  1  0.56536245  0.27327646  0.86832659  1  -0.023091  0  -0.238653  -0.395647  0  3.976651  0
C  C47  1  0.43464148  0.72672304  0.13167167  1  -0.02302  0  -0.238576  -0.395455  0  3.976705  0
C  C48  1  0.56555347  0.27877707  0.13931093  1  -0.067284  0  -0.241437  -0.395622  0  3.970476  0
C  C49  1  0.43444942  0.72122335  0.86068914  1  -0.066901  0  -0.241425  -0.395561  0  3.97052  0
N  N50  1  0.85665298  0.50003642  0.50015591  1  -1.187245  0  -0.291232  -0.136303  0  3.499301  0
N  N51  1  0.14334886  0.49996492  0.49984234  1  -1.187009  0  -0.291246  -0.136366  0  3.499509  0
O  O52  1  0.61900209  0.50100636  0.68634792  1  -1.16065  0  -0.318972  -0.552313  0  2.301496  0
O  O53  1  0.38102585  0.49899019  0.31365126  1  -1.160407  0  -0.318921  -0.552282  0  2.301773  0
O  O54  1  0.61748782  0.50385067  0.31447791  1  -1.159442  0  -0.319251  -0.552119  0  2.299642  0
O  O55  1  0.38254010  0.49615135  0.68552127  1  -1.158989  0  -0.31923  -0.552136  0  2.299865  0
O  O56  1  0.61669087  0.68890296  0.50571138  1  -1.161865  0  -0.325874  -0.556269  0  2.304082  0
O  O57  1  0.38329533  0.31109669  0.49428504  1  -1.161358  0  -0.325785  -0.556151  0  2.304016  0
O  O58  1  0.62045763  0.31394637  0.49718222  1  -1.179489  0  -0.321186  -0.556954  0  2.315685  0
O  O59  1  0.37953585  0.68605688  0.50282057  1  -1.17922  0  -0.321176  -0.556958  0  2.316231  0
