# generated using pymatgen
data_CdH14C16S2(N2O)2
_symmetry_space_group_name_H-M   'P 1'
_cell_length_a   5.69431312
_cell_length_b   12.56287101
_cell_length_c   14.39577693
_cell_angle_alpha   106.71156895
_cell_angle_beta   101.35707900
_cell_angle_gamma   103.17699543
_symmetry_Int_Tables_number   1
_chemical_formula_structural   CdH14C16S2(N2O)2
_chemical_formula_sum   'Cd2 H28 C32 S4 N8 O4'
_cell_volume   921.54006421
_cell_formula_units_Z   2
loop_
 _symmetry_equiv_pos_site_id
 _symmetry_equiv_pos_as_xyz
  1  'x, y, z'
loop_
 _atom_site_type_symbol
 _atom_site_label
 _atom_site_symmetry_multiplicity
 _atom_site_fract_x
 _atom_site_fract_y
 _atom_site_fract_z
 _atom_site_occupancy
 _atom_site_hle17_bader_spin_density
 _atom_site_hle17_ddec_charge
 _atom_site_hle17_ddec_spin_density
 _atom_site_hle17_ddec_sum_bond_order
 _atom_site_hle17_magmom
 _atom_site_hse06_10hf_bader_spin_density
 _atom_site_hse06_10hf_ddec_charge
 _atom_site_hse06_10hf_ddec_spin_density
 _atom_site_hse06_10hf_ddec_sum_bond_order
 _atom_site_hse06_10hf_magmom
 _atom_site_hse06_bader_spin_density
 _atom_site_hse06_ddec_charge
 _atom_site_hse06_ddec_spin_density
 _atom_site_hse06_ddec_sum_bond_order
 _atom_site_hse06_magmom
 _atom_site_pbe_bader_spin_density
 _atom_site_pbe_cm5_charge
 _atom_site_pbe_ddec_charge
 _atom_site_pbe_ddec_spin_density
 _atom_site_pbe_ddec_sum_bond_order
 _atom_site_pbe_magmom
Cd  Cd0  1  0.00000119  0.99999820  0.99999353  1  0  0.944158  0  2.003612  0  0  0.762755  0  2.468565  0  0  0.807174  0  2.432846  0  0  0.721703  0.731856  0  2.492522  0
Cd  Cd1  1  0.50001042  0.49999671  0.50000267  1  0  0.945026  0  2.000942  0  0  0.763676  0  2.465628  0  0  0.808075  0  2.42993  0  0  0.72171  0.732797  0  2.489574  0
H  H2  1  0.44108178  0.79910181  0.88370928  1  0  0.076703  0  0.962619  0  0  0.083344  0  1.030614  0  0  0.084912  0  1.030101  0  0  0.111352  0.082184  0  1.031006  0
H  H3  1  0.25817579  0.70066776  0.61638449  1  0  0.076903  0  0.962109  0  0  0.083422  0  1.030267  0  0  0.084985  0  1.029747  0  0  0.111468  0.082251  0  1.030694  0
H  H4  1  0.55893485  0.20091165  0.11629374  1  0  0.076649  0  0.962611  0  0  0.083292  0  1.030611  0  0  0.084858  0  1.030097  0  0  0.111344  0.082133  0  1.031001  0
H  H5  1  0.74184271  0.29932215  0.38361076  1  0  0.076944  0  0.96207  0  0  0.083427  0  1.030275  0  0  0.084991  0  1.029754  0  0  0.111445  0.082261  0  1.030697  0
H  H6  1  0.24327874  0.58582646  0.83110005  1  0  0.097686  0  0.997121  0  0  0.105301  0  1.065969  0  0  0.107697  0  1.066718  0  0  0.097423  0.103554  0  1.065609  0
H  H7  1  0.32626989  0.91384787  0.66862596  1  0  0.097594  0  0.99873  0  0  0.105004  0  1.067605  0  0  0.107337  0  1.068497  0  0  0.097716  0.103307  0  1.067146  0
H  H8  1  0.75670613  0.41418961  0.16890433  1  0  0.097708  0  0.997208  0  0  0.105346  0  1.066017  0  0  0.107738  0  1.066771  0  0  0.097445  0.103598  0  1.065658  0
H  H9  1  0.67372467  0.08614291  0.33137012  1  0  0.097642  0  0.998715  0  0  0.105082  0  1.067572  0  0  0.107414  0  1.068464  0  0  0.097727  0.103385  0  1.067118  0
H  H10  1  0.96830454  0.56262816  0.96954825  1  0  0.105561  0  0.981707  0  0  0.109255  0  1.055752  0  0  0.113752  0  1.051924  0  0  0.106664  0.105997  0  1.058701  0
H  H11  1  0.93811889  0.93736842  0.53087796  1  0  0.105891  0  0.982724  0  0  0.109221  0  1.057089  0  0  0.113725  0  1.053214  0  0  0.106563  0.105928  0  1.060032  0
H  H12  1  0.03165455  0.43736437  0.03045296  1  0  0.10555  0  0.981766  0  0  0.109217  0  1.055825  0  0  0.113717  0  1.051992  0  0  0.106642  0.10596  0  1.05877  0
H  H13  1  0.06189168  0.06262935  0.46912452  1  0  0.105881  0  0.982836  0  0  0.10929  0  1.057073  0  0  0.113776  0  1.053247  0  0  0.106583  0.105992  0  1.060022  0
H  H14  1  0.13384702  0.77826994  0.01961935  1  0  0.088802  0  0.957085  0  0  0.09489  0  1.022648  0  0  0.097369  0  1.020729  0  0  0.11436  0.093057  0  1.024115  0
H  H15  1  0.83749880  0.72181051  0.48093040  1  0  0.090006  0  0.957583  0  0  0.096064  0  1.023218  0  0  0.098596  0  1.021269  0  0  0.114849  0.094195  0  1.024714  0
H  H16  1  0.86614719  0.22172259  0.98038115  1  0  0.088767  0  0.957065  0  0  0.094846  0  1.022648  0  0  0.097325  0  1.020729  0  0  0.11433  0.093008  0  1.024118  0
H  H17  1  0.16254140  0.27818727  0.51907485  1  0  0.089994  0  0.957426  0  0  0.096068  0  1.023047  0  0  0.098597  0  1.021096  0  0  0.114864  0.094148  0  1.0246  0
H  H18  1  0.17599745  0.27099627  0.79661172  1  0  0.145786  0  0.932223  0  0  0.166723  0  0.985508  0  0  0.169307  0  0.9846  0  0  0.10186  0.164847  0  0.986209  0
H  H19  1  0.60955109  0.22883339  0.70295642  1  0  0.14549  0  0.932462  0  0  0.166441  0  0.985559  0  0  0.168978  0  0.984728  0  0  0.10188  0.164597  0  0.986219  0
H  H20  1  0.82396711  0.72900760  0.20339457  1  0  0.145874  0  0.93233  0  0  0.166785  0  0.985574  0  0  0.169363  0  0.984674  0  0  0.101895  0.164908  0  0.986279  0
H  H21  1  0.39046304  0.77116437  0.29704425  1  0  0.145484  0  0.932554  0  0  0.166396  0  0.985717  0  0  0.16893  0  0.984889  0  0  0.101868  0.164552  0  0.986371  0
H  H22  1  0.18527187  0.37514091  0.73382094  1  0  0.146441  0  0.944808  0  0  0.165847  0  1.006012  0  0  0.167247  0  1.005842  0  0  0.102181  0.164835  0  1.006141  0
H  H23  1  0.57602895  0.12457597  0.76566947  1  0  0.14652  0  0.944783  0  0  0.165769  0  1.005991  0  0  0.167164  0  1.005842  0  0  0.102359  0.164757  0  1.006115  0
H  H24  1  0.81469630  0.62486033  0.26617732  1  0  0.146545  0  0.944841  0  0  0.165882  0  1.006065  0  0  0.16728  0  1.00589  0  0  0.10218  0.164871  0  1.006194  0
H  H25  1  0.42400643  0.87542268  0.23433423  1  0  0.146505  0  0.944752  0  0  0.165772  0  1.005941  0  0  0.167167  0  1.005787  0  0  0.102383  0.16476  0  1.00607  0
H  H26  1  0.09217369  0.40074090  0.84605329  1  0  0.13829  0  0.945839  0  0  0.156695  0  1.011095  0  0  0.158279  0  1.011114  0  0  0.100311  0.155522  0  1.011163  0
H  H27  1  0.34618134  0.09905756  0.65324470  1  0  0.13802  0  0.94592  0  0  0.156096  0  1.011582  0  0  0.157713  0  1.011574  0  0  0.099764  0.154949  0  1.011609  0
H  H28  1  0.90780544  0.59927167  0.15394657  1  0  0.138368  0  0.94595  0  0  0.156691  0  1.011235  0  0  0.158273  0  1.011258  0  0  0.100274  0.155547  0  1.01127  0
H  H29  1  0.65382950  0.90093761  0.34676436  1  0  0.138044  0  0.945967  0  0  0.156099  0  1.011665  0  0  0.157711  0  1.011661  0  0  0.099778  0.154954  0  1.011691  0
C  C30  1  0.42202811  0.99555309  0.87427597  1  0  0.291181  0  4.026977  0  0  0.271752  0  4.33168  0  0  0.293495  0  4.345189  0  0  0.146447  0.256974  0  4.32219  0
C  C31  1  0.05099191  0.50424631  0.62555555  1  0  0.292225  0  4.027715  0  0  0.272779  0  4.332364  0  0  0.294517  0  4.345816  0  0  0.145394  0.258008  0  4.322918  0
C  C32  1  0.57796012  0.00444900  0.12571336  1  0  0.291403  0  4.027009  0  0  0.27197  0  4.331704  0  0  0.293715  0  4.34521  0  0  0.146536  0.257197  0  4.322211  0
C  C33  1  0.94901997  0.49576020  0.37445594  1  0  0.292453  0  4.027875  0  0  0.273015  0  4.332492  0  0  0.29475  0  4.345938  0  0  0.145564  0.258245  0  4.323053  0
C  C34  1  0.55142484  0.74357183  0.90171108  1  0  0.133368  0  3.67719  0  0  0.105576  0  3.92423  0  0  0.111723  0  3.943043  0  0  0.05005  0.101546  0  3.911413  0
C  C35  1  0.40647835  0.75625911  0.59841991  1  0  0.134209  0  3.677962  0  0  0.106864  0  3.924147  0  0  0.113003  0  3.943011  0  0  0.050149  0.102838  0  3.911318  0
C  C36  1  0.44857112  0.25643551  0.09828776  1  0  0.133464  0  3.677345  0  0  0.105652  0  3.924386  0  0  0.111802  0  3.943207  0  0  0.050088  0.101619  0  3.911565  0
C  C37  1  0.59354013  0.24373690  0.40157676  1  0  0.134058  0  3.67803  0  0  0.106727  0  3.924215  0  0  0.112868  0  3.943076  0  0  0.050166  0.102701  0  3.911388  0
C  C38  1  0.44218494  0.62349070  0.87211913  1  0  -0.108699  0  3.676624  0  0  -0.127885  0  3.916652  0  0  -0.134361  0  3.939616  0  0  -0.073232  -0.123623  0  3.901234  0
C  C39  1  0.44687311  0.87627821  0.62781932  1  0  -0.109508  0  3.678681  0  0  -0.12876  0  3.919228  0  0  -0.135205  0  3.942133  0  0  -0.074223  -0.124538  0  3.903818  0
C  C40  1  0.55780718  0.37652275  0.12788445  1  0  -0.108838  0  3.67674  0  0  -0.127983  0  3.916759  0  0  -0.134457  0  3.939709  0  0  -0.073286  -0.123722  0  3.901344  0
C  C41  1  0.55313122  0.12371171  0.37217789  1  0  -0.10948  0  3.678694  0  0  -0.128766  0  3.91921  0  0  -0.135213  0  3.942118  0  0  -0.074257  -0.124545  0  3.903813  0
C  C42  1  0.59077144  0.55501457  0.89564302  1  0  -0.005802  0  3.720033  0  0  0.011285  0  3.949472  0  0  0.010078  0  3.971768  0  0  -0.003031  0.012229  0  3.934409  0
C  C43  1  0.64095027  0.94484761  0.60435748  1  0  -0.005652  0  3.720126  0  0  0.01089  0  3.949844  0  0  0.009716  0  3.972026  0  0  -0.002008  0.011872  0  3.934769  0
C  C44  1  0.40920660  0.44498929  0.10436061  1  0  -0.005694  0  3.719772  0  0  0.011301  0  3.949405  0  0  0.010106  0  3.971683  0  0  -0.003072  0.012239  0  3.934333  0
C  C45  1  0.35905338  0.05514403  0.39563663  1  0  -0.005937  0  3.720133  0  0  0.010657  0  3.949825  0  0  0.009483  0  3.972014  0  0  -0.00209  0.01163  0  3.934758  0
C  C46  1  0.84418343  0.61131178  0.94880995  1  0  -0.113687  0  3.707443  0  0  -0.138554  0  3.961078  0  0  -0.143796  0  3.980886  0  0  -0.074837  -0.135109  0  3.947778  0
C  C47  1  0.78561297  0.88866116  0.55155048  1  0  -0.113549  0  3.708941  0  0  -0.137747  0  3.96261  0  0  -0.142948  0  3.982385  0  0  -0.075034  -0.134279  0  3.949342  0
C  C48  1  0.15578811  0.38868423  0.05118994  1  0  -0.113746  0  3.707381  0  0  -0.138536  0  3.961022  0  0  -0.143787  0  3.980835  0  0  -0.07482  -0.13509  0  3.947718  0
C  C49  1  0.21438581  0.11133225  0.44845070  1  0  -0.113506  0  3.708768  0  0  -0.137752  0  3.962423  0  0  -0.142966  0  3.98221  0  0  -0.075039  -0.134274  0  3.949139  0
C  C50  1  0.93827084  0.73145161  0.97671524  1  0  0.126864  0  3.679593  0  0  0.098957  0  3.930261  0  0  0.104708  0  3.948715  0  0  0.047745  0.095251  0  3.917566  0
C  C51  1  0.73139294  0.76855308  0.52372299  1  0  0.126348  0  3.682396  0  0  0.098006  0  3.933097  0  0  0.103689  0  3.95164  0  0  0.047909  0.094327  0  3.920353  0
C  C52  1  0.06172596  0.26854702  0.02328570  1  0  0.126946  0  3.679716  0  0  0.099053  0  3.930337  0  0  0.104799  0  3.9488  0  0  0.047779  0.095349  0  3.917637  0
C  C53  1  0.26863509  0.23144295  0.47627965  1  0  0.126493  0  3.681919  0  0  0.098122  0  3.932654  0  0  0.103814  0  3.951185  0  0  0.047939  0.094486  0  3.919931  0
C  C54  1  0.48989781  0.42486443  0.86752322  1  0  0.490058  0  3.662248  0  0  0.477397  0  3.929101  0  0  0.497123  0  3.932522  0  0  0.170199  0.463899  0  3.926604  0
C  C55  1  0.69826265  0.07492469  0.63212188  1  0  0.488859  0  3.662596  0  0  0.477189  0  3.928315  0  0  0.496935  0  3.931711  0  0  0.170117  0.463639  0  3.925892  0
C  C56  1  0.51006355  0.57514116  0.13247566  1  0  0.490211  0  3.662407  0  0  0.477404  0  3.929432  0  0  0.497123  0  3.932854  0  0  0.170325  0.463929  0  3.926897  0
C  C57  1  0.30168835  0.92505476  0.36787763  1  0  0.488857  0  3.664015  0  0  0.477181  0  3.92973  0  0  0.496912  0  3.933115  0  0  0.170206  0.463663  0  3.927262  0
C  C58  1  0.22013363  0.36397752  0.80789124  1  0  -0.432776  0  3.666437  0  0  -0.512975  0  3.895345  0  0  -0.518213  0  3.900424  0  0  -0.244619  -0.50904  0  3.891739  0
C  C59  1  0.54899190  0.13583883  0.69165184  1  0  -0.432081  0  3.663535  0  0  -0.511751  0  3.892288  0  0  -0.516991  0  3.897397  0  0  -0.244209  -0.507863  0  3.88866  0
C  C60  1  0.77984955  0.63602983  0.19211093  1  0  -0.433262  0  3.666586  0  0  -0.513196  0  3.895485  0  0  -0.51843  0  3.90057  0  0  -0.244764  -0.509293  0  3.891845  0
C  C61  1  0.45103075  0.86415720  0.30834900  1  0  -0.432231  0  3.66341  0  0  -0.511892  0  3.892177  0  0  -0.517119  0  3.89728  0  0  -0.244403  -0.508026  0  3.888564  0
S  S62  1  0.12079738  0.95406733  0.82026893  1  0  -0.326343  0  2.140753  0  0  -0.300172  0  2.45601  0  0  -0.31654  0  2.451823  0  0  -0.145392  -0.288659  0  2.45859  0
S  S63  1  0.84573657  0.54600045  0.67971522  1  0  -0.3269  0  2.139299  0  0  -0.300803  0  2.454656  0  0  -0.317111  0  2.450353  0  0  -0.145133  -0.289303  0  2.457286  0
S  S64  1  0.87919473  0.04594521  0.17971701  1  0  -0.326376  0  2.140709  0  0  -0.300208  0  2.455946  0  0  -0.316574  0  2.451757  0  0  -0.145382  -0.288692  0  2.458526  0
S  S65  1  0.15427773  0.45399733  0.32028921  1  0  -0.327042  0  2.138961  0  0  -0.30095  0  2.454309  0  0  -0.317257  0  2.450001  0  0  -0.145178  -0.28946  0  2.456958  0
N  N66  1  0.64206109  0.02618616  0.91207180  1  0  -0.539986  0  2.885372  0  0  -0.484606  0  3.159786  0  0  -0.505305  0  3.166656  0  0  -0.394409  -0.470426  0  3.154934  0
N  N67  1  0.20230218  0.47344709  0.58767392  1  0  -0.54117  0  2.885597  0  0  -0.486064  0  3.160354  0  0  -0.506692  0  3.16705  0  0  -0.393841  -0.471931  0  3.155618  0
N  N68  1  0.35793382  0.97381244  0.08791648  1  0  -0.540169  0  2.885513  0  0  -0.484782  0  3.159924  0  0  -0.505479  0  3.166789  0  0  -0.3945  -0.470601  0  3.155072  0
N  N69  1  0.79773134  0.52655418  0.41233237  1  0  -0.541252  0  2.885955  0  0  -0.486162  0  3.160719  0  0  -0.506789  0  3.167418  0  0  -0.393999  -0.472042  0  3.155999  0
N  N70  1  0.79497032  0.79686801  0.95324197  1  0  -0.315204  0  3.26051  0  0  -0.238981  0  3.517653  0  0  -0.25784  0  3.538744  0  0  -0.319336  -0.226029  0  3.502958  0
N  N71  1  0.54548618  0.70304706  0.54704409  1  0  -0.316785  0  3.263703  0  0  -0.239994  0  3.52013  0  0  -0.258906  0  3.541335  0  0  -0.320021  -0.227003  0  3.50536  0
N  N72  1  0.20504558  0.20313673  0.04675801  1  0  -0.315239  0  3.260702  0  0  -0.238999  0  3.51782  0  0  -0.257859  0  3.538911  0  0  -0.319345  -0.226046  0  3.503121  0
N  N73  1  0.45453846  0.29694547  0.45295459  1  0  -0.3168  0  3.263748  0  0  -0.240005  0  3.520173  0  0  -0.258919  0  3.541376  0  0  -0.320058  -0.227009  0  3.505387  0
O  O74  1  0.63161026  0.37128255  0.89394475  1  0  -0.470353  0  1.904898  0  0  -0.425263  0  2.105713  0  0  -0.44327  0  2.104609  0  0  -0.254723  -0.412978  0  2.106381  0
O  O75  1  0.86700908  0.12845497  0.60539827  1  0  -0.468921  0  1.907144  0  0  -0.424447  0  2.108095  0  0  -0.442499  0  2.10701  0  0  -0.254378  -0.412114  0  2.108736  0
O  O76  1  0.36835733  0.62871608  0.10605565  1  0  -0.47023  0  1.905509  0  0  -0.425081  0  2.106396  0  0  -0.443083  0  2.105291  0  0  -0.254647  -0.412809  0  2.10706  0
O  O77  1  0.13299834  0.87154098  0.39457295  1  0  -0.468615  0  1.909131  0  0  -0.424163  0  2.110116  0  0  -0.442203  0  2.109023  0  0  -0.254268  -0.411846  0  2.110743  0
