# generated using pymatgen
data_ZnH6C6I4N6O
_symmetry_space_group_name_H-M   'P 1'
_cell_length_a   8.45087706
_cell_length_b   10.91823971
_cell_length_c   18.89028798
_cell_angle_alpha   78.32999592
_cell_angle_beta   77.07611531
_cell_angle_gamma   67.20964418
_symmetry_Int_Tables_number   1
_chemical_formula_structural   ZnH6C6I4N6O
_chemical_formula_sum   'Zn4 H24 C24 I16 N24 O4'
_cell_volume   1553.17534447
_cell_formula_units_Z   4
loop_
 _symmetry_equiv_pos_site_id
 _symmetry_equiv_pos_as_xyz
  1  'x, y, z'
loop_
 _atom_site_type_symbol
 _atom_site_label
 _atom_site_symmetry_multiplicity
 _atom_site_fract_x
 _atom_site_fract_y
 _atom_site_fract_z
 _atom_site_occupancy
 _atom_site_hle17_bader_spin_density
 _atom_site_hle17_ddec_charge
 _atom_site_hle17_ddec_spin_density
 _atom_site_hle17_ddec_sum_bond_order
 _atom_site_hle17_magmom
 _atom_site_hse06_10hf_bader_spin_density
 _atom_site_hse06_10hf_ddec_charge
 _atom_site_hse06_10hf_ddec_spin_density
 _atom_site_hse06_10hf_ddec_sum_bond_order
 _atom_site_hse06_10hf_magmom
 _atom_site_hse06_bader_spin_density
 _atom_site_hse06_ddec_charge
 _atom_site_hse06_ddec_spin_density
 _atom_site_hse06_ddec_sum_bond_order
 _atom_site_hse06_magmom
 _atom_site_pbe_bader_spin_density
 _atom_site_pbe_cm5_charge
 _atom_site_pbe_ddec_charge
 _atom_site_pbe_ddec_spin_density
 _atom_site_pbe_ddec_sum_bond_order
 _atom_site_pbe_magmom
Zn  Zn0  1  0.42563290  0.64229966  0.66843584  1  0  0.811634  0  2.07456  0  0  0.633221  0  2.542474  0  0  0.675277  0  2.495848  0  0  0.588101  0.604509  0  2.573934  0
Zn  Zn1  1  0.73636582  0.85758789  0.83158125  1  0  0.812168  0  2.073484  0  0  0.634074  0  2.542044  0  0  0.676186  0  2.495318  0  0  0.588018  0.605451  0  2.572607  0
Zn  Zn2  1  0.57436605  0.35769801  0.33156233  1  0  0.811591  0  2.074591  0  0  0.633162  0  2.542533  0  0  0.675214  0  2.495908  0  0  0.588097  0.604447  0  2.57399  0
Zn  Zn3  1  0.26363177  0.14241278  0.16841790  1  0  0.812252  0  2.073396  0  0  0.634173  0  2.541939  0  0  0.676294  0  2.495215  0  0  0.588061  0.605553  0  2.572506  0
H  H4  1  0.24822122  0.09363239  0.69567375  1  0  0.111476  0  0.939115  0  0  0.122011  0  1.006141  0  0  0.124519  0  1.003659  0  0  0.109059  0.120045  0  1.008746  0
H  H5  1  0.03767225  0.40617497  0.80438500  1  0  0.111473  0  0.937332  0  0  0.121881  0  1.004526  0  0  0.124433  0  1.002066  0  0  0.109174  0.120054  0  1.00705  0
H  H6  1  0.75177986  0.90636226  0.30433000  1  0  0.111476  0  0.939146  0  0  0.122048  0  1.006152  0  0  0.124536  0  1.003689  0  0  0.109087  0.120083  0  1.008761  0
H  H7  1  0.96232044  0.59382571  0.19561419  1  0  0.111492  0  0.93734  0  0  0.12187  0  1.004544  0  0  0.124421  0  1.002084  0  0  0.109177  0.120044  0  1.007066  0
H  H8  1  0.41169485  0.94898732  0.66158468  1  0  0.107076  0  0.961313  0  0  0.110333  0  1.042261  0  0  0.113024  0  1.039195  0  0  0.110903  0.108372  0  1.045106  0
H  H9  1  0.02243428  0.55077203  0.83848704  1  0  0.106197  0  0.960543  0  0  0.109706  0  1.041219  0  0  0.112404  0  1.038186  0  0  0.110803  0.107658  0  1.044249  0
H  H10  1  0.58830682  0.05100833  0.33841794  1  0  0.107028  0  0.961415  0  0  0.110327  0  1.042306  0  0  0.11302  0  1.039237  0  0  0.110879  0.108369  0  1.045151  0
H  H11  1  0.97756159  0.44922765  0.16151194  1  0  0.106189  0  0.960486  0  0  0.109691  0  1.041183  0  0  0.112388  0  1.038148  0  0  0.11079  0.107643  0  1.044212  0
H  H12  1  0.42730743  0.82266291  0.55511697  1  0  0.341492  0  0.957559  0  0  0.303008  0  1.049005  0  0  0.314229  0  1.037826  0  0  0.285345  0.295272  0  1.056549  0
H  H13  1  0.80515153  0.67719071  0.94493865  1  0  0.34076  0  0.958039  0  0  0.302523  0  1.048904  0  0  0.313705  0  1.037797  0  0  0.284959  0.294355  0  1.056849  0
H  H14  1  0.57269385  0.17733575  0.44488321  1  0  0.34145  0  0.957579  0  0  0.302985  0  1.049023  0  0  0.314205  0  1.037844  0  0  0.285327  0.295251  0  1.056565  0
H  H15  1  0.19484590  0.32281397  0.05506217  1  0  0.34074  0  0.958063  0  0  0.302522  0  1.048916  0  0  0.313704  0  1.03781  0  0  0.284953  0.294358  0  1.056857  0
H  H16  1  0.69799382  0.56513719  0.52515223  1  0  0.071194  0  0.9763  0  0  0.084435  0  1.052402  0  0  0.085131  0  1.052042  0  0  0.078477  0.083878  0  1.052662  0
H  H17  1  0.78895595  0.93462278  0.97468922  1  0  0.07102  0  0.976332  0  0  0.084848  0  1.051245  0  0  0.085427  0  1.051081  0  0  0.078074  0.083505  0  1.053171  0
H  H18  1  0.30200353  0.43486150  0.47484458  1  0  0.071255  0  0.976233  0  0  0.084462  0  1.052334  0  0  0.085155  0  1.051973  0  0  0.078474  0.083905  0  1.052596  0
H  H19  1  0.21105697  0.06538092  0.02530509  1  0  0.070948  0  0.976284  0  0  0.084777  0  1.051211  0  0  0.085356  0  1.051047  0  0  0.078023  0.083432  0  1.053142  0
H  H20  1  0.63313170  0.71493517  0.46231296  1  0  0.075458  0  0.963889  0  0  0.087779  0  1.03707  0  0  0.088255  0  1.037361  0  0  0.078955  0.087357  0  1.036931  0
H  H21  1  0.81096796  0.78496536  0.03762846  1  0  0.074869  0  0.963292  0  0  0.087189  0  1.036698  0  0  0.087659  0  1.036996  0  0  0.078786  0.086882  0  1.0364  0
H  H22  1  0.36686459  0.28506351  0.53768491  1  0  0.075454  0  0.963938  0  0  0.087789  0  1.037086  0  0  0.088264  0  1.037379  0  0  0.07897  0.087366  0  1.036948  0
H  H23  1  0.18904093  0.21504133  0.96236830  1  0  0.07493  0  0.963302  0  0  0.087177  0  1.036831  0  0  0.087648  0  1.037126  0  0  0.078848  0.08687  0  1.036535  0
H  H24  1  0.49286688  0.62061883  0.49368140  1  0  0.061535  0  0.984678  0  0  0.074471  0  1.061056  0  0  0.075398  0  1.060859  0  0  0.073168  0.073741  0  1.061258  0
H  H25  1  0.60763686  0.87948199  0.00631213  1  0  0.061534  0  0.985141  0  0  0.074722  0  1.061277  0  0  0.075677  0  1.061054  0  0  0.073252  0.073887  0  1.061661  0
H  H26  1  0.50712842  0.37938085  0.50631692  1  0  0.061601  0  0.984645  0  0  0.074532  0  1.061024  0  0  0.075464  0  1.060815  0  0  0.073184  0.073799  0  1.061234  0
H  H27  1  0.39237134  0.12052870  0.99368684  1  0  0.061404  0  0.985179  0  0  0.074646  0  1.061277  0  0  0.075602  0  1.061054  0  0  0.073246  0.073812  0  1.061661  0
C  C28  1  0.17088820  0.92455677  0.71258866  1  0  0.316313  0  3.7043  0  0  0.290455  0  3.985799  0  0  0.300127  0  4.002247  0  0  0.220788  0.283555  0  3.976164  0
C  C29  1  0.80820538  0.57536139  0.78740357  1  0  0.315019  0  3.712747  0  0  0.291569  0  3.99112  0  0  0.301217  0  4.007699  0  0  0.221231  0.284843  0  3.981665  0
C  C30  1  0.82911239  0.07543990  0.28741206  1  0  0.316413  0  3.704337  0  0  0.290501  0  3.985969  0  0  0.300174  0  4.002412  0  0  0.220804  0.283602  0  3.97634  0
C  C31  1  0.19178747  0.42464129  0.21259560  1  0  0.315173  0  3.712627  0  0  0.291687  0  3.99102  0  0  0.301333  0  4.007597  0  0  0.221279  0.284955  0  3.98158  0
C  C32  1  0.27178990  0.00745852  0.66813087  1  0  -0.112882  0  3.665396  0  0  -0.174003  0  3.904372  0  0  -0.170729  0  3.91066  0  0  -0.046853  -0.182828  0  3.898017  0
C  C33  1  0.94751397  0.49239155  0.83190876  1  0  -0.111199  0  3.665432  0  0  -0.172545  0  3.903506  0  0  -0.169408  0  3.910089  0  0  -0.047102  -0.181832  0  3.897074  0
C  C34  1  0.72821183  0.99253813  0.33187116  1  0  -0.112867  0  3.665622  0  0  -0.174069  0  3.90472  0  0  -0.170783  0  3.911022  0  0  -0.046907  -0.182926  0  3.898364  0
C  C35  1  0.05248040  0.50761013  0.16808942  1  0  -0.111245  0  3.665423  0  0  -0.172527  0  3.903456  0  0  -0.169386  0  3.910031  0  0  -0.047089  -0.181796  0  3.897038  0
C  C36  1  0.21502813  0.04483824  0.48372996  1  0  0.10218  0  3.722111  0  0  0.093384  0  4.023919  0  0  0.102745  0  4.041275  0  0  0.038238  0.086622  0  4.014931  0
C  C37  1  0.74339007  0.45506821  0.01625134  1  0  0.10099  0  3.720931  0  0  0.092301  0  4.022926  0  0  0.101632  0  4.040304  0  0  0.037212  0.085373  0  4.014095  0
C  C38  1  0.78497177  0.95516243  0.51627297  1  0  0.102212  0  3.721953  0  0  0.093459  0  4.023754  0  0  0.102821  0  4.041113  0  0  0.038223  0.086696  0  4.014776  0
C  C39  1  0.25661406  0.54493145  0.98375031  1  0  0.101038  0  3.720872  0  0  0.092374  0  4.022847  0  0  0.101706  0  4.040224  0  0  0.037259  0.085451  0  4.014006  0
C  C40  1  0.09129238  0.17107728  0.49991323  1  0  -0.162731  0  3.762596  0  0  -0.148319  0  4.044858  0  0  -0.153959  0  4.068533  0  0  -0.102916  -0.14503  0  4.031269  0
C  C41  1  0.76196457  0.32891403  0.00001091  1  0  -0.161816  0  3.761394  0  0  -0.147247  0  4.043433  0  0  -0.152858  0  4.067027  0  0  -0.102206  -0.144301  0  4.030618  0
C  C42  1  0.90870840  0.82892037  0.50009044  1  0  -0.162778  0  3.76267  0  0  -0.148387  0  4.044984  0  0  -0.154026  0  4.06866  0  0  -0.102956  -0.145101  0  4.031402  0
C  C43  1  0.23803973  0.67108764  0.99999072  1  0  -0.161932  0  3.761613  0  0  -0.147367  0  4.043659  0  0  -0.152979  0  4.067252  0  0  -0.102261  -0.14442  0  4.030841  0
C  C44  1  0.09760683  0.17506301  0.57287493  1  0  0.022773  0  3.66599  0  0  0.012404  0  3.952909  0  0  0.021465  0  3.971897  0  0  0.030377  -0.000634  0  3.937986  0
C  C45  1  0.84538795  0.32492961  0.92707927  1  0  0.022  0  3.667445  0  0  0.011631  0  3.954235  0  0  0.020747  0  3.973198  0  0  0.029575  -0.001461  0  3.939185  0
C  C46  1  0.90239551  0.82493364  0.42712893  1  0  0.022847  0  3.666097  0  0  0.012476  0  3.952999  0  0  0.02153  0  3.971992  0  0  0.030379  -0.000591  0  3.938073  0
C  C47  1  0.15461135  0.67507106  0.07292183  1  0  0.02203  0  3.667591  0  0  0.011653  0  3.954404  0  0  0.020767  0  3.973373  0  0  0.029579  -0.00142  0  3.939367  0
C  C48  1  0.58710076  0.65285383  0.50914931  1  0  -0.033465  0  3.649853  0  0  -0.127427  0  3.908794  0  0  -0.120918  0  3.912712  0  0  -0.172037  -0.131572  0  3.905899  0
C  C49  1  0.74959954  0.84703594  0.99079248  1  0  -0.03175  0  3.649535  0  0  -0.126358  0  3.908139  0  0  -0.119807  0  3.91204  0  0  -0.171415  -0.130448  0  3.905804  0
C  C50  1  0.41289725  0.34714585  0.49084873  1  0  -0.033593  0  3.649839  0  0  -0.127506  0  3.908805  0  0  -0.120994  0  3.91272  0  0  -0.172052  -0.131651  0  3.905907  0
C  C51  1  0.25040773  0.15297075  0.00920469  1  0  -0.031612  0  3.64954  0  0  -0.126199  0  3.908079  0  0  -0.119655  0  3.911997  0  0  -0.171393  -0.130284  0  3.905727  0
I  I52  1  0.37602642  0.42636169  0.67851437  1  0  -0.429735  0  1.178523  0  0  -0.368172  0  1.542189  0  0  -0.390015  0  1.516244  0  0  -0.206155  -0.353673  0  1.560599  0
I  I53  1  0.48082793  0.07362597  0.82151439  1  0  -0.431607  0  1.178868  0  0  -0.371144  0  1.543173  0  0  -0.392496  0  1.517086  0  0  -0.206199  -0.354087  0  1.560301  0
I  I54  1  0.62397522  0.57363497  0.32148529  1  0  -0.429738  0  1.178546  0  0  -0.368167  0  1.542206  0  0  -0.390007  0  1.516266  0  0  -0.206163  -0.353669  0  1.560608  0
I  I55  1  0.51917142  0.92637570  0.17848611  1  0  -0.43165  0  1.178858  0  0  -0.371202  0  1.543163  0  0  -0.392554  0  1.517069  0  0  -0.206221  -0.354149  0  1.560295  0
I  I56  1  0.28217721  0.96291885  0.38626424  1  0  0.082153  0  1.42376  0  0  0.057592  0  1.75468  0  0  0.0583  0  1.744246  0  0  0.132146  0.057246  0  1.762752  0
I  I57  1  0.63129281  0.53682638  0.11378291  1  0  0.082003  0  1.424328  0  0  0.057308  0  1.755512  0  0  0.058007  0  1.745055  0  0  0.132079  0.057042  0  1.762872  0
I  I58  1  0.71782032  0.03708682  0.61373716  1  0  0.082157  0  1.42383  0  0  0.057594  0  1.754766  0  0  0.058314  0  1.744306  0  0  0.132179  0.057244  0  1.76284  0
I  I59  1  0.36870926  0.46317529  0.88621730  1  0  0.082024  0  1.42427  0  0  0.057309  0  1.755461  0  0  0.058007  0  1.745003  0  0  0.132083  0.057042  0  1.762828  0
I  I60  1  0.93512208  0.31977058  0.43123468  1  0  0.044747  0  1.545634  0  0  0.031694  0  1.880595  0  0  0.032396  0  1.871645  0  0  0.088484  0.030846  0  1.888638  0
I  I61  1  0.68580429  0.18025723  0.06861950  1  0  0.044261  0  1.545399  0  0  0.030798  0  1.881024  0  0  0.031518  0  1.872084  0  0  0.088459  0.030848  0  1.887921  0
I  I62  1  0.06487661  0.68022807  0.56876932  1  0  0.044761  0  1.545704  0  0  0.031725  0  1.880646  0  0  0.03244  0  1.87167  0  0  0.088522  0.03087  0  1.8887  0
I  I63  1  0.31419401  0.81974443  0.93138206  1  0  0.04429  0  1.545435  0  0  0.030824  0  1.881069  0  0  0.031544  0  1.872131  0  0  0.088467  0.030874  0  1.887962  0
I  I64  1  0.94793843  0.31983134  0.64091526  1  0  0.062558  0  1.571362  0  0  0.031034  0  1.920822  0  0  0.033719  0  1.908576  0  0  0.136684  0.029358  0  1.932577  0
I  I65  1  0.90871808  0.18015218  0.85902854  1  0  0.062735  0  1.571663  0  0  0.031646  0  1.921422  0  0  0.034252  0  1.90909  0  0  0.136545  0.029156  0  1.932373  0
I  I66  1  0.05206073  0.68016631  0.35908881  1  0  0.062542  0  1.571372  0  0  0.031016  0  1.920833  0  0  0.033706  0  1.908585  0  0  0.136676  0.029337  0  1.932592  0
I  I67  1  0.09127672  0.81984648  0.14097327  1  0  0.062748  0  1.571672  0  0  0.031666  0  1.921441  0  0  0.034273  0  1.90911  0  0  0.136548  0.029181  0  1.932387  0
N  N68  1  0.21594156  0.79139138  0.71214112  1  0  -0.312803  0  3.244673  0  0  -0.243929  0  3.550784  0  0  -0.261762  0  3.563069  0  0  -0.234211  -0.231903  0  3.542222  0
N  N69  1  0.71954955  0.70853603  0.78785664  1  0  -0.311586  0  3.241618  0  0  -0.24488  0  3.54877  0  0  -0.262695  0  3.561181  0  0  -0.234143  -0.232849  0  3.540159  0
N  N70  1  0.78405623  0.20860529  0.28785754  1  0  -0.31276  0  3.244763  0  0  -0.243838  0  3.550829  0  0  -0.261667  0  3.563111  0  0  -0.23413  -0.231812  0  3.542262  0
N  N71  1  0.28044496  0.29146665  0.21214331  1  0  -0.311617  0  3.2417  0  0  -0.244916  0  3.548859  0  0  -0.262732  0  3.561273  0  0  -0.234135  -0.23288  0  3.540242  0
N  N72  1  0.08706589  0.75625338  0.75445638  1  0  -0.067264  0  2.977462  0  0  -0.071432  0  3.268067  0  0  -0.068303  0  3.28195  0  0  -0.090884  -0.073204  0  3.258493  0
N  N73  1  0.59785157  0.74370988  0.74552073  1  0  -0.068046  0  2.973045  0  0  -0.071978  0  3.264208  0  0  -0.068917  0  3.278077  0  0  -0.090891  -0.073842  0  3.254708  0
N  N74  1  0.91293140  0.24374430  0.24554102  1  0  -0.067336  0  2.977504  0  0  -0.071512  0  3.268112  0  0  -0.068384  0  3.281996  0  0  -0.090916  -0.073284  0  3.258536  0
N  N75  1  0.40214446  0.25629180  0.25447823  1  0  -0.068166  0  2.973059  0  0  -0.072106  0  3.264209  0  0  -0.069039  0  3.278077  0  0  -0.090936  -0.073973  0  3.254712  0
N  N76  1  0.96947364  0.86553186  0.77913355  1  0  -0.1014  0  3.30815  0  0  -0.03761  0  3.615646  0  0  -0.047094  0  3.627989  0  0  -0.120474  -0.03122  0  3.606861  0
N  N77  1  0.61429536  0.63444480  0.72083288  1  0  -0.100199  0  3.306205  0  0  -0.035869  0  3.612962  0  0  -0.045225  0  3.625221  0  0  -0.120259  -0.029488  0  3.60449  0
N  N78  1  0.03052572  0.13446381  0.22086530  1  0  -0.101443  0  3.308292  0  0  -0.037647  0  3.615787  0  0  -0.04713  0  3.628131  0  0  -0.1205  -0.031259  0  3.607003  0
N  N79  1  0.38570089  0.36555989  0.27916546  1  0  -0.100099  0  3.305865  0  0  -0.035736  0  3.612576  0  0  -0.045099  0  3.624841  0  0  -0.120227  -0.029352  0  3.604105  0
N  N80  1  0.01645525  0.97273223  0.75467427  1  0  -0.270571  0  2.961038  0  0  -0.246381  0  3.241385  0  0  -0.256353  0  3.256053  0  0  -0.211609  -0.239349  0  3.231314  0
N  N81  1  0.74408520  0.52722143  0.74530211  1  0  -0.270993  0  2.965322  0  0  -0.247599  0  3.244511  0  0  -0.257571  0  3.259227  0  0  -0.21189  -0.240643  0  3.2348  0
N  N82  1  0.98354790  0.02726244  0.24532618  1  0  -0.270595  0  2.961058  0  0  -0.246388  0  3.24142  0  0  -0.25636  0  3.256087  0  0  -0.21163  -0.239356  0  3.23135  0
N  N83  1  0.25591089  0.47278125  0.25469625  1  0  -0.271079  0  2.96518  0  0  -0.247688  0  3.244387  0  0  -0.25766  0  3.259119  0  0  -0.21192  -0.240725  0  3.234657  0
N  N84  1  0.22227409  0.05753455  0.59538127  1  0  0.066654  0  3.523525  0  0  0.148997  0  3.743931  0  0  0.138467  0  3.770248  0  0  -0.144925  0.176886  0  3.699299  0
N  N85  1  0.87520346  0.44236496  0.90463756  1  0  0.06535  0  3.525009  0  0  0.147301  0  3.745955  0  0  0.136795  0  3.772321  0  0  -0.144733  0.176279  0  3.700216  0
N  N86  1  0.77772721  0.94246311  0.40462187  1  0  0.066526  0  3.523867  0  0  0.148919  0  3.744311  0  0  0.138396  0  3.770622  0  0  -0.144896  0.17688  0  3.699604  0
N  N87  1  0.12479198  0.55763571  0.09536253  1  0  0.065387  0  3.524974  0  0  0.147309  0  3.745942  0  0  0.136804  0  3.772305  0  0  -0.144729  0.176218  0  3.700299  0
N  N88  1  0.29359511  0.97667684  0.54148998  1  0  -0.275962  0  3.016395  0  0  -0.246549  0  3.281507  0  0  -0.255216  0  3.296061  0  0  -0.22775  -0.247742  0  3.268392  0
N  N89  1  0.81172626  0.52318704  0.95854745  1  0  -0.27386  0  3.014377  0  0  -0.244861  0  3.279743  0  0  -0.25344  0  3.294253  0  0  -0.226898  -0.246052  0  3.266213  0
N  N90  1  0.70640678  0.02332182  0.45851203  1  0  -0.275885  0  3.016317  0  0  -0.246551  0  3.281482  0  0  -0.255222  0  3.296039  0  0  -0.227765  -0.247771  0  3.268362  0
N  N91  1  0.18827402  0.47681263  0.04145319  1  0  -0.27389  0  3.014416  0  0  -0.244908  0  3.279798  0  0  -0.253487  0  3.294308  0  0  -0.226928  -0.246086  0  3.266288  0
O  O92  1  0.50999267  0.72841598  0.57052556  1  0  -0.509826  0  2.292728  0  0  -0.416029  0  2.564944  0  0  -0.438002  0  2.551062  0  0  -0.413028  -0.400761  0  2.573742  0
O  O93  1  0.80914934  0.77135433  0.92946980  1  0  -0.509925  0  2.292898  0  0  -0.415959  0  2.564862  0  0  -0.437939  0  2.550985  0  0  -0.41232  -0.400066  0  2.573137  0
O  O94  1  0.49000790  0.27158170  0.42947221  1  0  -0.509738  0  2.292657  0  0  -0.41598  0  2.564876  0  0  -0.437946  0  2.550986  0  0  -0.41301  -0.400709  0  2.573669  0
O  O95  1  0.19084685  0.22864935  0.07052914  1  0  -0.509936  0  2.292807  0  0  -0.415998  0  2.564775  0  0  -0.437977  0  2.550897  0  0  -0.412346  -0.400106  0  2.573046  0
