# generated using pymatgen
data_HgH9C11N3Cl2O
_symmetry_space_group_name_H-M   'P 1'
_cell_length_a   7.41491904
_cell_length_b   11.03502243
_cell_length_c   15.71098459
_cell_angle_alpha   89.99956938
_cell_angle_beta   93.26285394
_cell_angle_gamma   90.00035243
_symmetry_Int_Tables_number   1
_chemical_formula_structural   HgH9C11N3Cl2O
_chemical_formula_sum   'Hg4 H36 C44 N12 Cl8 O4'
_cell_volume   1283.44848638
_cell_formula_units_Z   4
loop_
 _symmetry_equiv_pos_site_id
 _symmetry_equiv_pos_as_xyz
  1  'x, y, z'
loop_
 _atom_site_type_symbol
 _atom_site_label
 _atom_site_symmetry_multiplicity
 _atom_site_fract_x
 _atom_site_fract_y
 _atom_site_fract_z
 _atom_site_occupancy
 _atom_site_hle17_bader_spin_density
 _atom_site_hle17_ddec_charge
 _atom_site_hle17_ddec_spin_density
 _atom_site_hle17_ddec_sum_bond_order
 _atom_site_hle17_magmom
 _atom_site_hse06_10hf_bader_spin_density
 _atom_site_hse06_10hf_ddec_charge
 _atom_site_hse06_10hf_ddec_spin_density
 _atom_site_hse06_10hf_ddec_sum_bond_order
 _atom_site_hse06_10hf_magmom
 _atom_site_hse06_bader_spin_density
 _atom_site_hse06_ddec_charge
 _atom_site_hse06_ddec_spin_density
 _atom_site_hse06_ddec_sum_bond_order
 _atom_site_hse06_magmom
 _atom_site_pbe_bader_spin_density
 _atom_site_pbe_cm5_charge
 _atom_site_pbe_ddec_charge
 _atom_site_pbe_ddec_spin_density
 _atom_site_pbe_ddec_sum_bond_order
 _atom_site_pbe_magmom
Hg  Hg0  1  0.39888347  0.83239863  0.02727451  1  0  0.797372  0  2.055548  0  0  0.65778  0  2.541896  0  0  0.703665  0  2.509304  0  0  0.528024  0.626099  0  2.564173  0
Hg  Hg1  1  0.60111709  0.33240225  0.47272289  1  0  0.79738  0  2.055575  0  0  0.657785  0  2.541922  0  0  0.703678  0  2.509321  0  0  0.528053  0.626106  0  2.564194  0
Hg  Hg2  1  0.60112268  0.16760430  0.97272598  1  0  0.797394  0  2.055565  0  0  0.657814  0  2.54191  0  0  0.703701  0  2.509313  0  0  0.528029  0.626136  0  2.564183  0
Hg  Hg3  1  0.39888511  0.66759977  0.52728008  1  0  0.797398  0  2.055604  0  0  0.657811  0  2.541952  0  0  0.703703  0  2.509355  0  0  0.528034  0.626129  0  2.564222  0
H  H4  1  0.10662539  0.41585162  0.86829363  1  0  0.086692  0  0.9485  0  0  0.09341  0  1.013613  0  0  0.096313  0  1.01221  0  0  0.110074  0.091416  0  1.014682  0
H  H5  1  0.89335278  0.91586073  0.63169469  1  0  0.086688  0  0.948553  0  0  0.093427  0  1.013658  0  0  0.096323  0  1.01225  0  0  0.110059  0.091435  0  1.014724  0
H  H6  1  0.89337241  0.58414858  0.13170099  1  0  0.086731  0  0.94854  0  0  0.09342  0  1.013686  0  0  0.096313  0  1.012279  0  0  0.110053  0.091424  0  1.014756  0
H  H7  1  0.10662358  0.08414854  0.36830337  1  0  0.086623  0  0.948615  0  0  0.093337  0  1.013721  0  0  0.096235  0  1.012316  0  0  0.110037  0.091348  0  1.014783  0
H  H8  1  0.31206818  0.54374525  0.96460515  1  0  0.085448  0  0.94689  0  0  0.086083  0  1.022472  0  0  0.089581  0  1.019334  0  0  0.104497  0.083518  0  1.024932  0
H  H9  1  0.68791518  0.04377106  0.53539160  1  0  0.085515  0  0.946776  0  0  0.086023  0  1.022413  0  0  0.089503  0  1.019312  0  0  0.104472  0.083462  0  1.024886  0
H  H10  1  0.68792835  0.45625042  0.03539136  1  0  0.085465  0  0.94684  0  0  0.08609  0  1.022407  0  0  0.089579  0  1.019288  0  0  0.104488  0.08352  0  1.02487  0
H  H11  1  0.31207203  0.95624637  0.46460793  1  0  0.085498  0  0.94684  0  0  0.086085  0  1.022466  0  0  0.08958  0  1.019334  0  0  0.104498  0.083521  0  1.024935  0
H  H12  1  0.91365647  0.80889137  0.97097123  1  0  0.099888  0  0.94722  0  0  0.100467  0  1.023254  0  0  0.104208  0  1.019813  0  0  0.1123  0.097652  0  1.026065  0
H  H13  1  0.08634847  0.30890478  0.52903404  1  0  0.099973  0  0.947181  0  0  0.100521  0  1.02325  0  0  0.104267  0  1.019801  0  0  0.112321  0.09771  0  1.02605  0
H  H14  1  0.08634441  0.19110612  0.02903235  1  0  0.099903  0  0.947212  0  0  0.100471  0  1.02326  0  0  0.104213  0  1.019818  0  0  0.112312  0.097656  0  1.02607  0
H  H15  1  0.91366307  0.69109633  0.47096655  1  0  0.099953  0  0.947142  0  0  0.100516  0  1.023235  0  0  0.104262  0  1.019786  0  0  0.112327  0.097703  0  1.02604  0
H  H16  1  0.34259679  0.81293628  0.82173134  1  0  0.10595  0  1.000853  0  0  0.110086  0  1.07262  0  0  0.114016  0  1.069603  0  0  0.091847  0.10724  0  1.074929  0
H  H17  1  0.65741746  0.31294323  0.67826962  1  0  0.105961  0  1.000777  0  0  0.110052  0  1.072617  0  0  0.113983  0  1.069598  0  0  0.09179  0.107204  0  1.074927  0
H  H18  1  0.65741584  0.18707118  0.17826290  1  0  0.106012  0  1.000726  0  0  0.110139  0  1.072516  0  0  0.114072  0  1.06949  0  0  0.091846  0.107291  0  1.074818  0
H  H19  1  0.34257948  0.68705607  0.32173644  1  0  0.106017  0  1.000747  0  0  0.110124  0  1.072571  0  0  0.114057  0  1.069544  0  0  0.091852  0.107278  0  1.074878  0
H  H20  1  0.04277741  0.83055994  0.74763713  1  0  0.08931  0  0.949437  0  0  0.101289  0  1.008113  0  0  0.103651  0  1.007259  0  0  0.097926  0.099551  0  1.008885  0
H  H21  1  0.95723568  0.33055648  0.75236498  1  0  0.089275  0  0.949521  0  0  0.101288  0  1.008163  0  0  0.103654  0  1.007308  0  0  0.097912  0.099547  0  1.008934  0
H  H22  1  0.95723913  0.16944661  0.25235399  1  0  0.089284  0  0.949389  0  0  0.101283  0  1.008054  0  0  0.103649  0  1.0072  0  0  0.097927  0.099542  0  1.008829  0
H  H23  1  0.04276252  0.66943739  0.24763919  1  0  0.089333  0  0.949456  0  0  0.101296  0  1.008137  0  0  0.103663  0  1.007281  0  0  0.097914  0.099555  0  1.008905  0
H  H24  1  0.92259933  0.66449554  0.65151891  1  0  0.091898  0  0.967737  0  0  0.099509  0  1.034665  0  0  0.102513  0  1.033762  0  0  0.086289  0.097275  0  1.035554  0
H  H25  1  0.07739749  0.16448652  0.84848380  1  0  0.091863  0  0.967808  0  0  0.09949  0  1.03471  0  0  0.102498  0  1.033805  0  0  0.086313  0.097259  0  1.035601  0
H  H26  1  0.07740941  0.33550557  0.34847908  1  0  0.091819  0  0.967787  0  0  0.099434  0  1.03472  0  0  0.10244  0  1.033813  0  0  0.086251  0.097201  0  1.035608  0
H  H27  1  0.92260185  0.83550009  0.15151530  1  0  0.091862  0  0.96774  0  0  0.099411  0  1.034763  0  0  0.102408  0  1.033858  0  0  0.086295  0.097182  0  1.035652  0
H  H28  1  0.11276912  0.48141415  0.63053413  1  0  0.092576  0  0.970197  0  0  0.098573  0  1.038929  0  0  0.101227  0  1.037959  0  0  0.090285  0.096559  0  1.039843  0
H  H29  1  0.88721674  0.98140532  0.86946289  1  0  0.092604  0  0.970234  0  0  0.098648  0  1.038891  0  0  0.101298  0  1.03793  0  0  0.090344  0.096645  0  1.039804  0
H  H30  1  0.88723967  0.51858696  0.36946513  1  0  0.092568  0  0.970234  0  0  0.098556  0  1.038975  0  0  0.101206  0  1.038014  0  0  0.090273  0.096568  0  1.039863  0
H  H31  1  0.11278374  0.01857948  0.13053113  1  0  0.092617  0  0.970206  0  0  0.098624  0  1.038911  0  0  0.101274  0  1.037949  0  0  0.090312  0.096594  0  1.039844  0
H  H32  1  0.41288940  0.46232787  0.70535679  1  0  0.117781  0  0.964548  0  0  0.126363  0  1.027017  0  0  0.129776  0  1.025753  0  0  0.099477  0.123945  0  1.028013  0
H  H33  1  0.58709359  0.96233128  0.79464029  1  0  0.117811  0  0.964516  0  0  0.12637  0  1.027014  0  0  0.129781  0  1.025749  0  0  0.099469  0.123936  0  1.028036  0
H  H34  1  0.58711159  0.53767143  0.29464935  1  0  0.117732  0  0.964669  0  0  0.126363  0  1.027088  0  0  0.129778  0  1.025822  0  0  0.099452  0.123903  0  1.028133  0
H  H35  1  0.41290558  0.03765987  0.20535499  1  0  0.117763  0  0.964605  0  0  0.126412  0  1.026987  0  0  0.129823  0  1.025723  0  0  0.099503  0.123963  0  1.028029  0
H  H36  1  0.63618789  0.54095931  0.79919520  1  0  0.302857  0  0.884026  0  0  0.280482  0  0.956116  0  0  0.289019  0  0.948747  0  0  0.316091  0.274283  0  0.961657  0
H  H37  1  0.36381315  0.04096028  0.70080505  1  0  0.302835  0  0.884012  0  0  0.280481  0  0.956099  0  0  0.289016  0  0.948733  0  0  0.316077  0.274284  0  0.961646  0
H  H38  1  0.36381421  0.45904271  0.20080522  1  0  0.302817  0  0.884065  0  0  0.280425  0  0.95615  0  0  0.288961  0  0.948783  0  0  0.316071  0.274224  0  0.96169  0
H  H39  1  0.63618630  0.95903359  0.29919660  1  0  0.302866  0  0.883812  0  0  0.28039  0  0.956059  0  0  0.288926  0  0.948689  0  0  0.31601  0.27419  0  0.961605  0
C  C40  1  0.06248058  0.50394639  0.89061621  1  0  0.08803  0  3.688833  0  0  0.063234  0  3.95222  0  0  0.063759  0  3.969559  0  0  0.05459  0.062687  0  3.940516  0
C  C41  1  0.93750361  0.00395704  0.60937630  1  0  0.08805  0  3.688822  0  0  0.063179  0  3.952277  0  0  0.06372  0  3.969595  0  0  0.054563  0.062636  0  3.940578  0
C  C42  1  0.93751727  0.49605382  0.10937968  1  0  0.088103  0  3.688745  0  0  0.063309  0  3.952157  0  0  0.063852  0  3.969477  0  0  0.054657  0.06276  0  3.940455  0
C  C43  1  0.06248090  0.99605042  0.39062317  1  0  0.08814  0  3.689085  0  0  0.063361  0  3.952433  0  0  0.063896  0  3.969765  0  0  0.054631  0.062819  0  3.940728  0
C  C44  1  0.17674176  0.57476359  0.94426791  1  0  0.085342  0  3.680002  0  0  0.055493  0  3.941156  0  0  0.060239  0  3.957906  0  0  0.049589  0.052394  0  3.929669  0
C  C45  1  0.82324455  0.07478159  0.55572809  1  0  0.08535  0  3.679842  0  0  0.055682  0  3.941008  0  0  0.060427  0  3.95775  0  0  0.049701  0.052568  0  3.929558  0
C  C46  1  0.82325612  0.42523299  0.05572862  1  0  0.085321  0  3.679855  0  0  0.055513  0  3.941014  0  0  0.060257  0  3.957757  0  0  0.049617  0.052415  0  3.929534  0
C  C47  1  0.17674137  0.92523131  0.44427268  1  0  0.08534  0  3.679978  0  0  0.055528  0  3.941124  0  0  0.060272  0  3.957874  0  0  0.049596  0.052419  0  3.929669  0
C  C48  1  0.95835301  0.72111650  0.94797706  1  0  0.079874  0  3.656063  0  0  0.043506  0  3.911564  0  0  0.047972  0  3.929081  0  0  0.05916  0.040565  0  3.900007  0
C  C49  1  0.04164822  0.22113040  0.55202224  1  0  0.079632  0  3.656034  0  0  0.043327  0  3.911501  0  0  0.04779  0  3.929021  0  0  0.059138  0.040375  0  3.899952  0
C  C50  1  0.04164906  0.27888189  0.05202272  1  0  0.079815  0  3.656077  0  0  0.043457  0  3.911584  0  0  0.047923  0  3.929098  0  0  0.059137  0.04051  0  3.900033  0
C  C51  1  0.95835390  0.77887434  0.44797882  1  0  0.079808  0  3.655997  0  0  0.043423  0  3.911515  0  0  0.047891  0  3.929026  0  0  0.059151  0.040494  0  3.899955  0
C  C52  1  0.84565645  0.65023587  0.89341739  1  0  0.04846  0  3.76955  0  0  0.05998  0  4.0131  0  0  0.055643  0  4.033425  0  0  0.118435  0.062483  0  3.999419  0
C  C53  1  0.15433866  0.15024240  0.60657963  1  0  0.048713  0  3.769476  0  0  0.060208  0  4.012955  0  0  0.055869  0  4.033285  0  0  0.118468  0.062721  0  3.999262  0
C  C54  1  0.15434286  0.34976525  0.10658107  1  0  0.048535  0  3.7696  0  0  0.060038  0  4.013129  0  0  0.055698  0  4.033457  0  0  0.118494  0.062545  0  3.999439  0
C  C55  1  0.84565806  0.84975780  0.39342133  1  0  0.048777  0  3.769473  0  0  0.060266  0  4.012971  0  0  0.055927  0  4.033297  0  0  0.11846  0.062733  0  3.999336  0
C  C56  1  0.66285364  0.69653188  0.86402742  1  0  0.515166  0  3.834932  0  0  0.466284  0  4.116074  0  0  0.496439  0  4.114872  0  0  0.240606  0.446161  0  4.116081  0
C  C57  1  0.33714462  0.19653252  0.63597068  1  0  0.515124  0  3.83486  0  0  0.466298  0  4.115972  0  0  0.496452  0  4.11477  0  0  0.240636  0.446182  0  4.115968  0
C  C58  1  0.33714170  0.30347105  0.13597288  1  0  0.51508  0  3.834944  0  0  0.466228  0  4.115996  0  0  0.496382  0  4.114793  0  0  0.240547  0.446112  0  4.115993  0
C  C59  1  0.66285493  0.80346588  0.36403351  1  0  0.514861  0  3.835403  0  0  0.466086  0  4.116378  0  0  0.496247  0  4.115178  0  0  0.240596  0.445977  0  4.116383  0
C  C60  1  0.39800092  0.63637427  0.76916659  1  0  0.246523  0  3.802721  0  0  0.244008  0  4.045205  0  0  0.251256  0  4.068433  0  0  0.089978  0.239148  0  4.0292  0
C  C61  1  0.60199550  0.13637682  0.73083244  1  0  0.246518  0  3.80288  0  0  0.244065  0  4.045309  0  0  0.251315  0  4.068529  0  0  0.089979  0.239201  0  4.029308  0
C  C62  1  0.60200525  0.36362956  0.23083454  1  0  0.246583  0  3.802784  0  0  0.244035  0  4.04526  0  0  0.251284  0  4.068484  0  0  0.089973  0.239172  0  4.029249  0
C  C63  1  0.39799990  0.86361523  0.26916914  1  0  0.246286  0  3.802605  0  0  0.243821  0  4.045051  0  0  0.251067  0  4.068276  0  0  0.089894  0.238953  0  4.029054  0
C  C64  1  0.29245894  0.74045444  0.78011751  1  0  -0.163071  0  3.71831  0  0  -0.183187  0  3.967817  0  0  -0.188766  0  3.989157  0  0  -0.105196  -0.179291  0  3.953332  0
C  C65  1  0.70754385  0.24045663  0.71988299  1  0  -0.162954  0  3.718247  0  0  -0.18302  0  3.967708  0  0  -0.1886  0  3.989049  0  0  -0.105114  -0.179113  0  3.953204  0
C  C66  1  0.70754834  0.25955302  0.21987791  1  0  -0.163392  0  3.718402  0  0  -0.183487  0  3.967876  0  0  -0.189079  0  3.989237  0  0  -0.105298  -0.179574  0  3.953368  0
C  C67  1  0.29245166  0.75953814  0.28012113  1  0  -0.162961  0  3.718071  0  0  -0.183023  0  3.967497  0  0  -0.188608  0  3.988856  0  0  -0.105145  -0.179118  0  3.952988  0
C  C68  1  0.12277126  0.74940853  0.73770324  1  0  -0.05299  0  3.777886  0  0  -0.065973  0  4.031272  0  0  -0.066692  0  4.05405  0  0  -0.097014  -0.065139  0  4.015425  0
C  C69  1  0.87722896  0.24940735  0.76229844  1  0  -0.053094  0  3.778091  0  0  -0.066118  0  4.031482  0  0  -0.066844  0  4.054269  0  0  -0.097013  -0.06528  0  4.015614  0
C  C70  1  0.87723734  0.25059893  0.26229156  1  0  -0.052881  0  3.777863  0  0  -0.065859  0  4.031227  0  0  -0.066589  0  4.054023  0  0  -0.096992  -0.065031  0  4.015382  0
C  C71  1  0.12276511  0.75058561  0.23770375  1  0  -0.053138  0  3.778054  0  0  -0.066118  0  4.031457  0  0  -0.066834  0  4.054213  0  0  -0.097075  -0.065279  0  4.015594  0
C  C72  1  0.05596902  0.65709350  0.68400597  1  0  -0.085157  0  3.766346  0  0  -0.1037  0  4.021058  0  0  -0.108143  0  4.044647  0  0  -0.106227  -0.100587  0  4.004654  0
C  C73  1  0.94402501  0.15708750  0.81599609  1  0  -0.084972  0  3.766532  0  0  -0.103515  0  4.021222  0  0  -0.10796  0  4.044818  0  0  -0.106211  -0.100404  0  4.004821  0
C  C74  1  0.94403840  0.34291033  0.31599263  1  0  -0.08499  0  3.766309  0  0  -0.103535  0  4.021  0  0  -0.107976  0  4.044583  0  0  -0.106145  -0.100426  0  4.004611  0
C  C75  1  0.05597162  0.84289820  0.18400296  1  0  -0.084963  0  3.766257  0  0  -0.103459  0  4.020976  0  0  -0.107888  0  4.044558  0  0  -0.106157  -0.100348  0  4.00457  0
C  C76  1  0.16205813  0.55404007  0.67268769  1  0  -0.076083  0  3.814612  0  0  -0.083492  0  4.062131  0  0  -0.085183  0  4.08558  0  0  -0.104767  -0.081962  0  4.045842  0
C  C77  1  0.83793084  0.05403533  0.82731165  1  0  -0.076264  0  3.814954  0  0  -0.083716  0  4.062549  0  0  -0.085408  0  4.085998  0  0  -0.104876  -0.082197  0  4.046276  0
C  C78  1  0.83794397  0.44596195  0.32731273  1  0  -0.07613  0  3.814731  0  0  -0.083538  0  4.0623  0  0  -0.085228  0  4.085748  0  0  -0.104735  -0.082034  0  4.046007  0
C  C79  1  0.16206972  0.94595129  0.17268429  1  0  -0.076184  0  3.814645  0  0  -0.083614  0  4.062199  0  0  -0.085306  0  4.085646  0  0  -0.10478  -0.082069  0  4.045924  0
C  C80  1  0.33206383  0.54322645  0.71496426  1  0  -0.189134  0  3.742042  0  0  -0.206644  0  3.98912  0  0  -0.213127  0  4.011174  0  0  -0.107852  -0.202087  0  3.973943  0
C  C81  1  0.66792361  0.04322869  0.78503320  1  0  -0.189131  0  3.742218  0  0  -0.206648  0  3.989305  0  0  -0.213129  0  4.011362  0  0  -0.107826  -0.20208  0  3.974153  0
C  C82  1  0.66793975  0.45677467  0.28503937  1  0  -0.189045  0  3.74227  0  0  -0.20662  0  3.989345  0  0  -0.213102  0  4.011396  0  0  -0.107849  -0.202037  0  3.974206  0
C  C83  1  0.33207292  0.95676154  0.21496330  1  0  -0.189061  0  3.742166  0  0  -0.206639  0  3.989236  0  0  -0.213119  0  4.011292  0  0  -0.10787  -0.202057  0  3.974081  0
N  N84  1  0.89761263  0.54184124  0.86472704  1  0  -0.272237  0  3.090337  0  0  -0.244071  0  3.353365  0  0  -0.249418  0  3.368992  0  0  -0.290904  -0.239991  0  3.342892  0
N  N85  1  0.10237596  0.04184363  0.63526599  1  0  -0.272463  0  3.090407  0  0  -0.244274  0  3.353464  0  0  -0.249619  0  3.369085  0  0  -0.290944  -0.240198  0  3.342996  0
N  N86  1  0.10238660  0.45816078  0.13526951  1  0  -0.272318  0  3.090315  0  0  -0.244151  0  3.353355  0  0  -0.249498  0  3.368978  0  0  -0.290949  -0.240071  0  3.342877  0
N  N87  1  0.89761130  0.95815748  0.36473481  1  0  -0.27242  0  3.090505  0  0  -0.244239  0  3.353507  0  0  -0.249586  0  3.369131  0  0  -0.290904  -0.240146  0  3.343047  0
N  N88  1  0.12450517  0.68292805  0.97267963  1  0  -0.274903  0  3.189659  0  0  -0.218051  0  3.457414  0  0  -0.232797  0  3.476437  0  0  -0.298524  -0.207507  0  3.443964  0
N  N89  1  0.87549030  0.18294837  0.52731913  1  0  -0.274818  0  3.189702  0  0  -0.217971  0  3.457362  0  0  -0.232714  0  3.476381  0  0  -0.298558  -0.207427  0  3.443918  0
N  N90  1  0.87549817  0.31706763  0.02731826  1  0  -0.274909  0  3.18974  0  0  -0.218067  0  3.457496  0  0  -0.232811  0  3.476516  0  0  -0.298568  -0.207528  0  3.444054  0
N  N91  1  0.12450642  0.81706271  0.47268183  1  0  -0.275005  0  3.189761  0  0  -0.21815  0  3.457524  0  0  -0.232895  0  3.476544  0  0  -0.298578  -0.207609  0  3.444084  0
N  N92  1  0.56934532  0.62021405  0.81011046  1  0  -0.417417  0  3.373646  0  0  -0.3626  0  3.610754  0  0  -0.384589  0  3.619139  0  0  -0.385062  -0.347505  0  3.60478  0
N  N93  1  0.43064964  0.12021722  0.68988927  1  0  -0.417406  0  3.373561  0  0  -0.362691  0  3.610721  0  0  -0.384676  0  3.619099  0  0  -0.385084  -0.347602  0  3.60476  0
N  N94  1  0.43065680  0.37978707  0.18989060  1  0  -0.417294  0  3.373587  0  0  -0.362377  0  3.610562  0  0  -0.384363  0  3.618947  0  0  -0.384984  -0.347285  0  3.604586  0
N  N95  1  0.56934314  0.87977574  0.31011417  1  0  -0.417359  0  3.373707  0  0  -0.362524  0  3.610828  0  0  -0.384509  0  3.619208  0  0  -0.385033  -0.34743  0  3.604861  0
Cl  Cl96  1  0.55148148  0.67631549  0.10308772  1  0  -0.432634  0  1.003019  0  0  -0.369991  0  1.275538  0  0  -0.389148  0  1.260753  0  0  -0.244207  -0.357441  0  1.28621  0
Cl  Cl97  1  0.44852191  0.17631384  0.39691310  1  0  -0.43264  0  1.003031  0  0  -0.369994  0  1.275525  0  0  -0.389149  0  1.260738  0  0  -0.244218  -0.357443  0  1.286201  0
Cl  Cl98  1  0.44853010  0.32368925  0.89691351  1  0  -0.432657  0  1.003013  0  0  -0.370028  0  1.275559  0  0  -0.389188  0  1.260777  0  0  -0.244221  -0.357478  0  1.286232  0
Cl  Cl99  1  0.55147349  0.82368999  0.60308848  1  0  -0.432644  0  1.00306  0  0  -0.370003  0  1.275572  0  0  -0.38916  0  1.260786  0  0  -0.244206  -0.357456  0  1.28625  0
Cl  Cl100  1  0.26075564  0.99103749  0.94677039  1  0  -0.418345  0  1.077132  0  0  -0.350934  0  1.368967  0  0  -0.371355  0  1.350694  0  0  -0.217494  -0.336946  0  1.381706  0
Cl  Cl101  1  0.73924935  0.49103704  0.55323010  1  0  -0.41836  0  1.077171  0  0  -0.350942  0  1.369001  0  0  -0.371364  0  1.350735  0  0  -0.217505  -0.33696  0  1.381737  0
Cl  Cl102  1  0.73925721  0.00896634  0.05322895  1  0  -0.418351  0  1.077137  0  0  -0.350947  0  1.368979  0  0  -0.371359  0  1.350692  0  0  -0.217495  -0.336957  0  1.38171  0
Cl  Cl103  1  0.26074365  0.50896408  0.44677843  1  0  -0.418351  0  1.077165  0  0  -0.350951  0  1.369019  0  0  -0.371386  0  1.350773  0  0  -0.217501  -0.336966  0  1.38175  0
O  O104  1  0.60962411  0.79719569  0.88835704  1  0  -0.551213  0  2.026187  0  0  -0.497924  0  2.265601  0  0  -0.520076  0  2.258834  0  0  -0.291932  -0.482536  0  2.269723  0
O  O105  1  0.39037639  0.29719589  0.61164122  1  0  -0.551173  0  2.026145  0  0  -0.497909  0  2.265551  0  0  -0.520062  0  2.258785  0  0  -0.291931  -0.482516  0  2.269656  0
O  O106  1  0.39037404  0.20280361  0.11164586  1  0  -0.55119  0  2.026062  0  0  -0.497964  0  2.265488  0  0  -0.520116  0  2.258719  0  0  -0.291923  -0.482587  0  2.269618  0
O  O107  1  0.60962206  0.70279978  0.38836869  1  0  -0.55106  0  2.026414  0  0  -0.497799  0  2.265765  0  0  -0.519965  0  2.259016  0  0  -0.291834  -0.482391  0  2.269845  0
