# generated using pymatgen
data_Sm2Cu3H24(C4O5)6
_symmetry_space_group_name_H-M   'P 1'
_cell_length_a   14.71039189
_cell_length_b   14.90816660
_cell_length_c   14.90818745
_cell_angle_alpha   120.00039845
_cell_angle_beta   89.99994536
_cell_angle_gamma   90.00008249
_symmetry_Int_Tables_number   1
_chemical_formula_structural   Sm2Cu3H24(C4O5)6
_chemical_formula_sum   'Sm4 Cu6 H48 C48 O60'
_cell_volume   2831.40642289
_cell_formula_units_Z   2
loop_
 _symmetry_equiv_pos_site_id
 _symmetry_equiv_pos_as_xyz
  1  'x, y, z'
loop_
 _atom_site_type_symbol
 _atom_site_label
 _atom_site_symmetry_multiplicity
 _atom_site_fract_x
 _atom_site_fract_y
 _atom_site_fract_z
 _atom_site_occupancy
 _atom_site_pbe_bader_charge
 _atom_site_pbe_bader_spin_density
 _atom_site_pbe_cm5_charge
 _atom_site_pbe_ddec_charge
 _atom_site_pbe_ddec_spin_density
 _atom_site_pbe_ddec_sum_bond_order
 _atom_site_pbe_magmom
Sm  Sm0  1  0.75000033  0.33333351  0.66666590  1  2.264771  -0.000698  1.503502  2.011495  -0.001075  2.174537  -0.001
Sm  Sm1  1  0.75000006  0.66666626  0.33333409  1  2.264778  -0.000698  1.503516  2.01153  -0.001075  2.174513  -0.001
Sm  Sm2  1  0.25000046  0.66666594  0.33333416  1  2.264779  -0.000698  1.503497  2.011487  -0.001075  2.174522  -0.001
Sm  Sm3  1  0.25000006  0.33333358  0.66666558  1  2.264796  -0.000698  1.503503  2.011479  -0.001075  2.174546  -0.001
Cu  Cu4  1  0.00000112  0.00000110  0.50000064  1  1.12654  0.587106  0.734946  0.963447  0.743438  2.054036  0.589
Cu  Cu5  1  0.00000056  0.49999975  0.99999882  1  1.130609  0.587129  0.734977  0.963477  0.743435  2.053979  0.589
Cu  Cu6  1  0.00000012  0.50000105  0.49999981  1  1.126947  0.587093  0.734918  0.963387  0.743436  2.054178  0.589
Cu  Cu7  1  0.50000016  0.49999968  0.99999913  1  1.126633  0.587106  0.734905  0.963451  0.743438  2.054045  0.589
Cu  Cu8  1  0.50000003  0.00000036  0.50000028  1  1.130677  0.587129  0.734974  0.9634  0.743433  2.054062  0.589
Cu  Cu9  1  0.49999972  0.49999915  0.50000061  1  1.126925  0.587092  0.734901  0.963378  0.743435  2.054164  0.589
H  H10  1  0.84771223  0.15733298  0.35911838  1  0.072349  -0.000197  0.117668  0.104418  -0.000284  0.946611  0.0
H  H11  1  0.75785596  0.07947380  0.36611250  1  0.059922  -0.000144  0.109937  0.089845  -0.000182  0.998166  0.0
H  H12  1  0.84771339  0.20178478  0.84266529  1  0.075952  -0.000197  0.117642  0.104414  -0.000284  0.946617  0.0
H  H13  1  0.75785789  0.28664006  0.92052569  1  0.061099  -0.000143  0.109964  0.089884  -0.000182  0.998143  0.0
H  H14  1  0.84771169  0.64088258  0.79821437  1  0.083825  -0.000199  0.117651  0.104409  -0.000284  0.946674  0.0
H  H15  1  0.75785688  0.63388843  0.71336045  1  0.058756  -0.000142  0.109952  0.089882  -0.000182  0.998142  0.0
H  H16  1  0.84771056  0.84266720  0.64088263  1  0.072674  -0.000197  0.117651  0.104417  -0.000284  0.946614  0.0
H  H17  1  0.75785509  0.92052665  0.63388815  1  0.059898  -0.000144  0.10995  0.089887  -0.000182  0.998142  0.0
H  H18  1  0.84771280  0.79821511  0.15733467  1  0.075954  -0.000197  0.117644  0.104409  -0.000284  0.946599  0.0
H  H19  1  0.75785725  0.71336078  0.07947458  1  0.061068  -0.000143  0.109949  0.089842  -0.000182  0.998204  0.0
H  H20  1  0.84771110  0.35911798  0.20178626  1  0.083937  -0.000199  0.11765  0.104419  -0.000284  0.946648  0.0
H  H21  1  0.75785621  0.36611096  0.28663992  1  0.058371  -0.000142  0.109938  0.089874  -0.000182  0.99816  0.0
H  H22  1  0.65228804  0.35911867  0.15733316  1  0.072345  -0.000197  0.117654  0.104403  -0.000284  0.946616  0.0
H  H23  1  0.74214429  0.36611186  0.07947389  1  0.059908  -0.000144  0.109949  0.089862  -0.000182  0.998137  0.0
H  H24  1  0.65228634  0.84266471  0.20178437  1  0.075927  -0.000197  0.117621  0.104387  -0.000284  0.946619  0.0
H  H25  1  0.74214120  0.92052589  0.28664028  1  0.061106  -0.000143  0.109962  0.089876  -0.000182  0.998161  0.0
H  H26  1  0.65228813  0.79821397  0.64088198  1  0.083927  -0.000199  0.117642  0.104414  -0.000284  0.94664  0.0
H  H27  1  0.74214224  0.71335888  0.63388753  1  0.05841  -0.000142  0.109952  0.08988  -0.000182  0.998166  0.0
H  H28  1  0.65228792  0.64088059  0.84266724  1  0.072365  -0.000197  0.117654  0.104416  -0.000284  0.946604  0.0
H  H29  1  0.74214408  0.63388856  0.92052677  1  0.059936  -0.000144  0.10995  0.089863  -0.000182  0.998145  0.0
H  H30  1  0.65228690  0.15733465  0.79821458  1  0.075949  -0.000197  0.117633  0.104409  -0.000284  0.946631  0.0
H  H31  1  0.74214309  0.07947348  0.71336009  1  0.061063  -0.000143  0.10996  0.089888  -0.000182  0.99816  0.0
H  H32  1  0.65228851  0.20178434  0.35911669  1  0.083906  -0.000199  0.117645  0.104394  -0.000284  0.946655  0.0
H  H33  1  0.74214273  0.28663953  0.36611112  1  0.058764  -0.000142  0.109946  0.089884  -0.000182  0.998134  0.0
H  H34  1  0.15228789  0.84266686  0.64088129  1  0.072347  -0.000197  0.11765  0.104405  -0.000284  0.946617  0.0
H  H35  1  0.24214415  0.92052632  0.63388823  1  0.059913  -0.000144  0.109951  0.089871  -0.000182  0.998133  0.0
H  H36  1  0.15228673  0.79821506  0.15733438  1  0.075948  -0.000197  0.117637  0.104396  -0.000284  0.946602  0.0
H  H37  1  0.24214155  0.71335911  0.07947331  1  0.061091  -0.000143  0.109962  0.089891  -0.000182  0.998177  0.0
H  H38  1  0.15228843  0.35911754  0.20178636  1  0.083827  -0.000199  0.117651  0.104394  -0.000284  0.946648  0.0
H  H39  1  0.24214256  0.36611170  0.28664028  1  0.058403  -0.000142  0.109955  0.08986  -0.000182  0.99814  0.0
H  H40  1  0.15228956  0.15733292  0.35911810  1  0.072682  -0.000197  0.117654  0.104411  -0.000284  0.946631  0.0
H  H41  1  0.24214503  0.07947358  0.36611114  1  0.059896  -0.000144  0.109932  0.089845  -0.000182  0.998165  0.0
H  H42  1  0.15228664  0.20178473  0.84266501  1  0.075949  -0.000197  0.117629  0.104384  -0.000284  0.946592  0.0
H  H43  1  0.24214219  0.28663906  0.92052509  1  0.061073  -0.000143  0.109943  0.089831  -0.000182  0.998203  0.0
H  H44  1  0.15228834  0.64088186  0.79821341  1  0.083933  -0.000199  0.117646  0.104374  -0.000284  0.94668  0.0
H  H45  1  0.24214390  0.63388849  0.71336014  1  0.058385  -0.000142  0.109945  0.089845  -0.000182  0.998167  0.0
H  H46  1  0.34771139  0.64088184  0.84266718  1  0.072347  -0.000197  0.11765  0.104397  -0.000284  0.946629  0.0
H  H47  1  0.25785515  0.63388759  0.92052617  1  0.059915  -0.000144  0.109942  0.089868  -0.000182  0.998146  0.0
H  H48  1  0.34771378  0.15733436  0.79821607  1  0.075934  -0.000197  0.11763  0.104404  -0.000284  0.946631  0.0
H  H49  1  0.25785892  0.07947395  0.71335939  1  0.061098  -0.000143  0.109966  0.089893  -0.000182  0.998195  0.0
H  H50  1  0.34771199  0.20178587  0.35911769  1  0.083922  -0.000199  0.117637  0.104407  -0.000284  0.946648  0.0
H  H51  1  0.25785788  0.28664057  0.36611253  1  0.058766  -0.000142  0.109953  0.089878  -0.000182  0.998159  0.0
H  H52  1  0.34771152  0.35911848  0.15733320  1  0.072352  -0.000197  0.117671  0.104422  -0.000284  0.946604  0.0
H  H53  1  0.25785604  0.36611262  0.07947425  1  0.059929  -0.000144  0.109944  0.089859  -0.000182  0.998156  0.0
H  H54  1  0.34771253  0.84266557  0.20178470  1  0.075942  -0.000197  0.117645  0.104408  -0.000284  0.9466  0.0
H  H55  1  0.25785702  0.92052568  0.28663891  1  0.061069  -0.000143  0.109957  0.089871  -0.000182  0.998137  0.0
H  H56  1  0.34771093  0.79821617  0.64088366  1  0.083989  -0.000199  0.117648  0.104388  -0.000284  0.946683  0.0
H  H57  1  0.25785670  0.71336098  0.63388922  1  0.058727  -0.000142  0.109939  0.089862  -0.000182  0.998136  0.0
C  C58  1  0.86088107  0.12586251  0.48419018  1  1.621228  -0.000246  0.22305  0.634522  -0.000719  4.160614  -0.002
C  C59  1  0.80273651  0.14638056  0.41213913  1  0.44286  0.010009  -0.055341  -0.105134  0.007252  3.908946  0.008
C  C60  1  0.86088241  0.35833212  0.87413823  1  1.635822  -0.000225  0.223238  0.634739  -0.00072  4.160523  -0.002
C  C61  1  0.80273706  0.26576028  0.85361964  1  0.425189  0.010065  -0.055363  -0.105214  0.007253  3.908844  0.008
C  C62  1  0.86088468  0.51581218  0.64166988  1  1.629331  -0.00022  0.223106  0.634606  -0.00072  4.160521  -0.002
C  C63  1  0.80273668  0.58786181  0.73424091  1  0.425633  0.01002  -0.055362  -0.105239  0.007254  3.90892  0.008
C  C64  1  0.86088364  0.87414238  0.51581553  1  1.621272  -0.000246  0.223059  0.634538  -0.00072  4.160638  -0.002
C  C65  1  0.80273626  0.85361956  0.58786190  1  0.442493  0.01001  -0.055315  -0.105205  0.007253  3.909001  0.008
C  C66  1  0.86088366  0.64166976  0.12585439  1  1.635558  -0.000225  0.223106  0.634566  -0.00072  4.160643  -0.002
C  C67  1  0.80273571  0.73424100  0.14638022  1  0.425254  0.010066  -0.05532  -0.105109  0.007254  3.908871  0.008
C  C68  1  0.86088343  0.48418966  0.35832814  1  1.629257  -0.00022  0.223058  0.634519  -0.000719  4.160494  -0.002
C  C69  1  0.80273541  0.41213697  0.26575877  1  0.425591  0.010018  -0.055328  -0.105215  0.007252  3.908911  0.008
C  C70  1  0.63911719  0.48418843  0.12585979  1  1.621286  -0.000246  0.223121  0.634639  -0.000719  4.160497  -0.002
C  C71  1  0.69726378  0.41213849  0.14638055  1  0.442842  0.010011  -0.055322  -0.105128  0.007253  3.90887  0.008
C  C72  1  0.63911736  0.87413823  0.35833211  1  1.635832  -0.000225  0.223203  0.63462  -0.00072  4.160606  -0.002
C  C73  1  0.69726268  0.85361904  0.26575979  1  0.425204  0.010065  -0.055357  -0.105173  0.007253  3.908872  0.008
C  C74  1  0.63911507  0.64167074  0.51581157  1  1.629371  -0.00022  0.223066  0.634497  -0.000719  4.160657  -0.002
C  C75  1  0.69726380  0.73424152  0.58786156  1  0.425534  0.010018  -0.055301  -0.105167  0.007253  3.908927  0.008
C  C76  1  0.63911685  0.51581226  0.87414051  1  1.621362  -0.000246  0.223145  0.634661  -0.00072  4.16038  -0.002
C  C77  1  0.69726356  0.58786083  0.85361984  1  0.442748  0.01001  -0.055329  -0.105152  0.007253  3.908821  0.008
C  C78  1  0.63911668  0.12585474  0.64167054  1  1.635464  -0.000225  0.223061  0.6345  -0.00072  4.16077  -0.002
C  C79  1  0.69726466  0.14638123  0.73424233  1  0.42533  0.010066  -0.055328  -0.105205  0.007254  3.909048  0.008
C  C80  1  0.63911624  0.35832917  0.48418951  1  1.629304  -0.00022  0.223134  0.634611  -0.00072  4.16031  -0.002
C  C81  1  0.69726286  0.26575895  0.41213767  1  0.42555  0.010017  -0.055362  -0.105232  0.007252  3.908817  0.008
C  C82  1  0.13911905  0.87413800  0.51581017  1  1.62124  -0.000246  0.223056  0.634515  -0.000719  4.160654  -0.002
C  C83  1  0.19726361  0.85361956  0.58786160  1  0.442857  0.010009  -0.055322  -0.105141  0.007252  3.908905  0.008
C  C84  1  0.13911771  0.64166801  0.12586250  1  1.635613  -0.000223  0.223201  0.634665  -0.00072  4.160648  -0.002
C  C85  1  0.19726306  0.73424023  0.14638070  1  0.4254  0.010064  -0.055376  -0.10525  0.007254  3.908927  0.008
C  C86  1  0.13911408  0.48418448  0.35832894  1  1.629303  -0.000221  0.223029  0.634453  -0.00072  4.160666  -0.002
C  C87  1  0.19726344  0.41213803  0.26575876  1  0.425667  0.010019  -0.055325  -0.105107  0.007253  3.908799  0.008
C  C88  1  0.13911648  0.12585775  0.48418520  1  1.621274  -0.000246  0.223021  0.634427  -0.00072  4.160758  -0.002
C  C89  1  0.19726386  0.14637989  0.41213816  1  0.442486  0.01001  -0.055312  -0.105139  0.007253  3.909003  0.008
C  C90  1  0.13911646  0.35833008  0.87414528  1  1.635553  -0.000225  0.223088  0.634488  -0.00072  4.160744  -0.002
C  C91  1  0.19726441  0.26575884  0.85361945  1  0.425246  0.010066  -0.055315  -0.105089  0.007254  3.908901  0.008
C  C92  1  0.13911601  0.51581085  0.64167221  1  1.629252  -0.00022  0.223058  0.63453  -0.000719  4.160437  -0.002
C  C93  1  0.19726402  0.58786248  0.73424129  1  0.425586  0.010017  -0.055314  -0.105086  0.007252  3.908842  0.008
C  C94  1  0.36088225  0.51581180  0.87413949  1  1.621263  -0.000246  0.223111  0.634607  -0.000719  4.160642  -0.002
C  C95  1  0.30273634  0.58786135  0.85361912  1  0.442837  0.010011  -0.05532  -0.10516  0.007253  3.908948  0.008
C  C96  1  0.36088344  0.12586200  0.64166717  1  1.635855  -0.000225  0.223182  0.634648  -0.00072  4.160596  -0.002
C  C97  1  0.30273676  0.14638041  0.73424027  1  0.425196  0.010066  -0.05537  -0.105248  0.007254  3.90889  0.008
C  C98  1  0.36088436  0.35832871  0.48418849  1  1.629366  -0.000221  0.223086  0.63451  -0.00072  4.160757  -0.002
C  C99  1  0.30273632  0.26575832  0.41213811  1  0.425521  0.010018  -0.05531  -0.105184  0.007252  3.908954  0.008
C  C100  1  0.36088327  0.48418441  0.12585831  1  1.621258  -0.000246  0.223129  0.634669  -0.000719  4.160588  -0.002
C  C101  1  0.30273656  0.41213930  0.14638089  1  0.442815  0.010009  -0.055339  -0.105166  0.007252  3.90901  0.008
C  C102  1  0.36088276  0.87414471  0.35832952  1  1.635463  -0.000225  0.223065  0.634457  -0.000719  4.16079  -0.002
C  C103  1  0.30273546  0.85361861  0.26575734  1  0.425331  0.010066  -0.055336  -0.105157  0.007255  3.908905  0.008
C  C104  1  0.36088455  0.64167201  0.51581150  1  1.629307  -0.000221  0.222949  0.634319  -0.00072  4.160635  -0.002
C  C105  1  0.30273590  0.73424290  0.58786402  1  0.425516  0.010019  -0.055314  -0.105111  0.007253  3.908834  0.008
O  O106  1  0.90840594  0.04379390  0.43572424  1  -1.115029  0.090097  -0.327644  -0.551549  0.056919  2.337975  0.082
O  O107  1  0.85787435  0.18826161  0.58031036  1  -1.185961  0.001741  -0.366771  -0.623128  0.000203  2.216314  0.002
O  O108  1  0.90841002  0.39192484  0.95620081  1  -1.119243  0.090035  -0.327746  -0.551644  0.056918  2.338035  0.082
O  O109  1  0.85787779  0.39205013  0.81173659  1  -1.189106  0.00174  -0.366819  -0.623215  0.000204  2.21642  0.002
O  O110  1  0.90840896  0.56427872  0.60807461  1  -1.117686  0.090069  -0.327633  -0.55147  0.056917  2.338182  0.082
O  O111  1  0.85787722  0.41968844  0.60794857  1  -1.185805  0.001741  -0.366786  -0.623183  0.000205  2.216118  0.002
O  O112  1  0.90840926  0.95620441  0.56427869  1  -1.115061  0.090088  -0.327642  -0.551482  0.056913  2.33813  0.082
O  O113  1  0.85787556  0.81173734  0.41968786  1  -1.185855  0.001743  -0.366816  -0.623218  0.000205  2.216169  0.002
O  O114  1  0.90840586  0.60807312  0.04379711  1  -1.119371  0.090017  -0.327656  -0.551489  0.056907  2.338417  0.082
O  O115  1  0.85787621  0.60794862  0.18826452  1  -1.188775  0.001744  -0.36685  -0.623271  0.000207  2.215999  0.002
O  O116  1  0.90840897  0.43572105  0.39192822  1  -1.117775  0.090077  -0.327672  -0.551549  0.056922  2.337916  0.082
O  O117  1  0.85787541  0.58030695  0.39204918  1  -1.185739  0.001738  -0.366725  -0.623073  0.000203  2.216316  0.002
O  O118  1  0.59159365  0.43572359  0.04379550  1  -1.115007  0.090094  -0.327688  -0.551602  0.056917  2.338107  0.082
O  O119  1  0.64212463  0.58031276  0.18826289  1  -1.185944  0.001743  -0.366808  -0.623208  0.000205  2.216203  0.002
O  O120  1  0.59158910  0.95620129  0.39192444  1  -1.119325  0.090037  -0.327711  -0.551548  0.056919  2.338123  0.082
O  O121  1  0.64212198  0.81173644  0.39205000  1  -1.189104  0.00174  -0.366815  -0.623164  0.000204  2.216432  0.002
O  O122  1  0.59159148  0.60807294  0.56427633  1  -1.117768  0.09006  -0.327632  -0.55148  0.056912  2.338282  0.082
O  O123  1  0.64212249  0.60794890  0.41968585  1  -1.185875  0.001741  -0.366808  -0.623166  0.000205  2.216162  0.002
O  O124  1  0.59159466  0.56427587  0.95620598  1  -1.115008  0.090089  -0.327666  -0.551541  0.056914  2.338066  0.082
O  O125  1  0.64212489  0.41968458  0.81173406  1  -1.185966  0.001744  -0.36682  -0.623235  0.000205  2.216108  0.002
O  O126  1  0.59159445  0.04379838  0.60807415  1  -1.119356  0.090015  -0.32763  -0.551427  0.056906  2.33846  0.082
O  O127  1  0.64212414  0.18826502  0.60794952  1  -1.188768  0.001744  -0.366838  -0.623243  0.000207  2.216038  0.002
O  O128  1  0.59159002  0.39192617  0.43572014  1  -1.117676  0.09007  -0.327674  -0.551535  0.056918  2.337852  0.082
O  O129  1  0.64212226  0.39205037  0.58030915  1  -1.185762  0.001739  -0.366734  -0.623104  0.000203  2.216244  0.002
O  O130  1  0.09159418  0.95620622  0.56427649  1  -1.114978  0.0901  -0.327631  -0.551509  0.056921  2.33804  0.082
O  O131  1  0.14212509  0.81173784  0.41968970  1  -1.185952  0.001742  -0.366763  -0.623122  0.000204  2.216343  0.002
O  O132  1  0.09159010  0.60807567  0.04379953  1  -1.119235  0.09004  -0.327729  -0.551593  0.05692  2.338079  0.082
O  O133  1  0.14212233  0.60794971  0.18826308  1  -1.189113  0.00174  -0.366769  -0.623133  0.000204  2.216484  0.002
O  O134  1  0.09159116  0.43572324  0.39192563  1  -1.117715  0.090045  -0.327594  -0.55141  0.056903  2.338389  0.082
O  O135  1  0.14212289  0.58031457  0.39205195  1  -1.185802  0.001742  -0.3668  -0.623171  0.000206  2.216033  0.002
O  O136  1  0.09159221  0.04379638  0.43572271  1  -1.114969  0.090082  -0.327619  -0.551442  0.05691  2.338279  0.082
O  O137  1  0.14212523  0.18826423  0.58031276  1  -1.185899  0.001744  -0.366787  -0.623138  0.000205  2.216172  0.002
O  O138  1  0.09159425  0.39192711  0.95620217  1  -1.119364  0.090018  -0.327619  -0.551413  0.056908  2.338473  0.082
O  O139  1  0.14212323  0.39205084  0.81173554  1  -1.188782  0.001744  -0.366836  -0.623227  0.000207  2.216043  0.002
O  O140  1  0.09159115  0.56428014  0.60807279  1  -1.117791  0.090074  -0.327635  -0.551523  0.05692  2.337917  0.082
O  O141  1  0.14212471  0.41969289  0.60795049  1  -1.185733  0.001738  -0.366721  -0.623092  0.000203  2.21628  0.002
O  O142  1  0.40840579  0.56427731  0.95620446  1  -1.114996  0.090096  -0.32771  -0.551597  0.056918  2.338125  0.082
O  O143  1  0.35787549  0.41968842  0.81173812  1  -1.18593  0.001743  -0.366774  -0.623154  0.000205  2.216217  0.002
O  O144  1  0.40841034  0.04379922  0.60807590  1  -1.119261  0.090037  -0.32771  -0.551573  0.056919  2.338137  0.082
O  O145  1  0.35787814  0.18826301  0.60795005  1  -1.189116  0.00174  -0.366766  -0.623124  0.000204  2.216444  0.002
O  O146  1  0.40840796  0.39192623  0.43572267  1  -1.117657  0.090061  -0.327642  -0.551459  0.056913  2.338291  0.082
O  O147  1  0.35787762  0.39205094  0.58031382  1  -1.185872  0.00174  -0.366799  -0.62316  0.000204  2.216201  0.002
O  O148  1  0.40840614  0.43572425  0.04379475  1  -1.115107  0.09008  -0.327653  -0.551554  0.056909  2.338209  0.082
O  O149  1  0.35787523  0.58031392  0.18826427  1  -1.185881  0.001744  -0.366847  -0.62328  0.000205  2.21613  0.002
O  O150  1  0.40840635  0.95620174  0.39192658  1  -1.11934  0.090021  -0.327628  -0.551397  0.056909  2.338459  0.082
O  O151  1  0.35787598  0.81173520  0.39204976  1  -1.188768  0.001743  -0.366824  -0.623217  0.000207  2.216084  0.002
O  O152  1  0.40841077  0.60807424  0.56428165  1  -1.117823  0.090079  -0.327573  -0.551418  0.056923  2.33791  0.082
O  O153  1  0.35787718  0.60795204  0.41969464  1  -1.185728  0.001738  -0.366704  -0.623016  0.000203  2.216378  0.002
O  O154  1  0.74999968  0.23635710  0.47271176  1  -1.10768  0.004162  -0.270464  -0.250167  0.002268  2.767377  0.003
O  O155  1  0.75000022  0.23635581  0.76364467  1  -1.099391  0.004129  -0.270448  -0.250154  0.002268  2.767554  0.003
O  O156  1  0.75000111  0.52728820  0.76364337  1  -1.107675  0.004162  -0.270472  -0.250207  0.002268  2.767379  0.003
O  O157  1  0.75000004  0.76364373  0.52728850  1  -1.107693  0.004162  -0.270464  -0.250159  0.002268  2.767528  0.003
O  O158  1  0.74999882  0.76364463  0.23635598  1  -1.099378  0.004129  -0.270458  -0.250205  0.002268  2.767526  0.003
O  O159  1  0.74999928  0.47271224  0.23635728  1  -1.107696  0.004163  -0.270452  -0.250154  0.002268  2.76743  0.003
O  O160  1  0.25000044  0.76364274  0.52728791  1  -1.107689  0.004163  -0.270491  -0.250211  0.002268  2.767423  0.003
O  O161  1  0.24999922  0.76364403  0.23635500  1  -1.099387  0.004129  -0.270448  -0.250137  0.002268  2.767551  0.003
O  O162  1  0.25000037  0.47271231  0.23635697  1  -1.107688  0.004162  -0.270483  -0.250222  0.002267  2.767413  0.003
O  O163  1  0.25000008  0.23635611  0.47271117  1  -1.107686  0.004162  -0.270457  -0.250156  0.002268  2.767527  0.003
O  O164  1  0.25000062  0.23635521  0.76364369  1  -1.099373  0.004129  -0.270454  -0.250167  0.002268  2.767516  0.003
O  O165  1  0.25000015  0.52728760  0.76364239  1  -1.107704  0.004163  -0.270474  -0.250181  0.002268  2.767431  0.003
