# generated using pymatgen
data_BaH8C12(NO3)2
_symmetry_space_group_name_H-M   'P 1'
_cell_length_a   5.56052026
_cell_length_b   8.34379248
_cell_length_c   13.83383382
_cell_angle_alpha   99.17737106
_cell_angle_beta   101.66471666
_cell_angle_gamma   90.04033168
_symmetry_Int_Tables_number   1
_chemical_formula_structural   BaH8C12(NO3)2
_chemical_formula_sum   'Ba2 H16 C24 N4 O12'
_cell_volume   620.17002823
_cell_formula_units_Z   2
loop_
 _symmetry_equiv_pos_site_id
 _symmetry_equiv_pos_as_xyz
  1  'x, y, z'
loop_
 _atom_site_type_symbol
 _atom_site_label
 _atom_site_symmetry_multiplicity
 _atom_site_fract_x
 _atom_site_fract_y
 _atom_site_fract_z
 _atom_site_occupancy
 _atom_site_hle17_bader_spin_density
 _atom_site_hle17_ddec_charge
 _atom_site_hle17_ddec_spin_density
 _atom_site_hle17_ddec_sum_bond_order
 _atom_site_hle17_magmom
 _atom_site_hse06_10hf_bader_spin_density
 _atom_site_hse06_10hf_ddec_charge
 _atom_site_hse06_10hf_ddec_spin_density
 _atom_site_hse06_10hf_ddec_sum_bond_order
 _atom_site_hse06_10hf_magmom
 _atom_site_hse06_bader_spin_density
 _atom_site_hse06_ddec_charge
 _atom_site_hse06_ddec_spin_density
 _atom_site_hse06_ddec_sum_bond_order
 _atom_site_hse06_magmom
 _atom_site_pbe_bader_spin_density
 _atom_site_pbe_cm5_charge
 _atom_site_pbe_ddec_charge
 _atom_site_pbe_ddec_spin_density
 _atom_site_pbe_ddec_sum_bond_order
 _atom_site_pbe_magmom
Ba  Ba0  1  0.14233351  0.25025390  0.00004334  1  0  1.629828  0  1.092976  0  0  1.469939  0  1.486914  0  0  1.511742  0  1.445085  0  0  0.954675  1.439031  0  1.516691  0
Ba  Ba1  1  0.85769422  0.74974755  0.99995887  1  0  1.629843  0  1.09296  0  0  1.469954  0  1.486889  0  0  1.511757  0  1.445058  0  0  0.954678  1.439054  0  1.516682  0
H  H2  1  0.70737030  0.74751093  0.34899700  1  0  0.10682  0  0.960453  0  0  0.115486  0  1.022645  0  0  0.118387  0  1.020829  0  0  0.109625  0.113358  0  1.023976  0
H  H3  1  0.35806986  0.75249643  0.65103067  1  0  0.105559  0  0.961758  0  0  0.114126  0  1.024019  0  0  0.117067  0  1.022158  0  0  0.108462  0.111967  0  1.025423  0
H  H4  1  0.29262766  0.25248950  0.65101046  1  0  0.106876  0  0.960471  0  0  0.115562  0  1.022626  0  0  0.118481  0  1.020783  0  0  0.109681  0.113436  0  1.023951  0
H  H5  1  0.64192167  0.24751071  0.34896232  1  0  0.105569  0  0.961721  0  0  0.114099  0  1.024024  0  0  0.117041  0  1.022163  0  0  0.108438  0.111936  0  1.025437  0
H  H6  1  0.54570480  0.66997483  0.49145291  1  0  0.08754  0  0.982708  0  0  0.098198  0  1.046911  0  0  0.100483  0  1.04816  0  0  0.095444  0.096566  0  1.046195  0
H  H7  1  0.05333223  0.82946023  0.50841432  1  0  0.088259  0  0.981294  0  0  0.098445  0  1.046025  0  0  0.100762  0  1.047171  0  0  0.095657  0.096808  0  1.045324  0
H  H8  1  0.45425480  0.33002652  0.50854763  1  0  0.087485  0  0.982686  0  0  0.098147  0  1.046896  0  0  0.100426  0  1.048144  0  0  0.095426  0.096522  0  1.046185  0
H  H9  1  0.94663445  0.17053381  0.49158480  1  0  0.08838  0  0.981263  0  0  0.098561  0  1.045972  0  0  0.100881  0  1.047118  0  0  0.095682  0.096915  0  1.045276  0
H  H10  1  0.13274205  0.52796731  0.45674540  1  0  0.074795  0  0.964679  0  0  0.087768  0  1.025921  0  0  0.089967  0  1.024339  0  0  0.097254  0.086169  0  1.027031  0
H  H11  1  0.67523947  0.97138252  0.54283125  1  0  0.076326  0  0.964509  0  0  0.089127  0  1.025648  0  0  0.091297  0  1.024159  0  0  0.098031  0.087528  0  1.026723  0
H  H12  1  0.86721613  0.47203493  0.54324641  1  0  0.074766  0  0.964884  0  0  0.087745  0  1.026118  0  0  0.089942  0  1.024539  0  0  0.097217  0.086145  0  1.027226  0
H  H13  1  0.32474119  0.02860592  0.45717948  1  0  0.076356  0  0.964542  0  0  0.089125  0  1.025715  0  0  0.091292  0  1.024226  0  0  0.098044  0.087529  0  1.02679  0
H  H14  1  0.88892687  0.46542282  0.28426984  1  0  0.110093  0  0.978071  0  0  0.115286  0  1.047881  0  0  0.118428  0  1.047494  0  0  0.101963  0.11309  0  1.04826  0
H  H15  1  0.60497766  0.03447372  0.71527544  1  0  0.110582  0  0.977762  0  0  0.115405  0  1.047826  0  0  0.118567  0  1.047387  0  0  0.102115  0.113176  0  1.048295  0
H  H16  1  0.11106462  0.53457679  0.71571601  1  0  0.110091  0  0.977984  0  0  0.115299  0  1.047785  0  0  0.118438  0  1.047402  0  0  0.102004  0.113086  0  1.048208  0
H  H17  1  0.39504030  0.96552570  0.28473732  1  0  0.110532  0  0.977819  0  0  0.115357  0  1.047911  0  0  0.11852  0  1.047473  0  0  0.102096  0.113137  0  1.048348  0
C  C18  1  0.15833537  0.55833271  0.21400624  1  0  0.380683  0  3.849257  0  0  0.365122  0  4.11282  0  0  0.387222  0  4.122219  0  0  0.117646  0.350502  0  4.10595  0
C  C19  1  0.94471250  0.94165750  0.78578255  1  0  0.382482  0  3.846516  0  0  0.36557  0  4.112418  0  0  0.387736  0  4.121719  0  0  0.116254  0.350904  0  4.105602  0
C  C20  1  0.84167211  0.44166113  0.78598706  1  0  0.380637  0  3.849097  0  0  0.365132  0  4.112595  0  0  0.387231  0  4.121994  0  0  0.117654  0.350517  0  4.105711  0
C  C21  1  0.05530952  0.05834031  0.21421959  1  0  0.382592  0  3.846257  0  0  0.365629  0  4.112245  0  0  0.387795  0  4.121546  0  0  0.116207  0.350957  0  4.105436  0
C  C22  1  0.39642486  0.64228168  0.23765899  1  0  -0.05578  0  3.63201  0  0  -0.066725  0  3.887751  0  0  -0.07852  0  3.907045  0  0  0.079343  -0.059526  0  3.875045  0
C  C23  1  0.15892632  0.85770967  0.76226152  1  0  -0.058904  0  3.630662  0  0  -0.069974  0  3.887491  0  0  -0.081924  0  3.906907  0  0  0.077681  -0.062652  0  3.874682  0
C  C24  1  0.60357724  0.35772086  0.76234033  1  0  -0.055743  0  3.631955  0  0  -0.06671  0  3.887709  0  0  -0.078509  0  3.907006  0  0  0.079323  -0.059504  0  3.874987  0
C  C25  1  0.84108477  0.14228929  0.23773902  1  0  -0.058847  0  3.630625  0  0  -0.069891  0  3.887421  0  0  -0.081842  0  3.906847  0  0  0.07774  -0.062564  0  3.874608  0
C  C26  1  0.53019360  0.68399142  0.33714494  1  0  -0.089376  0  3.78034  0  0  -0.110501  0  4.035414  0  0  -0.104898  0  4.054226  0  0  -0.086337  -0.113624  0  4.022498  0
C  C27  1  0.19287259  0.81598852  0.66278566  1  0  -0.085444  0  3.777706  0  0  -0.105956  0  4.031918  0  0  -0.100337  0  4.050768  0  0  -0.083241  -0.109118  0  4.018967  0
C  C28  1  0.46979347  0.31600758  0.66285710  1  0  -0.089492  0  3.780381  0  0  -0.110648  0  4.035484  0  0  -0.105057  0  4.054287  0  0  -0.086383  -0.113763  0  4.022558  0
C  C29  1  0.80712193  0.18400789  0.33721177  1  0  -0.085451  0  3.777694  0  0  -0.105912  0  4.03187  0  0  -0.100293  0  4.050723  0  0  -0.083208  -0.109081  0  4.018928  0
C  C30  1  0.43932076  0.64171726  0.41529412  1  0  -0.115897  0  3.796926  0  0  -0.132179  0  4.050882  0  0  -0.142674  0  4.076486  0  0  -0.109609  -0.125467  0  4.033474  0
C  C31  1  0.02353436  0.85805029  0.58455689  1  0  -0.11642  0  3.796902  0  0  -0.132365  0  4.050784  0  0  -0.142837  0  4.076378  0  0  -0.109886  -0.125652  0  4.033372  0
C  C32  1  0.56065152  0.35827672  0.58470332  1  0  -0.115728  0  3.796701  0  0  -0.132016  0  4.050683  0  0  -0.142502  0  4.076285  0  0  -0.109605  -0.125317  0  4.033284  0
C  C33  1  0.97645274  0.14195247  0.41544836  1  0  -0.116591  0  3.796973  0  0  -0.132514  0  4.050841  0  0  -0.142992  0  4.076438  0  0  -0.10995  -0.125793  0  4.033431  0
C  C34  1  0.20626098  0.56126293  0.39506419  1  0  -0.01485  0  3.781646  0  0  -0.028022  0  4.028748  0  0  -0.022185  0  4.04787  0  0  -0.080303  -0.0314  0  4.0155  0
C  C35  1  0.81073846  0.93837807  0.60463763  1  0  -0.018844  0  3.785191  0  0  -0.032023  0  4.032652  0  0  -0.02622  0  4.051788  0  0  -0.082576  -0.035363  0  4.019348  0
C  C36  1  0.79370292  0.43874419  0.60492853  1  0  -0.01504  0  3.781735  0  0  -0.028221  0  4.028859  0  0  -0.022385  0  4.047984  0  0  -0.080307  -0.031589  0  4.015597  0
C  C37  1  0.18924053  0.06160768  0.39536623  1  0  -0.018989  0  3.78549  0  0  -0.032177  0  4.032979  0  0  -0.026368  0  4.05211  0  0  -0.082666  -0.035524  0  4.019684  0
C  C38  1  0.07006029  0.52450503  0.29916495  1  0  -0.196679  0  3.697081  0  0  -0.21905  0  3.954982  0  0  -0.230168  0  3.975708  0  0  -0.103225  -0.211973  0  3.941112  0
C  C39  1  0.77112829  0.97547341  0.70051979  1  0  -0.195826  0  3.69669  0  0  -0.21749  0  3.954994  0  0  -0.228576  0  3.975673  0  0  -0.102474  -0.210429  0  3.94113  0
C  C40  1  0.92992537  0.47549232  0.70082527  1  0  -0.196494  0  3.696934  0  0  -0.218883  0  3.9548  0  0  -0.230003  0  3.975532  0  0  -0.103215  -0.211808  0  3.940907  0
C  C41  1  0.22888443  0.02453080  0.29949145  1  0  -0.195657  0  3.696847  0  0  -0.217298  0  3.955108  0  0  -0.228385  0  3.975788  0  0  -0.102327  -0.210236  0  3.941255  0
N  N42  1  0.50472090  0.68753524  0.16186051  1  0  0.513809  0  3.891675  0  0  0.541486  0  4.18341  0  0  0.565803  0  4.190768  0  0  0.031155  0.525324  0  4.17835  0
N  N43  1  0.34273106  0.81199544  0.83808791  1  0  0.514827  0  3.888955  0  0  0.54286  0  4.180358  0  0  0.567212  0  4.187747  0  0  0.032024  0.526676  0  4.175258  0
N  N44  1  0.49529226  0.31247109  0.83814299  1  0  0.513872  0  3.89204  0  0  0.541523  0  4.183793  0  0  0.56584  0  4.191148  0  0  0.031219  0.525361  0  4.178724  0
N  N45  1  0.65728943  0.18800336  0.16190838  1  0  0.514921  0  3.888884  0  0  0.54299  0  4.18026  0  0  0.567343  0  4.187652  0  0  0.03216  0.526801  0  4.175173  0
O  O46  1  0.02767272  0.51574710  0.12491152  1  0  -0.696411  0  2.004056  0  0  -0.647025  0  2.255747  0  0  -0.673816  0  2.251196  0  0  -0.414941  -0.627935  0  2.258102  0
O  O47  1  0.90348762  0.98444210  0.87481026  1  0  -0.696383  0  2.001585  0  0  -0.646238  0  2.252871  0  0  -0.673163  0  2.248635  0  0  -0.41235  -0.627138  0  2.255181  0
O  O48  1  0.97234249  0.48425273  0.87508005  1  0  -0.696441  0  2.00373  0  0  -0.647094  0  2.255419  0  0  -0.673881  0  2.250864  0  0  -0.414964  -0.628026  0  2.257824  0
O  O49  1  0.09654751  0.01555932  0.12519116  1  0  -0.696518  0  2.001406  0  0  -0.646335  0  2.252679  0  0  -0.673257  0  2.248439  0  0  -0.412363  -0.627242  0  2.254997  0
O  O50  1  0.42155283  0.63091295  0.07066152  1  0  -0.46574  0  1.809532  0  0  -0.43678  0  2.04186  0  0  -0.449849  0  2.035558  0  0  -0.144061  -0.42762  0  2.04612  0
O  O51  1  0.35025877  0.86745069  0.92936852  1  0  -0.466368  0  1.806666  0  0  -0.437297  0  2.038614  0  0  -0.45029  0  2.032141  0  0  -0.14491  -0.428186  0  2.043025  0
O  O52  1  0.57845720  0.36910297  0.92933961  1  0  -0.465746  0  1.80983  0  0  -0.43674  0  2.04211  0  0  -0.44982  0  2.03583  0  0  -0.144037  -0.42758  0  2.046372  0
O  O53  1  0.64975939  0.13253971  0.07062977  1  0  -0.466204  0  1.806662  0  0  -0.437186  0  2.038654  0  0  -0.450178  0  2.032185  0  0  -0.144905  -0.428067  0  2.043041  0
O  O54  1  0.68808302  0.78591308  0.18585665  1  0  -0.454403  0  1.814865  0  0  -0.418197  0  2.041141  0  0  -0.434228  0  2.039159  0  0  -0.171357  -0.407115  0  2.042468  0
O  O55  1  0.50235068  0.71414377  0.81402389  1  0  -0.454269  0  1.813301  0  0  -0.418983  0  2.040789  0  0  -0.434972  0  2.03859  0  0  -0.172058  -0.407883  0  2.042186  0
O  O56  1  0.31195471  0.21407543  0.81415550  1  0  -0.454478  0  1.814987  0  0  -0.418243  0  2.041234  0  0  -0.434272  0  2.039248  0  0  -0.171426  -0.407166  0  2.042579  0
O  O57  1  0.49768563  0.28587173  0.18596577  1  0  -0.454508  0  1.813219  0  0  -0.419267  0  2.040738  0  0  -0.435259  0  2.038537  0  0  -0.172218  -0.40815  0  2.042085  0
