# generated using pymatgen
data_Zr3H11C24Cl3O16
_symmetry_space_group_name_H-M   'P 1'
_cell_length_a   14.77040696
_cell_length_b   14.78197011
_cell_length_c   20.94946531
_cell_angle_alpha   90.00016997
_cell_angle_beta   90.00912454
_cell_angle_gamma   90.02129982
_symmetry_Int_Tables_number   1
_chemical_formula_structural   Zr3H11C24Cl3O16
_chemical_formula_sum   'Zr12 H44 C96 Cl12 O64'
_cell_volume   4574.01609324
_cell_formula_units_Z   4
loop_
 _symmetry_equiv_pos_site_id
 _symmetry_equiv_pos_as_xyz
  1  'x, y, z'
loop_
 _atom_site_type_symbol
 _atom_site_label
 _atom_site_symmetry_multiplicity
 _atom_site_fract_x
 _atom_site_fract_y
 _atom_site_fract_z
 _atom_site_occupancy
 _atom_site_pbe_bader_charge
 _atom_site_pbe_bader_spin_density
 _atom_site_pbe_cm5_charge
 _atom_site_pbe_ddec_charge
 _atom_site_pbe_ddec_spin_density
 _atom_site_pbe_ddec_sum_bond_order
 _atom_site_pbe_magmom
Zr  Zr0  1  0.38113498  0.38059906  0.50547237  1  2.638013  0  1.624196  2.376452  0  2.745866  0
Zr  Zr1  1  0.61993969  0.62003640  0.49650631  1  2.641277  0  1.631904  2.383255  0  2.758221  0
Zr  Zr2  1  0.50487241  0.50447455  0.62051340  1  2.635595  0  1.620995  2.37836  0  2.729955  0
Zr  Zr3  1  0.49569704  0.49552153  0.38115927  1  2.618619  0  1.621548  2.377701  0  2.730513  0
Zr  Zr4  1  0.38148225  0.61995828  0.50064100  1  2.635481  0  1.629197  2.379478  0  2.761142  0
Zr  Zr5  1  0.62071642  0.38179903  0.50070288  1  2.638153  0  1.630639  2.380503  0  2.763417  0
Zr  Zr6  1  0.12095347  0.88128932  0.00084871  1  2.636984  0  1.627532  2.372885  0  2.756409  0
Zr  Zr7  1  0.87751897  0.11662926  0.00099212  1  2.637173  0  1.627502  2.376611  0  2.75025  0
Zr  Zr8  1  0.11725972  0.12099146  0.00085302  1  2.63686  0  1.62433  2.372716  0  2.748665  0
Zr  Zr9  1  0.88224202  0.87784127  0.00144516  1  2.639137  0  1.633365  2.376575  0  2.77079  0
Zr  Zr10  1  0.00016364  0.99985487  0.12042792  1  2.640101  0  1.631028  2.373826  0  2.760743  0
Zr  Zr11  1  0.99949010  0.99921560  0.88163996  1  2.617859  0  1.630216  2.374073  0  2.757923  0
H  H12  1  0.31474278  0.50308685  0.59768973  1  0.603963  0  0.330994  0.423837  0  0.855413  0
H  H13  1  0.49666364  0.68480979  0.40345698  1  0.621949  0  0.33195  0.424489  0  0.853025  0
H  H14  1  0.69271486  0.50383491  0.59123632  1  0.608478  0  0.332148  0.425826  0  0.853626  0
H  H15  1  0.49778406  0.30917605  0.40991842  1  0.610277  0  0.331561  0.423996  0  0.856388  0
H  H16  1  0.18875149  0.00313433  0.09449368  1  0.609654  0  0.331561  0.423371  0  0.856857  0
H  H17  1  0.81202154  0.99704462  0.09581796  1  0.598634  0  0.332856  0.426022  0  0.854154  0
H  H18  1  0.99607048  0.18708036  0.90643245  1  0.601728  0  0.332056  0.424582  0  0.855015  0
H  H19  1  0.00194243  0.81065217  0.90746654  1  0.586469  0  0.332307  0.425151  0  0.85434  0
H  H20  1  0.08085083  0.35588485  0.50475715  1  0.104232  0  0.108145  0.115687  0  0.999444  0
H  H21  1  0.09248709  0.64260785  0.47174769  1  0.138682  0  0.102814  0.119723  0  1.034151  0
H  H22  1  0.91104145  0.36342850  0.50021700  1  0.107125  0  0.107532  0.113575  0  1.010834  0
H  H23  1  0.35828503  0.08107050  0.52322782  1  0.111552  0  0.109464  0.1163  0  0.99364  0
H  H24  1  0.64295013  0.09187491  0.48103175  1  0.134998  0  0.104948  0.122143  0  1.023272  0
H  H25  1  0.36488415  0.91130815  0.51805225  1  0.119588  0  0.106371  0.112247  0  1.015282  0
H  H26  1  0.70779873  0.27109398  0.86342146  1  0.09074  0  0.108614  0.115048  0  0.998229  0
H  H27  1  0.85863186  0.12219499  0.72294839  1  0.133078  0  0.111802  0.130482  0  0.99738  0
H  H28  1  0.63047902  0.35623992  0.77509084  1  0.098339  0  0.108011  0.115266  0  1.006577  0
H  H29  1  0.27922412  0.71497044  0.13790867  1  0.105914  0  0.110526  0.117506  0  0.990361  0
H  H30  1  0.12487651  0.86013180  0.27837342  1  0.104268  0  0.112173  0.131019  0  0.995987  0
H  H31  1  0.35689589  0.62991117  0.22620971  1  0.086595  0  0.109755  0.116461  0  1.00224  0
H  H32  1  0.28972152  0.72617959  0.86324330  1  0.091489  0  0.110756  0.118094  0  0.9899  0
H  H33  1  0.13751718  0.87344395  0.72268668  1  0.130314  0  0.111872  0.130302  0  0.99737  0
H  H34  1  0.37302016  0.64682994  0.77493156  1  0.101903  0  0.110498  0.117133  0  0.99982  0
H  H35  1  0.73430184  0.29708635  0.13832475  1  0.116998  0  0.10563  0.111331  0  1.008635  0
H  H36  1  0.86868091  0.13299278  0.27869610  1  0.096503  0  0.111648  0.130419  0  0.997297  0
H  H37  1  0.65082720  0.37666733  0.22646511  1  0.113846  0  0.107996  0.115176  0  1.006429  0
H  H38  1  0.87000002  0.84864935  0.28366788  1  0.113022  0  0.11177  0.120658  0  0.983771  0
H  H39  1  0.72728940  0.71834417  0.13020427  1  0.147416  0  0.108096  0.125368  0  1.011468  0
H  H40  1  0.77779839  0.75903270  0.36193144  1  0.136678  0  0.102662  0.11138  0  1.030178  0
H  H41  1  0.14899471  0.13186967  0.71939440  1  0.101278  0  0.112579  0.120066  0  0.986405  0
H  H42  1  0.28266010  0.27303842  0.87193767  1  0.122417  0  0.110319  0.128243  0  1.000465  0
H  H43  1  0.24046704  0.22116146  0.64049355  1  0.117385  0  0.113976  0.122548  0  0.991113  0
H  H44  1  0.70633980  0.72741517  0.86200842  1  0.110048  0  0.106522  0.112617  0  1.005188  0
H  H45  1  0.86686944  0.87212499  0.72457874  1  0.110564  0  0.111276  0.131154  0  0.994999  0
H  H46  1  0.62612023  0.64903161  0.77192326  1  0.107409  0  0.111834  0.120274  0  0.992929  0
H  H47  1  0.27188080  0.29307674  0.14088740  1  0.099128  0  0.109849  0.116075  0  0.990664  0
H  H48  1  0.12238117  0.13678255  0.27807854  1  0.107479  0  0.112429  0.131585  0  0.995307  0
H  H49  1  0.35217683  0.37118091  0.23104225  1  0.131342  0  0.112514  0.120956  0  0.993419  0
H  H50  1  0.42125788  0.14552325  0.98926049  1  0.102897  0  0.111885  0.118412  0  0.98923  0
H  H51  1  0.40685468  0.85535224  0.99485001  1  0.125912  0  0.111851  0.130023  0  0.998393  0
H  H52  1  0.59112008  0.13505351  0.99084094  1  0.124177  0  0.113204  0.121029  0  0.990829  0
H  H53  1  0.14684436  0.57711954  0.00950403  1  0.092093  0  0.111914  0.118676  0  0.988082  0
H  H54  1  0.85632696  0.59172778  0.00735241  1  0.129798  0  0.112882  0.132321  0  0.995522  0
H  H55  1  0.13601002  0.40742296  0.00857531  1  0.112174  0  0.112447  0.120056  0  0.994098  0
C  C56  1  0.19710508  0.49894488  0.49853549  1  1.549586  0  0.238465  0.641721  0  4.088152  0
C  C57  1  0.50333207  0.80476413  0.49690711  1  1.601213  0  0.234996  0.64841  0  4.095651  0
C  C58  1  0.80473555  0.50426207  0.48930540  1  1.589007  0  0.235455  0.649903  0  4.093028  0
C  C59  1  0.50022101  0.19712670  0.50730852  1  1.547105  0  0.237258  0.6399  0  4.092623  0
C  C60  1  0.35960742  0.34899069  0.65893519  1  1.577462  0  0.236043  0.650132  0  4.09262  0
C  C61  1  0.33835530  0.34747272  0.35427897  1  1.571477  0  0.236418  0.650244  0  4.089941  0
C  C62  1  0.64971216  0.64117341  0.34271505  1  1.565361  0  0.236015  0.650547  0  4.087887  0
C  C63  1  0.65127720  0.66167505  0.64842034  1  1.55713  0  0.236311  0.650679  0  4.089685  0
C  C64  1  0.35557688  0.66229594  0.65096323  1  1.56081  0  0.235032  0.648873  0  4.097174  0
C  C65  1  0.65376515  0.34613841  0.65115341  1  1.560941  0  0.235841  0.650337  0  4.092839  0
C  C66  1  0.65463870  0.34794414  0.35014912  1  1.563094  0  0.235488  0.649643  0  4.096064  0
C  C67  1  0.33802549  0.64433498  0.35016744  1  1.558551  0  0.234906  0.648148  0  4.097639  0
C  C68  1  0.15059959  0.84588582  0.15222891  1  1.551219  0  0.239368  0.641953  0  4.094638  0
C  C69  1  0.85193741  0.15566227  0.15253492  1  1.553528  0  0.23851  0.641585  0  4.091292  0
C  C70  1  0.83988757  0.14340615  0.84935966  1  1.552368  0  0.238659  0.642377  0  4.090414  0
C  C71  1  0.15670645  0.85248239  0.84913917  1  1.563678  0  0.238343  0.63995  0  4.095543  0
C  C72  1  0.30317367  0.00307105  0.99496318  1  1.537761  0  0.239667  0.642529  0  4.095182  0
C  C73  1  0.00400464  0.69531134  0.00622874  1  1.590962  0  0.239059  0.641279  0  4.097701  0
C  C74  1  0.69579339  0.99305944  0.99727168  1  1.575478  0  0.236574  0.650699  0  4.095058  0
C  C75  1  0.99354946  0.30278299  0.00473256  1  1.547034  0  0.236517  0.650728  0  4.09418  0
C  C76  1  0.14574812  0.15831621  0.15239027  1  1.54956  0  0.238822  0.640765  0  4.094264  0
C  C77  1  0.15458183  0.14902772  0.84943862  1  1.546756  0  0.239257  0.642536  0  4.092097  0
C  C78  1  0.84478864  0.84968844  0.84998975  1  1.540716  0  0.238241  0.642113  0  4.091812  0
C  C79  1  0.85473668  0.84201381  0.15325080  1  1.528197  0  0.23839  0.641508  0  4.094869  0
C  C80  1  0.90596075  0.50627248  0.48444843  1  -0.042891  0  -0.014522  -0.09597  0  3.90073  0
C  C81  1  0.09643681  0.49957154  0.49080029  1  -0.052674  0  -0.009967  -0.009849  0  3.956972  0
C  C82  1  0.95835740  0.58516816  0.47435191  1  0.001479  0  0.026449  0.147234  0  3.989376  0
C  C83  1  0.04591018  0.41977983  0.49694311  1  -0.04079  0  -0.083372  -0.100714  0  3.973617  0
C  C84  1  0.05258114  0.58138669  0.47831453  1  0.090532  0  -0.086879  -0.162867  0  3.948896  0
C  C85  1  0.95213755  0.42402209  0.49405597  1  0.037885  0  -0.077867  -0.074455  0  3.964414  0
C  C86  1  0.50627357  0.90606038  0.49629972  1  -0.051191  0  -0.014358  -0.0941  0  3.900664  0
C  C87  1  0.50095607  0.09613826  0.50394847  1  -0.058571  0  -0.01065  -0.012022  0  3.963022  0
C  C88  1  0.58495882  0.95809037  0.48439935  1  0.080832  0  0.026404  0.146567  0  3.993093  0
C  C89  1  0.42154916  0.04592995  0.51333991  1  -0.03157  0  -0.082071  -0.098064  0  3.970536  0
C  C90  1  0.58201171  0.05213142  0.48935118  1  0.008499  0  -0.087899  -0.165343  0  3.954384  0
C  C91  1  0.42518167  0.95222999  0.50996907  1  0.029708  0  -0.077638  -0.074178  0  3.962965  0
C  C92  1  0.70138497  0.28892563  0.69986849  1  0.023246  0  -0.013015  -0.092637  0  3.89517  0
C  C93  1  0.78858690  0.19202669  0.79828010  1  -0.006654  0  -0.010491  -0.014196  0  3.966676  0
C  C94  1  0.76587064  0.22113471  0.68533182  1  0.058915  0  0.02689  0.145498  0  3.991982  0
C  C95  1  0.72339609  0.25750792  0.81350124  1  0.010998  0  -0.082985  -0.100052  0  3.973044  0
C  C96  1  0.80855135  0.17365246  0.73444091  1  -0.024716  0  -0.086398  -0.163542  0  3.952612  0
C  C97  1  0.68101459  0.30467429  0.76462319  1  -0.027825  0  -0.077655  -0.075634  0  3.966661  0
C  C98  1  0.28496744  0.69620646  0.30135563  1  0.019671  0  -0.013167  -0.093645  0  3.89959  0
C  C99  1  0.19752649  0.79286925  0.20311823  1  -0.028667  0  -0.010626  -0.013977  0  3.968909  0
C  C100  1  0.21820721  0.76173474  0.31591699  1  0.003435  0  0.027793  0.14575  0  3.994231  0
C  C101  1  0.26270782  0.72747529  0.18780640  1  -0.021516  0  -0.082706  -0.10004  0  3.976601  0
C  C102  1  0.17564840  0.80937396  0.26687187  1  0.073057  0  -0.085694  -0.162741  0  3.951656  0
C  C103  1  0.30531411  0.68044561  0.23661429  1  0.005163  0  -0.077364  -0.076377  0  3.972113  0
C  C104  1  0.30335535  0.71526913  0.69966374  1  -0.002832  0  -0.013007  -0.094981  0  3.900318  0
C  C105  1  0.20866939  0.80476284  0.79802666  1  -0.070782  0  -0.010553  -0.013248  0  3.967584  0
C  C106  1  0.23621532  0.78041506  0.68507589  1  0.072363  0  0.026645  0.144963  0  3.994028  0
C  C107  1  0.27531480  0.74081288  0.81330710  1  0.016867  0  -0.08249  -0.100197  0  3.97567  0
C  C108  1  0.18962296  0.82404549  0.73418913  1  0.0402  0  -0.085627  -0.16333  0  3.951777  0
C  C109  1  0.32134934  0.69724864  0.76446209  1  -0.038852  0  -0.077186  -0.075231  0  3.970685  0
C  C110  1  0.71111484  0.29936695  0.30159683  1  0.035983  0  -0.013386  -0.095439  0  3.900474  0
C  C111  1  0.80527595  0.20895785  0.20343819  1  -0.035043  0  -0.010858  -0.013864  0  3.964935  0
C  C112  1  0.77471878  0.23078781  0.31623603  1  0.050024  0  0.027069  0.146078  0  3.992821  0
C  C113  1  0.74472760  0.27874105  0.18816525  1  -0.081905  0  -0.082544  -0.097332  0  3.966592  0
C  C114  1  0.82077821  0.18646861  0.26722443  1  0.062464  0  -0.086164  -0.163413  0  3.953447  0
C  C115  1  0.69877030  0.32266858  0.23694916  1  -0.014016  0  -0.076961  -0.072984  0  3.959399  0
C  C116  1  0.70134884  0.68883756  0.29107133  1  0.034238  0  -0.013389  -0.092652  0  3.894357  0
C  C117  1  0.80382236  0.78867530  0.20202192  1  -0.022964  0  -0.010702  -0.014053  0  3.966461  0
C  C118  1  0.68760224  0.67708203  0.22480776  1  0.01894  0  0.025216  0.146077  0  3.996783  0
C  C119  1  0.81895140  0.80060969  0.26751037  1  -0.039062  0  -0.081018  -0.096204  0  3.965424  0
C  C120  1  0.73858418  0.72690141  0.18116182  1  -0.003206  0  -0.087391  -0.164226  0  3.953802  0
C  C121  1  0.76795864  0.75110826  0.31076967  1  -0.011799  0  -0.077772  -0.074925  0  3.970411  0
C  C122  1  0.31242281  0.29708436  0.71084647  1  -0.007745  0  -0.01247  -0.095088  0  3.897487  0
C  C123  1  0.20986962  0.19802188  0.80060472  1  -0.006988  0  -0.009951  -0.013542  0  3.966495  0
C  C124  1  0.32498357  0.31058234  0.77708229  1  0.027126  0  0.025186  0.145232  0  3.999326  0
C  C125  1  0.19815951  0.18206701  0.73518186  1  -0.032554  0  -0.080384  -0.097968  0  3.971238  0
C  C126  1  0.27357935  0.26161054  0.82103418  1  0.028377  0  -0.087145  -0.165638  0  3.955134  0
C  C127  1  0.24888952  0.23137694  0.69161562  1  0.003895  0  -0.075567  -0.072951  0  3.962506  0
C  C128  1  0.70083105  0.71543093  0.69806644  1  -0.026198  0  -0.013984  -0.094872  0  3.897963  0
C  C129  1  0.79229705  0.80378076  0.79833961  1  -0.079373  0  -0.010916  -0.015343  0  3.97122  0
C  C130  1  0.76896562  0.78003373  0.68480078  1  0.058174  0  0.026094  0.146581  0  4.002069  0
C  C131  1  0.72358819  0.74142248  0.81241482  1  -0.00516  0  -0.084234  -0.101572  0  3.977943  0
C  C132  1  0.81389004  0.82312238  0.73492013  1  0.078743  0  -0.08644  -0.16111  0  3.947205  0
C  C133  1  0.67921423  0.69843135  0.76252652  1  -0.01461  0  -0.077786  -0.075739  0  3.967339  0
C  C134  1  0.28360819  0.29850617  0.30476623  1  -0.005759  0  -0.01334  -0.095337  0  3.897563  0
C  C135  1  0.19259365  0.20961995  0.20427542  1  -0.032708  0  -0.010565  -0.013725  0  3.965551  0
C  C136  1  0.21726468  0.23204941  0.31786111  1  0.035932  0  0.027097  0.146071  0  3.998492  0
C  C137  1  0.25695820  0.27648765  0.19045965  1  0.030442  0  -0.083118  -0.101977  0  3.981962  0
C  C138  1  0.17275451  0.18846565  0.26774177  1  0.025972  0  -0.08494  -0.160994  0  3.9428  0
C  C139  1  0.30123874  0.31957956  0.24033934  1  -0.052206  0  -0.077054  -0.074853  0  3.968871  0
C  C140  1  0.59459362  0.99065055  0.99420864  1  -0.084764  0  -0.013421  -0.09569  0  3.904508  0
C  C141  1  0.40424667  0.00066525  0.99251724  1  -0.02257  0  -0.008834  -0.01126  0  3.964778  0
C  C142  1  0.54171707  0.91087193  0.99474642  1  0.099851  0  0.026399  0.145085  0  3.99954  0
C  C143  1  0.45557064  0.08033873  0.99075166  1  -0.022931  0  -0.081981  -0.099981  0  3.976573  0
C  C144  1  0.44750873  0.91671629  0.99386235  1  -0.001469  0  -0.085788  -0.163311  0  3.951483  0
C  C145  1  0.54926915  0.07442188  0.99159512  1  0.027564  0  -0.075668  -0.073003  0  3.964212  0
C  C146  1  0.99144945  0.40399306  0.00717126  1  0.054764  0  -0.014482  -0.096901  0  3.905451  0
C  C147  1  0.00179520  0.59426689  0.00814599  1  -0.03085  0  -0.008789  -0.011956  0  3.965238  0
C  C148  1  0.91172487  0.45694616  0.00723366  1  0.046353  0  0.0273  0.146329  0  3.996664  0
C  C149  1  0.08149986  0.54293198  0.00893612  1  0.024346  0  -0.081321  -0.099658  0  3.97818  0
C  C150  1  0.91770706  0.55107681  0.00773100  1  -0.007643  0  -0.085054  -0.160866  0  3.946236  0
C  C151  1  0.07538169  0.44930056  0.00846359  1  -0.063436  0  -0.076405  -0.07493  0  3.970387  0
Cl  Cl152  1  0.91350408  0.69018097  0.45619963  1  -0.193111  0  4.1e-05  -0.066246  0  1.550263  0
Cl  Cl153  1  0.68783189  0.91308295  0.46089660  1  -0.189303  0  -0.005337  -0.069697  0  1.540125  0
Cl  Cl154  1  0.79881964  0.19113518  0.60895221  1  -0.184495  0  -0.002162  -0.065619  0  1.50315  0
Cl  Cl155  1  0.18256446  0.78898379  0.39219572  1  -0.178582  0  0.005351  -0.06232  0  1.533364  0
Cl  Cl156  1  0.20496830  0.81185685  0.60861732  1  -0.186922  0  0.000569  -0.064333  0  1.507284  0
Cl  Cl157  1  0.80064811  0.19413192  0.39255825  1  -0.182873  0  0.001081  -0.06601  0  1.520191  0
Cl  Cl158  1  0.60909141  0.60350748  0.19195900  1  -0.193782  0  -0.009438  -0.07857  0  1.494954  0
Cl  Cl159  1  0.40173718  0.38627536  0.80956006  1  -0.195587  0  -0.008541  -0.076963  0  1.490352  0
Cl  Cl160  1  0.80314798  0.81052164  0.60903468  1  -0.165546  0  -0.003247  -0.072718  0  1.561037  0
Cl  Cl161  1  0.18604710  0.19822218  0.39374193  1  -0.176519  0  -0.002029  -0.068508  0  1.494783  0
Cl  Cl162  1  0.58535542  0.80229167  0.99737842  1  -0.185478  0  -0.002396  -0.070363  0  1.503188  0
Cl  Cl163  1  0.80290788  0.41343782  0.00622033  1  -0.193865  0  -0.003176  -0.072184  0  1.498898  0
O  O164  1  0.23577078  0.42199346  0.50425133  1  -1.173806  0  -0.355059  -0.618652  0  2.277091  0
O  O165  1  0.57868099  0.76267211  0.49681249  1  -1.177457  0  -0.361462  -0.620568  0  2.372866  0
O  O166  1  0.76317150  0.57981262  0.49204641  1  -1.173611  0  -0.361287  -0.622517  0  2.361257  0
O  O167  1  0.42295848  0.23598268  0.50983221  1  -1.179771  0  -0.355577  -0.61876  0  2.277805  0
O  O168  1  0.41689578  0.40939860  0.67475653  1  -1.172906  0  -0.355707  -0.619303  0  2.352398  0
O  O169  1  0.39798247  0.40298650  0.33327992  1  -1.17331  0  -0.358787  -0.623746  0  2.281234  0
O  O170  1  0.58944471  0.58358325  0.32678185  1  -1.17765  0  -0.36005  -0.623149  0  2.352825  0
O  O171  1  0.59568090  0.60175935  0.66917855  1  -1.180731  0  -0.362862  -0.628384  0  2.284003  0
O  O172  1  0.33810502  0.67732641  0.59235361  1  -1.158818  0  -0.360625  -0.6203  0  2.377019  0
O  O173  1  0.67179117  0.33137363  0.59258585  1  -1.173167  0  -0.361483  -0.622202  0  2.378685  0
O  O174  1  0.67085036  0.33157126  0.40872526  1  -1.168864  0  -0.361935  -0.620771  0  2.3885  0
O  O175  1  0.32457636  0.66380228  0.40857774  1  -1.167342  0  -0.359849  -0.618744  0  2.385914  0
O  O176  1  0.59917492  0.40664122  0.67153852  1  -1.175529  0  -0.348172  -0.614525  0  2.261166  0
O  O177  1  0.59319374  0.40148711  0.32971036  1  -1.171057  0  -0.348324  -0.61422  0  2.258759  0
O  O178  1  0.39479273  0.58570986  0.32992089  1  -1.173062  0  -0.348968  -0.615627  0  2.260614  0
O  O179  1  0.41286612  0.60445304  0.67148816  1  -1.175377  0  -0.347405  -0.613738  0  2.262613  0
O  O180  1  0.33701977  0.32958029  0.60165082  1  -1.171835  0  -0.351544  -0.616575  0  2.282202  0
O  O181  1  0.66791345  0.67686678  0.58993483  1  -1.15676  0  -0.346682  -0.603824  0  2.352278  0
O  O182  1  0.66943036  0.66316886  0.39994532  1  -1.164654  0  -0.349742  -0.611305  0  2.308372  0
O  O183  1  0.32383038  0.33047174  0.41286770  1  -1.173958  0  -0.350261  -0.613887  0  2.356431  0
O  O184  1  0.57677324  0.23704697  0.50604504  1  -1.178302  0  -0.350524  -0.609187  0  2.294178  0
O  O185  1  0.23672438  0.57565447  0.50004332  1  -1.179107  0  -0.352522  -0.611127  0  2.292515  0
O  O186  1  0.42551352  0.76704158  0.49812087  1  -1.181588  0  -0.347755  -0.612699  0  2.267922  0
O  O187  1  0.76681603  0.42677822  0.49295628  1  -1.179158  0  -0.348553  -0.613187  0  2.275914  0
O  O188  1  0.49801374  0.36343414  0.43590960  1  -1.241635  0  -0.694031  -1.067254  0  2.362408  0
O  O189  1  0.63777702  0.50308523  0.56590371  1  -1.239013  0  -0.694284  -1.068332  0  2.358292  0
O  O190  1  0.49773608  0.63191047  0.43080041  1  -1.251735  0  -0.695364  -1.067234  0  2.364841  0
O  O191  1  0.36815047  0.50237962  0.57079467  1  -1.238194  0  -0.692812  -1.067649  0  2.355385  0
O  O192  1  0.50215038  0.60067080  0.54879791  1  -1.198742  0  -0.791951  -1.148355  0  2.129674  0
O  O193  1  0.39941309  0.49806435  0.45303972  1  -1.188533  0  -0.789857  -1.146976  0  2.123811  0
O  O194  1  0.59751703  0.49880742  0.44921112  1  -1.193023  0  -0.792028  -1.148535  0  2.130886  0
O  O195  1  0.50245256  0.40312209  0.55229329  1  -1.201426  0  -0.790257  -1.148768  0  2.126367  0
O  O196  1  0.17178023  0.82884860  0.09433218  1  -1.175483  0  -0.353935  -0.618025  0  2.275266  0
O  O197  1  0.83002726  0.17190083  0.09469500  1  -1.171975  0  -0.352236  -0.61421  0  2.277502  0
O  O198  1  0.82092188  0.16252065  0.90727894  1  -1.170002  0  -0.35223  -0.616606  0  2.276202  0
O  O199  1  0.17483393  0.83201027  0.90696933  1  -1.182521  0  -0.35244  -0.616703  0  2.274901  0
O  O200  1  0.26458401  0.08019434  0.99689527  1  -1.174396  0  -0.348313  -0.613212  0  2.262345  0
O  O201  1  0.92724575  0.73503444  0.00480324  1  -1.183429  0  -0.356482  -0.614931  0  2.301451  0
O  O202  1  0.73819213  0.91813820  0.99869407  1  -1.168479  0  -0.357478  -0.61904  0  2.372086  0
O  O203  1  0.07166188  0.26540082  0.00370032  1  -1.181242  0  -0.355165  -0.61995  0  2.279688  0
O  O204  1  0.08940799  0.09776920  0.17015647  1  -1.182334  0  -0.356374  -0.615079  0  2.299678  0
O  O205  1  0.09593015  0.09210420  0.82974312  1  -1.181716  0  -0.348429  -0.614236  0  2.259148  0
O  O206  1  0.90450654  0.90702203  0.83212874  1  -1.184383  0  -0.358654  -0.618492  0  2.300212  0
O  O207  1  0.91080937  0.90166517  0.17285068  1  -1.176224  0  -0.350409  -0.614986  0  2.259676  0
O  O208  1  0.16973736  0.16937707  0.90781329  1  -1.17317  0  -0.35905  -0.619692  0  2.297444  0
O  O209  1  0.82784842  0.82772962  0.90769431  1  -1.165854  0  -0.350473  -0.61322  0  2.268467  0
O  O210  1  0.83674020  0.82455934  0.09486451  1  -1.16533  0  -0.357737  -0.61595  0  2.304334  0
O  O211  1  0.16624892  0.17704540  0.09462528  1  -1.173532  0  -0.351854  -0.618245  0  2.261013  0
O  O212  1  0.26328026  0.92636210  0.99633896  1  -1.173701  0  -0.359247  -0.617134  0  2.306357  0
O  O213  1  0.91843921  0.26063256  0.00283947  1  -1.177969  0  -0.356925  -0.618047  0  2.374072  0
O  O214  1  0.73298812  0.07119260  0.99921994  1  -1.17798  0  -0.354144  -0.618685  0  2.279187  0
O  O215  1  0.08111454  0.73419937  0.00493427  1  -1.17904  0  -0.349555  -0.614636  0  2.26376  0
O  O216  1  0.09699357  0.90952996  0.83102324  1  -1.17919  0  -0.355499  -0.615748  0  2.285713  0
O  O217  1  0.09332991  0.90517652  0.17058183  1  -1.182112  0  -0.354929  -0.614979  0  2.288404  0
O  O218  1  0.90893563  0.09602930  0.17087170  1  -1.179843  0  -0.355535  -0.616225  0  2.286812  0
O  O219  1  0.90074618  0.08765963  0.83109716  1  -1.181709  0  -0.355666  -0.616375  0  2.284814  0
O  O220  1  0.00177599  0.86410922  0.93426822  1  -1.21947  0  -0.695841  -1.072977  0  2.365625  0
O  O221  1  0.99699383  0.13370814  0.93331810  1  -1.232541  0  -0.693883  -1.068698  0  2.35838  0
O  O222  1  0.86536989  0.99772961  0.06886084  1  -1.230409  0  -0.69526  -1.071142  0  2.36145  0
O  O223  1  0.13521625  0.00220158  0.06771720  1  -1.243571  0  -0.693547  -1.068949  0  2.359335  0
O  O224  1  0.99830123  0.09883822  0.05018200  1  -1.199588  0  -0.790691  -1.147488  0  2.127672  0
O  O225  1  0.00194157  0.90031486  0.05092161  1  -1.201993  0  -0.792757  -1.150957  0  2.129736  0
O  O226  1  0.90044966  0.99749055  0.95178177  1  -1.193107  0  -0.792808  -1.1496  0  2.130928  0
O  O227  1  0.09895323  0.00086753  0.95129332  1  -1.185859  0  -0.790073  -1.148484  0  2.122956  0
