# generated using pymatgen
data_CuH18C38N2(OF3)4
_symmetry_space_group_name_H-M   'P 1'
_cell_length_a   11.02065917
_cell_length_b   14.78705441
_cell_length_c   25.25621402
_cell_angle_alpha   90.00002682
_cell_angle_beta   89.99995842
_cell_angle_gamma   89.99996416
_symmetry_Int_Tables_number   1
_chemical_formula_structural   CuH18C38N2(OF3)4
_chemical_formula_sum   'Cu4 H72 C152 N8 O16 F48'
_cell_volume   4115.83059794
_cell_formula_units_Z   4
loop_
 _symmetry_equiv_pos_site_id
 _symmetry_equiv_pos_as_xyz
  1  'x, y, z'
loop_
 _atom_site_type_symbol
 _atom_site_label
 _atom_site_symmetry_multiplicity
 _atom_site_fract_x
 _atom_site_fract_y
 _atom_site_fract_z
 _atom_site_occupancy
 _atom_site_pbe_bader_charge
 _atom_site_pbe_bader_spin_density
 _atom_site_pbe_cm5_charge
 _atom_site_pbe_ddec_charge
 _atom_site_pbe_ddec_spin_density
 _atom_site_pbe_ddec_sum_bond_order
 _atom_site_pbe_magmom
Cu  Cu0  1  0.14874898  0.25000005  0.74999959  1  1.117506  -0.587131  0.765431  0.787424  -0.746676  2.306077  -0.584
Cu  Cu1  1  0.35125091  0.24999775  0.25000023  1  1.117254  -0.587126  0.765385  0.787318  -0.74667  2.306063  -0.584
Cu  Cu2  1  0.85125436  0.75000256  0.24999982  1  1.11726  -0.587131  0.765375  0.787244  -0.746676  2.306204  -0.584
Cu  Cu3  1  0.64874972  0.75000012  0.74999997  1  1.117465  -0.587132  0.765379  0.787341  -0.746678  2.306076  -0.584
H  H4  1  0.08169956  0.06913441  0.71147718  1  0.13662  -0.002679  0.123401  0.104436  -0.00129  0.992415  -0.002
H  H5  1  0.41830320  0.06913482  0.28852260  1  0.136543  -0.002679  0.123363  0.104414  -0.00129  0.992533  -0.002
H  H6  1  0.41830039  0.43086471  0.21147785  1  0.136534  -0.002679  0.1234  0.104418  -0.00129  0.992439  -0.002
H  H7  1  0.08170026  0.43086504  0.78852282  1  0.136609  -0.002679  0.123382  0.104407  -0.00129  0.992463  -0.002
H  H8  1  0.91830741  0.93086752  0.28852184  1  0.136403  -0.002679  0.123409  0.104443  -0.001289  0.992489  -0.002
H  H9  1  0.58169652  0.93086711  0.71147761  1  0.136705  -0.002678  0.123405  0.104416  -0.001289  0.992455  -0.002
H  H10  1  0.58169479  0.56913249  0.78852197  1  0.136701  -0.002678  0.123392  0.104421  -0.001289  0.99251  -0.002
H  H11  1  0.91830491  0.56913554  0.21147818  1  0.136552  -0.002679  0.123383  0.104425  -0.001289  0.992557  -0.002
H  H12  1  0.92783596  0.00346931  0.64971125  1  0.104936  -0.001277  0.10623  0.123604  -0.000652  1.02318  -0.001
H  H13  1  0.57216874  0.00346859  0.35028678  1  0.104902  -0.001277  0.106175  0.123502  -0.000652  1.02326  -0.001
H  H14  1  0.57216689  0.49653087  0.14971362  1  0.104922  -0.001277  0.106196  0.123519  -0.000652  1.023237  -0.001
H  H15  1  0.92783650  0.49653177  0.85028848  1  0.104906  -0.001277  0.106214  0.123559  -0.000652  1.023214  -0.001
H  H16  1  0.07217101  0.99653194  0.35028817  1  0.104872  -0.001277  0.106164  0.123515  -0.000652  1.023224  -0.001
H  H17  1  0.42783188  0.99653266  0.64971264  1  0.104887  -0.001277  0.106192  0.123521  -0.000653  1.023202  -0.001
H  H18  1  0.42783010  0.50346768  0.85028777  1  0.10488  -0.001277  0.106183  0.123542  -0.000652  1.023172  -0.001
H  H19  1  0.07216958  0.50346881  0.14971331  1  0.104907  -0.001277  0.106174  0.123526  -0.000652  1.023193  -0.001
H  H20  1  0.79580294  0.27564389  0.62323584  1  0.087419  -0.001224  0.107484  0.120867  -0.00063  1.004606  -0.001
H  H21  1  0.70419882  0.27564381  0.37676423  1  0.08739  -0.001224  0.107468  0.120813  -0.00063  1.004614  -0.001
H  H22  1  0.70419815  0.22435694  0.12323573  1  0.087404  -0.001224  0.107473  0.120859  -0.00063  1.004615  -0.001
H  H23  1  0.79580365  0.22435657  0.87676512  1  0.087467  -0.001224  0.107482  0.120873  -0.00063  1.004599  -0.001
H  H24  1  0.20419769  0.72435533  0.37676556  1  0.087452  -0.001224  0.107475  0.120829  -0.00063  1.004571  -0.001
H  H25  1  0.29580453  0.72435677  0.62323558  1  0.087482  -0.001224  0.107487  0.120864  -0.00063  1.00463  -0.001
H  H26  1  0.29580338  0.77564363  0.87676527  1  0.087448  -0.001224  0.107491  0.120882  -0.00063  1.004565  -0.001
H  H27  1  0.20419879  0.77564468  0.12323548  1  0.087383  -0.001224  0.107479  0.120848  -0.00063  1.004572  -0.001
H  H28  1  0.95569620  0.32953629  0.68592218  1  0.144514  -0.002516  0.113884  0.091675  -0.001182  1.032203  -0.002
H  H29  1  0.54430461  0.32953555  0.31407910  1  0.144518  -0.002516  0.11389  0.091658  -0.001182  1.032253  -0.002
H  H30  1  0.54430387  0.17046460  0.18592091  1  0.144519  -0.002516  0.113867  0.091655  -0.001182  1.032279  -0.002
H  H31  1  0.95569616  0.17046477  0.81407834  1  0.144522  -0.002515  0.11389  0.091688  -0.001181  1.032205  -0.002
H  H32  1  0.04430533  0.67046631  0.31407803  1  0.144568  -0.002516  0.113848  0.091674  -0.001182  1.032273  -0.002
H  H33  1  0.45569693  0.67046638  0.68592151  1  0.144572  -0.002516  0.113879  0.091681  -0.001182  1.032191  -0.002
H  H34  1  0.45569675  0.82953395  0.81407890  1  0.144569  -0.002516  0.113871  0.09171  -0.001182  1.032215  -0.002
H  H35  1  0.04430538  0.82953648  0.18592147  1  0.144507  -0.002516  0.113882  0.091652  -0.001182  1.032269  -0.002
H  H36  1  0.72306931  0.90833650  0.58407329  1  0.094801  -5e-06  0.09768  0.102248  -5e-06  1.029202  0.0
H  H37  1  0.77693102  0.90833641  0.41592773  1  0.094824  -5e-06  0.097692  0.102258  -5e-06  1.029234  0.0
H  H38  1  0.77692962  0.59166333  0.08407233  1  0.094803  -5e-06  0.097676  0.102263  -5e-06  1.029234  0.0
H  H39  1  0.72306825  0.59166370  0.91592703  1  0.094804  -5e-06  0.097686  0.102274  -5e-06  1.029206  0.0
H  H40  1  0.27692769  0.09166273  0.41592969  1  0.094817  -5e-06  0.097695  0.102286  -5e-06  1.029185  0.0
H  H41  1  0.22306779  0.09166281  0.58407287  1  0.094814  -5e-06  0.097673  0.102247  -5e-06  1.029222  0.0
H  H42  1  0.22306920  0.40833725  0.91592748  1  0.094809  -5e-06  0.097708  0.102321  -5e-06  1.029162  0.0
H  H43  1  0.27692875  0.40833755  0.08407160  1  0.09482  -5e-06  0.097692  0.102295  -5e-06  1.029179  0.0
H  H44  1  0.69361470  0.74298917  0.57852296  1  0.033361  1.4e-05  0.097851  0.098096  1.8e-05  1.003738  0.0
H  H45  1  0.80638576  0.74299043  0.42147723  1  0.033389  1.4e-05  0.097857  0.098093  1.8e-05  1.003746  0.0
H  H46  1  0.80638423  0.75700930  0.07852322  1  0.033373  1.4e-05  0.097842  0.098066  1.8e-05  1.003746  0.0
H  H47  1  0.69361440  0.75701037  0.92147618  1  0.033354  1.4e-05  0.097832  0.098075  1.8e-05  1.003762  0.0
H  H48  1  0.30638502  0.25700938  0.42147725  1  0.033381  1.4e-05  0.097825  0.098027  1.8e-05  1.003781  0.0
H  H49  1  0.19361396  0.25701015  0.57852377  1  0.033374  1.4e-05  0.09783  0.098078  1.8e-05  1.003757  0.0
H  H50  1  0.19361458  0.24299060  0.92147620  1  0.033324  1.4e-05  0.097815  0.098058  1.8e-05  1.003743  0.0
H  H51  1  0.30638532  0.24299021  0.07852284  1  0.03339  1.4e-05  0.097832  0.098038  1.8e-05  1.003787  0.0
H  H52  1  0.52969354  0.67904542  0.52114185  1  0.084622  -0.0  0.103065  0.101808  -2e-06  0.984872  0.0
H  H53  1  0.97030969  0.67904529  0.47885714  1  0.084622  -1e-06  0.103058  0.101798  -2e-06  0.984774  0.0
H  H54  1  0.97030548  0.82095436  0.02114287  1  0.084631  -1e-06  0.103066  0.101812  -2e-06  0.98489  0.0
H  H55  1  0.52969219  0.82095488  0.97885734  1  0.084614  -1e-06  0.103061  0.101806  -2e-06  0.984826  0.0
H  H56  1  0.47030708  0.32095449  0.47885757  1  0.084631  -0.0  0.103064  0.101791  -2e-06  0.98484  0.0
H  H57  1  0.02969275  0.32095528  0.52114267  1  0.084615  -1e-06  0.10307  0.101808  -2e-06  0.984837  0.0
H  H58  1  0.02969242  0.17904554  0.97885734  1  0.084623  -1e-06  0.103066  0.101817  -2e-06  0.984851  0.0
H  H59  1  0.47030753  0.17904570  0.02114168  1  0.084627  -0.0  0.103063  0.101779  -2e-06  0.984856  0.0
H  H60  1  0.39685848  0.78116989  0.46939303  1  0.087635  -1.2e-05  0.097609  0.100977  -1.3e-05  1.020351  0.0
H  H61  1  0.10314369  0.78116931  0.53060653  1  0.087643  -1.2e-05  0.097609  0.100979  -1.3e-05  1.020304  0.0
H  H62  1  0.10314153  0.71883186  0.96939359  1  0.087652  -1.2e-05  0.097611  0.100967  -1.3e-05  1.020367  0.0
H  H63  1  0.39685797  0.71883206  0.03060715  1  0.087625  -1.2e-05  0.097609  0.100954  -1.3e-05  1.020342  0.0
H  H64  1  0.60314215  0.21883137  0.53060678  1  0.087641  -1.2e-05  0.097626  0.100992  -1.3e-05  1.020328  0.0
H  H65  1  0.89685875  0.21883127  0.46939289  1  0.087623  -1.2e-05  0.097621  0.100985  -1.3e-05  1.020349  0.0
H  H66  1  0.89685819  0.28116871  0.03060702  1  0.087636  -1.2e-05  0.097616  0.10096  -1.3e-05  1.02034  0.0
H  H67  1  0.60314175  0.28116987  0.96939266  1  0.087622  -1.2e-05  0.097607  0.100961  -1.3e-05  1.020358  0.0
H  H68  1  0.43036375  0.38533250  0.65002971  1  0.108562  0.000147  0.093468  0.135401  0.000122  1.058772  0.0
H  H69  1  0.06963059  0.38532502  0.34996579  1  0.108667  0.000147  0.093495  0.135461  0.000122  1.058738  0.0
H  H70  1  0.06963178  0.11466589  0.15003358  1  0.108583  0.000147  0.093453  0.135373  0.000122  1.058821  0.0
H  H71  1  0.43036369  0.11466814  0.84996938  1  0.108615  0.000147  0.093473  0.135381  0.000122  1.0588  0.0
H  H72  1  0.56963779  0.61467687  0.34996812  1  0.108752  0.000147  0.093446  0.135393  0.000122  1.058788  0.0
H  H73  1  0.93036369  0.61467150  0.65003085  1  0.108652  0.000147  0.093468  0.135427  0.000122  1.058772  0.0
H  H74  1  0.93036522  0.88532860  0.84996861  1  0.108648  0.000147  0.093482  0.135441  0.000122  1.058783  0.0
H  H75  1  0.56963331  0.88533109  0.15003280  1  0.108615  0.000147  0.093478  0.135439  0.000122  1.058781  0.0
C  C76  1  0.01660092  0.11187112  0.69080901  1  0.428591  -0.000212  0.049994  0.10041  0.000125  3.932017  -0.001
C  C77  1  0.48340090  0.11187152  0.30918959  1  0.428845  -0.000211  0.049972  0.10032  0.000125  3.932129  -0.001
C  C78  1  0.48339907  0.38812798  0.19081044  1  0.429103  -0.000211  0.050011  0.100405  0.000125  3.932008  -0.001
C  C79  1  0.01660161  0.38812836  0.80919061  1  0.428749  -0.000212  0.050005  0.100423  0.000125  3.932053  -0.001
C  C80  1  0.98340334  0.88813081  0.30918961  1  0.429085  -0.000211  0.049912  0.100292  0.000125  3.931884  -0.001
C  C81  1  0.51660063  0.88813041  0.69081022  1  0.428633  -0.000212  0.05001  0.100446  0.000126  3.931971  -0.001
C  C82  1  0.51659974  0.61186989  0.80919016  1  0.428642  -0.000212  0.04995  0.100361  0.000125  3.931973  -0.001
C  C83  1  0.98340174  0.61187154  0.19081079  1  0.428822  -0.000211  0.049937  0.100268  0.000125  3.932053  -0.001
C  C84  1  0.93082486  0.07596719  0.65670716  1  0.038178  -0.007671  -0.073019  -0.158625  -0.00514  3.886886  -0.006
C  C85  1  0.56917979  0.07596579  0.34329167  1  0.038068  -0.007673  -0.072936  -0.158389  -0.00514  3.886799  -0.006
C  C86  1  0.56917708  0.42403368  0.15670873  1  0.037741  -0.007673  -0.072969  -0.158415  -0.00514  3.886753  -0.006
C  C87  1  0.93082637  0.42403389  0.84329297  1  0.038023  -0.007672  -0.073006  -0.158576  -0.00514  3.886855  -0.006
C  C88  1  0.06918121  0.92403542  0.34329305  1  0.037992  -0.007673  -0.072907  -0.158435  -0.00514  3.886637  -0.006
C  C89  1  0.43082265  0.92403479  0.65670774  1  0.038024  -0.007672  -0.072981  -0.158465  -0.00514  3.886774  -0.006
C  C90  1  0.43082173  0.57596555  0.84329267  1  0.038055  -0.007672  -0.072968  -0.158518  -0.00514  3.886708  -0.006
C  C91  1  0.06917970  0.57596601  0.15670803  1  0.03805  -0.007673  -0.072914  -0.158392  -0.00514  3.88669  -0.006
C  C92  1  0.84832435  0.13444470  0.63120930  1  0.046903  0.003591  0.021159  0.182554  0.003973  4.091012  0.002
C  C93  1  0.65168116  0.13444193  0.36879074  1  0.046783  0.00359  0.021042  0.182295  0.003972  4.091613  0.002
C  C94  1  0.65167945  0.36555817  0.13121003  1  0.046758  0.00359  0.021058  0.182311  0.003972  4.09152  0.002
C  C95  1  0.84832496  0.36555642  0.86879125  1  0.046871  0.003591  0.021139  0.182501  0.003973  4.091024  0.002
C  C96  1  0.15167991  0.86555723  0.36879210  1  0.046847  0.00359  0.021022  0.182343  0.003972  4.091531  0.002
C  C97  1  0.34832310  0.86555797  0.63120907  1  0.046849  0.003591  0.021064  0.18235  0.003973  4.091271  0.002
C  C98  1  0.34832209  0.63444240  0.86879176  1  0.046849  0.00359  0.021069  0.182446  0.003972  4.091289  0.002
C  C99  1  0.15168021  0.63444348  0.13120975  1  0.046813  0.003591  0.021022  0.182307  0.003972  4.091348  0.002
C  C100  1  0.85743174  0.22782841  0.64186728  1  0.012368  -0.006521  -0.075687  -0.164599  -0.004283  3.911555  -0.005
C  C101  1  0.64257187  0.22782699  0.35813318  1  0.012346  -0.006523  -0.075662  -0.164489  -0.004284  3.911416  -0.005
C  C102  1  0.64257022  0.27217312  0.14186720  1  0.012394  -0.006522  -0.07567  -0.16456  -0.004283  3.911578  -0.005
C  C103  1  0.85743335  0.27217270  0.85813327  1  0.012333  -0.006521  -0.075692  -0.164599  -0.004282  3.91154  -0.005
C  C104  1  0.14257070  0.77217352  0.35813412  1  0.012666  -0.006522  -0.075618  -0.16445  -0.004283  3.911539  -0.005
C  C105  1  0.35743148  0.77217291  0.64186663  1  0.012338  -0.006522  -0.075678  -0.164565  -0.004283  3.91162  -0.005
C  C106  1  0.35743040  0.72782678  0.85813380  1  0.012282  -0.006522  -0.07565  -0.164573  -0.004283  3.911532  -0.005
C  C107  1  0.14257090  0.72782788  0.14186733  1  0.012388  -0.006522  -0.075672  -0.164545  -0.004283  3.911484  -0.005
C  C108  1  0.94536473  0.25807446  0.67670899  1  0.500206  0.001422  0.043383  0.088179  0.001881  3.958383  0.001
C  C109  1  0.55463704  0.25807440  0.32329108  1  0.50024  0.001422  0.043354  0.088193  0.00188  3.95836  0.001
C  C110  1  0.55463717  0.24192575  0.17670854  1  0.500223  0.001422  0.043359  0.088165  0.00188  3.958455  0.001
C  C111  1  0.94536462  0.24192594  0.82329113  1  0.500216  0.001422  0.043396  0.088182  0.001881  3.95835  0.001
C  C112  1  0.05463862  0.74192679  0.32329122  1  0.499822  0.001422  0.043326  0.088018  0.00188  3.958504  0.001
C  C113  1  0.44536449  0.74192753  0.67670834  1  0.500227  0.001422  0.043388  0.088173  0.00188  3.958486  0.001
C  C114  1  0.44536436  0.75807280  0.82329207  1  0.500247  0.001422  0.043333  0.088064  0.00188  3.958526  0.001
C  C115  1  0.05463692  0.75807464  0.17670868  1  0.500222  0.001422  0.043361  0.088159  0.001881  3.958389  0.001
C  C116  1  0.75996216  0.10075510  0.59625751  1  0.006547  -0.000777  -0.034456  -0.104373  -0.00041  4.048973  -0.001
C  C117  1  0.74002976  0.10075570  0.40373816  1  0.006498  -0.000779  -0.034304  -0.10413  -0.000412  4.04811  -0.001
C  C118  1  0.74003171  0.39924571  0.09626179  1  0.006629  -0.000778  -0.034323  -0.104176  -0.000412  4.048371  -0.001
C  C119  1  0.75996632  0.39924538  0.90374267  1  0.006542  -0.000777  -0.034428  -0.104292  -0.000411  4.048741  -0.001
C  C120  1  0.24003030  0.89924547  0.40374151  1  0.006478  -0.000779  -0.034316  -0.104077  -0.000412  4.048739  -0.001
C  C121  1  0.25996542  0.89924758  0.59625848  1  0.006604  -0.000776  -0.034418  -0.104245  -0.00041  4.048968  -0.001
C  C122  1  0.25996801  0.60075351  0.90374119  1  0.006469  -0.000778  -0.034341  -0.104174  -0.000411  4.048739  -0.001
C  C123  1  0.24003522  0.60075520  0.09626031  1  0.006556  -0.000778  -0.034377  -0.104251  -0.000412  4.048724  -0.001
C  C124  1  0.68257209  0.07154645  0.56614691  1  -0.342367  0.002018  -0.022789  -0.056627  0.002136  4.129199  0.001
C  C125  1  0.81743891  0.07154230  0.43385667  1  -0.342378  0.002021  -0.022866  -0.056839  0.002139  4.128365  0.001
C  C126  1  0.81743635  0.42845704  0.06614523  1  -0.342285  0.00202  -0.022844  -0.05674  0.002138  4.128512  0.001
C  C127  1  0.68257073  0.42845407  0.93385488  1  -0.342535  0.002018  -0.022833  -0.056725  0.002136  4.129073  0.001
C  C128  1  0.31743307  0.92845751  0.43385726  1  -0.342431  0.00202  -0.022879  -0.056933  0.002138  4.128949  0.001
C  C129  1  0.18256898  0.92845557  0.56614670  1  -0.342371  0.002018  -0.022813  -0.056732  0.002136  4.129034  0.001
C  C130  1  0.18256791  0.57154286  0.93385537  1  -0.342448  0.002019  -0.022811  -0.056747  0.002137  4.128938  0.001
C  C131  1  0.31743353  0.57154448  0.06614533  1  -0.34229  0.002019  -0.022782  -0.056649  0.002137  4.128863  0.001
C  C132  1  0.59251400  0.03625951  0.53282562  1  0.159171  0.000442  0.006655  0.037564  0.00051  4.054161  0.0
C  C133  1  0.90748524  0.03626008  0.46717440  1  0.159198  0.00044  0.006661  0.037654  0.000508  4.054409  0.0
C  C134  1  0.90748633  0.46373990  0.03282590  1  0.159237  0.000441  0.006621  0.037494  0.000509  4.054442  0.0
C  C135  1  0.59251436  0.46373970  0.96717541  1  0.15916  0.000441  0.00672  0.037623  0.000509  4.054237  0.0
C  C136  1  0.40748390  0.96374107  0.46717657  1  0.159051  0.00044  0.006776  0.037734  0.000508  4.054175  0.0
C  C137  1  0.09251267  0.96374117  0.53282541  1  0.159326  0.000442  0.006748  0.037669  0.000511  4.054098  0.0
C  C138  1  0.09251520  0.53625933  0.96717510  1  0.159116  0.000441  0.006684  0.037553  0.00051  4.054313  0.0
C  C139  1  0.40748536  0.53626020  0.03282480  1  0.159119  0.00044  0.006687  0.037566  0.000509  4.054296  0.0
C  C140  1  0.57707626  0.94065532  0.52974372  1  -0.009971  0.000327  0.002441  0.037598  0.00035  3.958148  0.0
C  C141  1  0.92292404  0.94065589  0.47025731  1  -0.009942  0.000328  0.00249  0.037654  0.000351  3.957939  0.0
C  C142  1  0.92292366  0.55934379  0.02974350  1  -0.009957  0.000327  0.002477  0.037704  0.000351  3.958035  0.0
C  C143  1  0.57707786  0.55934495  0.97025744  1  -0.00998  0.000327  0.00243  0.037595  0.000351  3.958196  0.0
C  C144  1  0.42292165  0.05934526  0.47025926  1  -0.010107  0.000327  0.002375  0.037528  0.000351  3.958194  0.0
C  C145  1  0.07707477  0.05934469  0.52974329  1  -0.009988  0.000327  0.002423  0.037576  0.00035  3.95809  0.0
C  C146  1  0.07707696  0.44065476  0.97025790  1  -0.009987  0.000327  0.002455  0.037662  0.000351  3.958046  0.0
C  C147  1  0.42292277  0.44065495  0.02974198  1  -0.010031  0.000327  0.002489  0.03774  0.000351  3.958017  0.0
C  C148  1  0.65198013  0.88026060  0.55902679  1  -0.054096  3.5e-05  -0.088544  -0.12094  4.9e-05  3.969396  0.0
C  C149  1  0.84802022  0.88026050  0.44097383  1  -0.054403  3.4e-05  -0.088582  -0.121008  4.9e-05  3.969409  0.0
C  C150  1  0.84801975  0.61973854  0.05902621  1  -0.054085  3.5e-05  -0.088578  -0.121074  4.9e-05  3.969416  0.0
C  C151  1  0.65198082  0.61973896  0.94097395  1  -0.054442  3.5e-05  -0.088558  -0.120992  4.9e-05  3.969457  0.0
C  C152  1  0.34801869  0.11973931  0.44097540  1  -0.05441  3.5e-05  -0.088555  -0.121009  4.9e-05  3.969358  0.0
C  C153  1  0.15197859  0.11973873  0.55902638  1  -0.054065  3.5e-05  -0.088572  -0.120978  4.9e-05  3.969368  0.0
C  C154  1  0.15198088  0.38026069  0.94097400  1  -0.054387  3.5e-05  -0.08859  -0.121102  4.9e-05  3.969393  0.0
C  C155  1  0.34802072  0.38026026  0.05902547  1  -0.054091  3.5e-05  -0.088612  -0.121148  4.9e-05  3.969498  0.0
C  C156  1  0.63526882  0.78829029  0.55588775  1  0.057662  0.000173  -0.088779  -0.066035  0.000203  4.00095  0.0
C  C157  1  0.86473341  0.78829018  0.44411245  1  0.057665  0.000173  -0.088752  -0.065962  0.000203  4.000978  0.0
C  C158  1  0.86473105  0.71170952  0.05588798  1  0.057667  0.000173  -0.088756  -0.065915  0.000203  4.000897  0.0
C  C159  1  0.63526853  0.71170996  0.94411220  1  0.057682  0.000173  -0.088742  -0.065949  0.000203  4.000935  0.0
C  C160  1  0.36473090  0.21171029  0.44411325  1  0.057671  0.000173  -0.088782  -0.065909  0.000203  4.000911  0.0
C  C161  1  0.13526721  0.21170972  0.55588815  1  0.057671  0.000172  -0.088746  -0.065968  0.000202  4.000956  0.0
C  C162  1  0.13526867  0.28829038  0.94411222  1  0.057696  0.000173  -0.088752  -0.065928  0.000203  4.000907  0.0
C  C163  1  0.36473210  0.28829062  0.05588722  1  0.057679  0.000173  -0.088791  -0.065955  0.000203  4.000971  0.0
C  C164  1  0.54244139  0.75209918  0.52327757  1  -0.095873  0.000125  -0.09024  -0.080498  0.000134  4.022838  0.0
C  C165  1  0.95755997  0.75209974  0.47672223  1  -0.096339  0.000124  -0.090242  -0.080472  0.000134  4.02272  0.0
C  C166  1  0.95755854  0.74790060  0.02327778  1  -0.095871  0.000125  -0.09023  -0.080528  0.000134  4.022825  0.0
C  C167  1  0.54244101  0.74790111  0.97672241  1  -0.095875  0.000125  -0.090246  -0.080533  0.000134  4.022765  0.0
C  C168  1  0.45756015  0.24790005  0.47672224  1  -0.095897  0.000125  -0.090203  -0.080451  0.000134  4.022832  0.0
C  C169  1  0.04244065  0.24790084  0.52327758  1  -0.096141  0.000125  -0.090234  -0.080506  0.000135  4.022811  0.0
C  C170  1  0.04244208  0.25209930  0.97672203  1  -0.095843  0.000125  -0.090232  -0.080538  0.000134  4.022855  0.0
C  C171  1  0.45756053  0.25209947  0.02327740  1  -0.095873  0.000125  -0.090165  -0.080353  0.000134  4.022644  0.0
C  C172  1  0.46829610  0.80856614  0.49453456  1  -0.043469  3e-05  -0.092505  -0.128216  4e-05  3.992905  0.0
C  C173  1  0.03170514  0.80856625  0.50546540  1  -0.043036  3e-05  -0.092499  -0.128239  4.1e-05  3.992841  0.0
C  C174  1  0.03170387  0.69143428  0.99453434  1  -0.04348  3e-05  -0.092503  -0.128182  4.1e-05  3.992929  0.0
C  C175  1  0.46829656  0.69143442  0.00546600  1  -0.043463  3e-05  -0.092508  -0.128172  4e-05  3.992917  0.0
C  C176  1  0.53170362  0.19143511  0.50546604  1  -0.043527  3e-05  -0.092562  -0.128297  4.1e-05  3.993019  0.0
C  C177  1  0.96829548  0.19143500  0.49453441  1  -0.043235  3e-05  -0.092517  -0.128214  4e-05  3.992951  0.0
C  C178  1  0.96829676  0.30856495  0.00546587  1  -0.043514  3e-05  -0.092511  -0.128167  4e-05  3.992934  0.0
C  C179  1  0.53170407  0.30856616  0.99453382  1  -0.04349  3e-05  -0.092515  -0.128229  4.1e-05  3.992923  0.0
C  C180  1  0.51671908  0.09595768  0.50331290  1  -0.051766  0.000321  0.001156  0.03827  0.000353  3.967631  0.0
C  C181  1  0.98327920  0.09595689  0.49668832  1  -0.052077  0.000322  0.001077  0.03817  0.000354  3.967536  0.0
C  C182  1  0.98328040  0.40404305  0.00331235  1  -0.052087  0.000322  0.001087  0.038212  0.000353  3.967525  0.0
C  C183  1  0.51672035  0.40404359  0.99668815  1  -0.051919  0.000322  0.001049  0.038134  0.000353  3.967616  0.0
C  C184  1  0.48327973  0.90404357  0.49668929  1  -0.051882  0.000322  0.001026  0.038147  0.000354  3.967513  0.0
C  C185  1  0.01672052  0.90404369  0.50331189  1  -0.052134  0.000321  0.001039  0.038132  0.000353  3.967597  0.0
C  C186  1  0.01672023  0.59595617  0.99668865  1  -0.051898  0.000322  0.001058  0.038177  0.000353  3.967521  0.0
C  C187  1  0.48328028  0.59595631  0.00331206  1  -0.051887  0.000322  0.001058  0.038153  0.000353  3.967641  0.0
C  C188  1  0.35738266  0.26128146  0.67885192  1  0.751675  0.000674  0.105572  0.240879  0.000378  4.106775  0.002
C  C189  1  0.14261269  0.26127391  0.32114434  1  0.754288  0.000683  0.105524  0.240963  0.000379  4.106759  0.002
C  C190  1  0.14261463  0.23871899  0.17885540  1  0.751746  0.000674  0.105531  0.240819  0.000379  4.10648  0.002
C  C191  1  0.35738164  0.23871922  0.82114641  1  0.751748  0.000674  0.105523  0.240747  0.000378  4.10667  0.002
C  C192  1  0.64261706  0.73872724  0.32114433  1  0.754368  0.000683  0.105608  0.241077  0.000379  4.10673  0.002
C  C193  1  0.85738431  0.73872328  0.67885468  1  0.754343  0.000683  0.105573  0.241  0.000379  4.106537  0.002
C  C194  1  0.85738418  0.76127686  0.82114521  1  0.754348  0.000683  0.105565  0.241001  0.000379  4.106648  0.002
C  C195  1  0.64261536  0.76127933  0.17885578  1  0.751746  0.000675  0.105552  0.240882  0.000379  4.106651  0.002
C  C196  1  0.47076158  0.20952737  0.65962970  1  1.680637  -0.008653  0.300419  0.624024  -0.006114  3.985689  -0.007
C  C197  1  0.02922927  0.20952057  0.34036497  1  1.678024  -0.008662  0.300533  0.623884  -0.006114  3.986169  -0.007
C  C198  1  0.02923574  0.29047238  0.15963203  1  1.680616  -0.008653  0.300512  0.624047  -0.006114  3.985766  -0.007
C  C199  1  0.47076048  0.29047257  0.84036939  1  1.680584  -0.008654  0.30039  0.624025  -0.006114  3.985754  -0.007
C  C200  1  0.52923361  0.79048132  0.34036576  1  1.677735  -0.008662  0.300403  0.623718  -0.006115  3.986246  -0.007
C  C201  1  0.97076409  0.79047527  0.65963048  1  1.677993  -0.008662  0.300433  0.623901  -0.006114  3.985789  -0.007
C  C202  1  0.97076488  0.70952346  0.84036817  1  1.677945  -0.008662  0.300386  0.62388  -0.006115  3.985884  -0.007
C  C203  1  0.52923379  0.70952395  0.15963438  1  1.680633  -0.008654  0.300435  0.623906  -0.006115  3.985953  -0.007
C  C204  1  0.35256259  0.35412483  0.66899931  1  0.038456  -0.002921  -0.159035  -0.394033  -0.001619  4.036231  -0.003
C  C205  1  0.14743268  0.35411661  0.33099658  1  0.038732  -0.00292  -0.159131  -0.394266  -0.001619  4.036531  -0.003
C  C206  1  0.14743381  0.14587290  0.16900395  1  0.038456  -0.002921  -0.158963  -0.393916  -0.001619  4.036226  -0.003
C  C207  1  0.35256254  0.14587450  0.83099942  1  0.038445  -0.002921  -0.158957  -0.393858  -0.001619  4.036176  -0.003
C  C208  1  0.64743894  0.64588454  0.33099694  1  0.038813  -0.002919  -0.159032  -0.394118  -0.001618  4.036465  -0.003
C  C209  1  0.85256341  0.64587923  0.66900204  1  0.038476  -0.00292  -0.158986  -0.394023  -0.001619  4.036354  -0.003
C  C210  1  0.85256410  0.85412091  0.83099745  1  0.03848  -0.00292  -0.159025  -0.394119  -0.001619  4.03647  -0.003
C  C211  1  0.64743446  0.85412270  0.16900277  1  0.038468  -0.00292  -0.159018  -0.394068  -0.001619  4.036386  -0.003
C  C212  1  0.25316741  0.40963354  0.68281653  1  0.860308  0.001536  0.115308  0.266184  0.001849  4.112013  0.001
C  C213  1  0.24683053  0.40962460  0.31718255  1  0.859814  0.001536  0.115317  0.266279  0.00185  4.112053  0.001
C  C214  1  0.24683532  0.09036623  0.18281795  1  0.860342  0.001536  0.115224  0.265959  0.001849  4.11245  0.001
C  C215  1  0.25316652  0.09036650  0.81718223  1  0.860318  0.001535  0.115216  0.266077  0.001849  4.112221  0.001
C  C216  1  0.74683685  0.59037582  0.31718249  1  0.859883  0.001536  0.115259  0.266253  0.00185  4.111903  0.001
C  C217  1  0.75316556  0.59037192  0.68281766  1  0.859951  0.001537  0.115161  0.265997  0.00185  4.112168  0.001
C  C218  1  0.75316531  0.90962826  0.81718225  1  0.860023  0.001536  0.115161  0.266025  0.00185  4.112299  0.001
C  C219  1  0.74683229  0.90963070  0.18281798  1  0.86037  0.001536  0.115243  0.266126  0.001849  4.112212  0.001
C  C220  1  0.26170770  0.51163898  0.66903775  1  1.678141  -0.000362  0.295342  0.61504  -0.00024  3.9843  0.0
C  C221  1  0.23828834  0.51162937  0.33096214  1  1.678521  -0.000362  0.295406  0.615034  -0.00024  3.98448  0.0
C  C222  1  0.23829372  0.98836184  0.16903888  1  1.678201  -0.000362  0.295417  0.615287  -0.00024  3.984214  0.0
C  C223  1  0.26170737  0.98836144  0.83096152  1  1.678141  -0.000362  0.295383  0.615101  -0.00024  3.984345  0.0
C  C224  1  0.73829564  0.48837174  0.33096167  1  1.67842  -0.000362  0.29527  0.614962  -0.00024  3.984504  0.0
C  C225  1  0.76170321  0.48836715  0.66903529  1  1.678424  -0.000362  0.295271  0.614964  -0.00024  3.984713  0.0
C  C226  1  0.76170509  0.01163265  0.83096449  1  1.67825  -0.000362  0.295304  0.614998  -0.00024  3.984612  0.0
C  C227  1  0.73829144  0.01163575  0.16903868  1  1.678139  -0.000362  0.295461  0.615262  -0.00024  3.984161  0.0
N  N228  1  0.02348431  0.20125133  0.70072104  1  -1.189939  -0.100523  -0.349702  -0.236665  -0.065846  3.633075  -0.086
N  N229  1  0.47651835  0.20125173  0.29927957  1  -1.189731  -0.100528  -0.349651  -0.236625  -0.065849  3.63312  -0.086
N  N230  1  0.47651657  0.29874778  0.20072007  1  -1.189899  -0.100525  -0.349651  -0.236604  -0.065847  3.633039  -0.086
N  N231  1  0.02348509  0.29874882  0.79927898  1  -1.189962  -0.100526  -0.34971  -0.236673  -0.065848  3.633063  -0.086
N  N232  1  0.97652086  0.79874992  0.29927917  1  -1.189736  -0.100525  -0.349591  -0.236477  -0.065847  3.632942  -0.086
N  N233  1  0.52348319  0.79874952  0.70072024  1  -1.189932  -0.100523  -0.349688  -0.236681  -0.065846  3.633116  -0.086
N  N234  1  0.52348315  0.70125009  0.79927934  1  -1.189922  -0.100523  -0.349645  -0.236618  -0.065846  3.633074  -0.086
N  N235  1  0.97651826  0.70125176  0.20072084  1  -1.189901  -0.100525  -0.349647  -0.23653  -0.065847  3.633011  -0.086
O  O236  1  0.28128830  0.20884508  0.70107656  1  -1.082665  -0.078825  -0.29887  -0.420928  -0.050342  2.381209  -0.072
O  O237  1  0.21870890  0.20883545  0.29892128  1  -1.082838  -0.07883  -0.298789  -0.420841  -0.050344  2.380855  -0.072
O  O238  1  0.21870986  0.29115403  0.20107883  1  -1.08269  -0.078822  -0.298859  -0.420858  -0.05034  2.380979  -0.072
O  O239  1  0.28128819  0.29115495  0.79892219  1  -1.082718  -0.078823  -0.298819  -0.42082  -0.05034  2.381034  -0.072
O  O240  1  0.71871142  0.79116497  0.29892009  1  -1.082885  -0.078828  -0.298853  -0.420929  -0.050343  2.380879  -0.072
O  O241  1  0.78129173  0.79116175  0.70107932  1  -1.082799  -0.07883  -0.298862  -0.420927  -0.050344  2.380879  -0.072
O  O242  1  0.78129168  0.70883910  0.79892058  1  -1.082799  -0.078827  -0.298859  -0.420914  -0.050343  2.380904  -0.072
O  O243  1  0.71871153  0.70884359  0.20107920  1  -1.082761  -0.078826  -0.298856  -0.420871  -0.050342  2.380999  -0.072
O  O244  1  0.15599082  0.38788482  0.70514490  1  -1.103612  0.000721  -0.284562  -0.444455  0.000832  2.308972  -0.001
O  O245  1  0.34400805  0.38787581  0.29485575  1  -1.103327  0.000722  -0.284554  -0.444478  0.000833  2.308984  -0.001
O  O246  1  0.34401006  0.11211700  0.20514353  1  -1.103692  0.000721  -0.284529  -0.444375  0.000833  2.309273  -0.001
O  O247  1  0.15599086  0.11211527  0.79485428  1  -1.103675  0.000721  -0.284527  -0.444439  0.000832  2.309095  -0.001
O  O248  1  0.84401435  0.61212455  0.29485372  1  -1.103486  0.000722  -0.284507  -0.444435  0.000833  2.308806  -0.001
O  O249  1  0.65598895  0.61212071  0.70514565  1  -1.103321  0.000722  -0.28446  -0.444328  0.000833  2.308945  -0.001
O  O250  1  0.65598966  0.88787817  0.79485509  1  -1.103315  0.000722  -0.284442  -0.444317  0.000834  2.309098  -0.001
O  O251  1  0.84401068  0.88788193  0.20514435  1  -1.103697  0.000722  -0.284565  -0.444479  0.000833  2.309124  -0.001
F  F252  1  0.43728269  0.14598259  0.62295397  1  -0.623435  -0.000337  -0.089982  -0.205092  1.3e-05  1.35698  0.0
F  F253  1  0.06270367  0.14597310  0.37704029  1  -0.623316  -0.000337  -0.090002  -0.205073  1.3e-05  1.357188  0.0
F  F254  1  0.06271832  0.35401781  0.12295710  1  -0.623364  -0.000337  -0.090055  -0.205144  1.3e-05  1.356965  0.0
F  F255  1  0.43728239  0.35401669  0.87704513  1  -0.623381  -0.000337  -0.089997  -0.205089  1.3e-05  1.356989  0.0
F  F256  1  0.56270977  0.85402881  0.37703911  1  -0.623186  -0.000337  -0.089914  -0.204972  1.3e-05  1.3571  0.0
F  F257  1  0.93728607  0.85401868  0.62295319  1  -0.623459  -0.000337  -0.089971  -0.205051  1.3e-05  1.356966  0.0
F  F258  1  0.93728594  0.64597736  0.87704350  1  -0.623354  -0.000337  -0.089941  -0.205054  1.3e-05  1.356911  0.0
F  F259  1  0.56271279  0.64597509  0.12296102  1  -0.623316  -0.000337  -0.089927  -0.205028  1.3e-05  1.357034  0.0
F  F260  1  0.55596065  0.26325812  0.63650786  1  -0.630596  -0.002759  -0.093088  -0.202074  -0.001606  1.350504  -0.002
F  F261  1  0.94403295  0.26325318  0.36348707  1  -0.630483  -0.002759  -0.093092  -0.201977  -0.001606  1.350554  -0.002
F  F262  1  0.94403951  0.23674408  0.13650886  1  -0.630551  -0.002759  -0.093082  -0.202033  -0.001606  1.350578  -0.002
F  F263  1  0.55595956  0.23674111  0.86349080  1  -0.630566  -0.002759  -0.093071  -0.202071  -0.001606  1.350456  -0.002
F  F264  1  0.44403816  0.73674990  0.36348879  1  -0.630384  -0.002759  -0.093063  -0.201945  -0.001606  1.350613  -0.002
F  F265  1  0.05596132  0.73674199  0.63650918  1  -0.63057  -0.002759  -0.093062  -0.202011  -0.001606  1.350523  -0.002
F  F266  1  0.05595840  0.76325650  0.86349214  1  -0.630524  -0.002759  -0.093068  -0.202027  -0.001606  1.350573  -0.002
F  F267  1  0.44403653  0.76325271  0.13651099  1  -0.630478  -0.002759  -0.093047  -0.201965  -0.001606  1.350581  -0.002
F  F268  1  0.52559585  0.16480041  0.70023316  1  -0.610741  -0.000674  -0.105132  -0.201479  -0.000243  1.284139  0.0
F  F269  1  0.97439330  0.16479608  0.29976095  1  -0.611211  -0.000674  -0.105204  -0.201484  -0.000243  1.284283  0.0
F  F270  1  0.97440057  0.33519914  0.20023497  1  -0.610853  -0.000673  -0.105159  -0.201498  -0.000243  1.284171  0.0
F  F271  1  0.52559479  0.33519950  0.79976631  1  -0.610851  -0.000673  -0.105137  -0.20151  -0.000243  1.284177  0.0
F  F272  1  0.47439661  0.83520355  0.29976072  1  -0.611095  -0.000674  -0.105191  -0.201453  -0.000243  1.284285  0.0
F  F273  1  0.02560007  0.83520518  0.70023213  1  -0.610816  -0.000673  -0.105191  -0.201514  -0.000243  1.284124  0.0
F  F274  1  0.02560369  0.66479873  0.79976563  1  -0.610974  -0.000674  -0.105141  -0.201444  -0.000243  1.284174  0.0
F  F275  1  0.47439949  0.66480040  0.20023984  1  -0.61112  -0.000674  -0.10524  -0.201541  -0.000243  1.284106  0.0
F  F276  1  0.36380687  0.53490456  0.64141404  1  -0.627767  -1.9e-05  -0.10064  -0.204403  -7e-06  1.310297  0.0
F  F277  1  0.13619006  0.53489705  0.35858467  1  -0.627738  -1.9e-05  -0.1007  -0.204453  -7e-06  1.310318  0.0
F  F278  1  0.13619278  0.96509488  0.14141639  1  -0.627711  -1.9e-05  -0.100645  -0.204471  -7e-06  1.310218  0.0
F  F279  1  0.36380742  0.96509581  0.85858520  1  -0.627753  -1.9e-05  -0.100653  -0.204435  -7e-06  1.310338  0.0
F  F280  1  0.63620101  0.46510481  0.35858537  1  -0.627559  -1.9e-05  -0.10063  -0.204394  -7e-06  1.310253  0.0
F  F281  1  0.86379968  0.46510150  0.64141039  1  -0.627695  -1.9e-05  -0.100691  -0.204418  -7e-06  1.310292  0.0
F  F282  1  0.86380059  0.03489894  0.85858738  1  -0.627682  -1.9e-05  -0.100672  -0.204412  -7e-06  1.310327  0.0
F  F283  1  0.63619321  0.03490206  0.14141659  1  -0.627712  -1.9e-05  -0.100637  -0.204443  -7e-06  1.310322  0.0
F  F284  1  0.16466815  0.53771247  0.63905109  1  -0.617351  5.9e-05  -0.112908  -0.210979  6.1e-05  1.286759  0.0
F  F285  1  0.33532696  0.53770352  0.36094841  1  -0.617244  5.9e-05  -0.112841  -0.210939  6.1e-05  1.286798  0.0
F  F286  1  0.33533060  0.96228832  0.13905100  1  -0.617362  5.9e-05  -0.1129  -0.210982  6.1e-05  1.286805  0.0
F  F287  1  0.16466869  0.96228800  0.86094861  1  -0.617324  5.9e-05  -0.112905  -0.210967  6.1e-05  1.286812  0.0
F  F288  1  0.83533792  0.46229758  0.36094674  1  -0.617356  5.9e-05  -0.112836  -0.210957  6.1e-05  1.286738  0.0
F  F289  1  0.66466187  0.46229503  0.63905061  1  -0.617157  5.9e-05  -0.112778  -0.210908  6.1e-05  1.286977  0.0
F  F290  1  0.66466367  0.03770482  0.86095040  1  -0.617141  5.9e-05  -0.112856  -0.210969  6.1e-05  1.28687  0.0
F  F291  1  0.83533012  0.03770988  0.13905159  1  -0.617348  5.9e-05  -0.112916  -0.211013  6.1e-05  1.286759  0.0
F  F292  1  0.26025855  0.56269108  0.71407063  1  -0.615959  -9.8e-05  -0.104793  -0.203423  -6.6e-05  1.282518  0.0
F  F293  1  0.23973927  0.56268076  0.28592848  1  -0.616292  -9.8e-05  -0.10485  -0.203395  -6.6e-05  1.282554  0.0
F  F294  1  0.23974643  0.93731247  0.21407215  1  -0.616025  -9.8e-05  -0.10485  -0.203514  -6.6e-05  1.282449  0.0
F  F295  1  0.26025924  0.93730798  0.78592904  1  -0.615991  -9.8e-05  -0.104827  -0.203464  -6.6e-05  1.282466  0.0
F  F296  1  0.73974571  0.43732167  0.28592799  1  -0.616305  -9.8e-05  -0.104837  -0.203451  -6.6e-05  1.282563  0.0
F  F297  1  0.76025682  0.43731373  0.71406777  1  -0.616344  -9.8e-05  -0.104794  -0.203402  -6.6e-05  1.28263  0.0
F  F298  1  0.76025329  0.06268607  0.78593122  1  -0.616265  -9.8e-05  -0.104767  -0.203374  -6.6e-05  1.282544  0.0
F  F299  1  0.73974320  0.06268718  0.21407236  1  -0.61596  -9.8e-05  -0.104864  -0.203503  -6.6e-05  1.282443  0.0
