# generated using pymatgen
data_Zn2H18C44Br3(NO7)2
_symmetry_space_group_name_H-M   'P 1'
_cell_length_a   13.22174119
_cell_length_b   13.85963065
_cell_length_c   28.49411701
_cell_angle_alpha   90.29208751
_cell_angle_beta   89.82384175
_cell_angle_gamma   89.91327284
_symmetry_Int_Tables_number   1
_chemical_formula_structural   Zn2H18C44Br3(NO7)2
_chemical_formula_sum   'Zn4 H36 C88 Br6 N4 O28'
_cell_volume   5221.40412640
_cell_formula_units_Z   2
loop_
 _symmetry_equiv_pos_site_id
 _symmetry_equiv_pos_as_xyz
  1  'x, y, z'
loop_
 _atom_site_type_symbol
 _atom_site_label
 _atom_site_symmetry_multiplicity
 _atom_site_fract_x
 _atom_site_fract_y
 _atom_site_fract_z
 _atom_site_occupancy
 _atom_site_pbe_bader_charge
 _atom_site_pbe_bader_spin_density
 _atom_site_pbe_cm5_charge
 _atom_site_pbe_ddec_charge
 _atom_site_pbe_ddec_spin_density
 _atom_site_pbe_ddec_sum_bond_order
 _atom_site_pbe_magmom
Zn  Zn0  1  0.50382132  0.40837209  0.49587916  1  1.270612  0  0.668243  0.820088  0  2.425975  0
Zn  Zn1  1  0.48273868  0.60903797  0.50060588  1  1.304238  0  0.668813  0.81815  0  2.43767  0
Zn  Zn2  1  0.50448390  0.59213506  0.03795753  1  1.29687  0  0.66838  0.820183  0  2.427545  0
Zn  Zn3  1  0.48413446  0.39149801  0.03321095  1  1.300253  0  0.669171  0.818339  0  2.438868  0
H  H4  1  0.39652017  0.26202089  0.54881259  1  0.149261  0  0.132839  0.114186  0  0.973251  0
H  H5  1  0.31921556  0.10929332  0.58306147  1  0.108312  0  0.127432  0.136712  0  0.960059  0
H  H6  1  0.61997957  0.25071710  0.44723282  1  0.137946  0  0.131674  0.112671  0  0.984753  0
H  H7  1  0.59237541  0.75461143  0.44765645  1  0.159397  0  0.133718  0.115815  0  0.972959  0
H  H8  1  0.67238156  0.90807219  0.41434070  1  0.105204  0  0.127318  0.13707  0  0.961668  0
H  H9  1  0.37514383  0.76676048  0.55201946  1  0.139819  0  0.130467  0.109765  0  0.990005  0
H  H10  1  0.50555107  0.62118243  0.18884461  1  0.093377  0  0.096494  0.106782  0  1.046921  0
H  H11  1  0.50450058  0.31211675  0.17850019  1  0.108813  0  0.104636  0.122199  0  1.007444  0
H  H12  1  0.50604317  0.37828351  0.34487384  1  0.125882  0  0.096483  0.106715  0  1.046911  0
H  H13  1  0.50388754  0.68735369  0.35519628  1  0.117328  0  0.104759  0.121955  0  1.006976  0
H  H14  1  0.49006118  0.66811481  0.65250759  1  0.096427  0  0.104831  0.109772  0  1.008657  0
H  H15  1  0.49429212  0.75017688  0.73064319  1  0.08629  0  0.114199  0.121323  0  0.980045  0
H  H16  1  0.49202720  0.36059863  0.64264635  1  0.11204  0  0.104369  0.110299  0  1.034313  0
H  H17  1  0.49061625  0.33234254  0.88130510  1  0.116228  0  0.104988  0.10967  0  1.008201  0
H  H18  1  0.49331020  0.25036267  0.80323876  1  0.091027  0  0.114119  0.123417  0  0.977001  0
H  H19  1  0.49392055  0.63980777  0.89128329  1  0.104759  0  0.104395  0.109947  0  1.035238  0
H  H20  1  0.83036193  0.36984577  0.49851177  1  0.093727  0  0.092966  0.100138  0  1.056063  0
H  H21  1  0.79768973  0.67762328  0.50383184  1  0.122064  0  0.104721  0.122833  0  1.005366  0
H  H22  1  0.15843113  0.62378445  0.50103641  1  0.121429  0  0.097798  0.109305  0  1.043822  0
H  H23  1  0.19165403  0.31588129  0.49660952  1  0.122184  0  0.106536  0.125039  0  1.002651  0
H  H24  1  0.39711728  0.73889981  0.98525956  1  0.100801  0  0.132951  0.114268  0  0.973825  0
H  H25  1  0.32025083  0.89196050  0.95109589  1  0.096827  0  0.127226  0.136721  0  0.96028  0
H  H26  1  0.62015497  0.74935115  0.08638856  1  0.144468  0  0.131796  0.112839  0  0.984779  0
H  H27  1  0.59362576  0.24551926  0.08578325  1  0.14344  0  0.133923  0.115888  0  0.973245  0
H  H28  1  0.67311737  0.09181251  0.11902696  1  0.116248  0  0.127168  0.136622  0  0.962363  0
H  H29  1  0.37657345  0.23429754  0.98196847  1  0.125073  0  0.130509  0.109606  0  0.990576  0
H  H30  1  0.83095733  0.63104431  0.03565140  1  0.087187  0  0.093267  0.100625  0  1.055553  0
H  H31  1  0.79941671  0.32323198  0.03131855  1  0.106914  0  0.105044  0.123169  0  1.006095  0
H  H32  1  0.15996313  0.37717385  0.03401776  1  0.130084  0  0.097701  0.109235  0  1.044144  0
H  H33  1  0.19201102  0.68514050  0.03732876  1  0.112592  0  0.106745  0.125389  0  1.002074  0
H  H34  1  0.40443281  0.86003352  0.62618445  1  0.609386  0  0.341529  0.370819  0  0.871899  0
H  H35  1  0.77384238  0.16221209  0.45691767  1  0.606669  0  0.328072  0.358156  0  0.901198  0
H  H36  1  0.62105093  0.71429138  0.85627414  1  0.617796  0  0.333762  0.370293  0  0.881474  0
H  H37  1  0.61931908  0.28460963  0.67719825  1  0.59453  0  0.334155  0.371329  0  0.87936  0
H  H38  1  0.40574870  0.14125378  0.90784611  1  0.593786  0  0.341411  0.370123  0  0.872489  0
H  H39  1  0.77369865  0.83644331  0.07648737  1  0.579549  0  0.32783  0.358434  0  0.901961  0
C  C40  1  0.48910656  0.51883866  0.59068148  1  1.602583  0  0.214554  0.595064  0  4.166163  0
C  C41  1  0.29765758  0.48289784  0.49818997  1  1.589619  0  0.217934  0.596538  0  4.160264  0
C  C42  1  0.50022351  0.52453250  0.40700812  1  1.572991  0  0.218039  0.598559  0  4.155895  0
C  C43  1  0.69146463  0.51148004  0.50040557  1  1.572694  0  0.215609  0.596081  0  4.159108  0
C  C44  1  0.49082394  0.48147366  0.94319289  1  1.527979  0  0.215022  0.595768  0  4.163602  0
C  C45  1  0.29867438  0.51816181  0.03592522  1  1.587194  0  0.218215  0.596889  0  4.160984  0
C  C46  1  0.50033933  0.47507306  0.12672223  1  1.560427  0  0.218627  0.599709  0  4.156888  0
C  C47  1  0.69260139  0.48940161  0.03380492  1  1.549658  0  0.215432  0.596115  0  4.159734  0
C  C48  1  0.44498475  0.21511780  0.52763840  1  0.505695  0  0.072418  0.064654  0  3.848205  0
C  C49  1  0.43894192  0.11440676  0.53038352  1  0.023344  0  0.007958  0.043988  0  4.028697  0
C  C50  1  0.36952091  0.06629193  0.56086865  1  0.06032  0  -0.055623  -0.108105  0  3.913932  0
C  C51  1  0.57164011  0.20837078  0.47037921  1  0.563345  0  0.061552  0.042521  0  3.870549  0
C  C52  1  0.57339525  0.10697396  0.47017367  1  -0.085981  0  0.004013  0.009337  0  4.010801  0
C  C53  1  0.63637618  0.04926905  0.43935063  1  -0.056161  0  -0.003814  -0.083893  0  3.98167  0
C  C54  1  0.54864109  0.80174184  0.47086396  1  0.517086  0  0.073604  0.066199  0  3.839122  0
C  C55  1  0.55892682  0.90237536  0.46994930  1  -0.018303  0  0.006237  0.040878  0  4.030382  0
C  C56  1  0.62700461  0.95066904  0.43891274  1  0.055799  0  -0.056338  -0.1103  0  3.91155  0
C  C57  1  0.42582298  0.80889942  0.52989738  1  0.509641  0  0.060512  0.041409  0  3.880344  0
C  C58  1  0.42941639  0.91002684  0.53233848  1  -0.008653  0  0.003754  0.007201  0  4.021374  0
C  C59  1  0.36556194  0.96757162  0.56276082  1  -0.103227  0  -0.004267  -0.088298  0  3.992713  0
C  C60  1  0.50424635  0.05937804  0.50082720  1  0.006297  0  0.018873  0.028316  0  3.928989  0
C  C61  1  0.49788848  0.95746675  0.50138291  1  0.002309  0  0.01941  0.030278  0  3.932636  0
C  C62  1  0.50611496  0.55136263  0.20610785  1  0.012966  0  -0.083578  -0.131402  0  3.939485  0
C  C63  1  0.50570284  0.37640812  0.20052403  1  0.000537  0  -0.093715  -0.154911  0  3.982612  0
C  C64  1  0.50820473  0.36972538  0.24860069  1  -0.116972  0  -0.010583  0.07218  0  3.939862  0
C  C65  1  0.50756916  0.45316106  0.27817362  1  0.002734  0  -0.004412  0.046105  0  3.968766  0
C  C66  1  0.50636042  0.44809201  0.32759411  1  0.009658  0  -0.083018  -0.13133  0  3.938378  0
C  C67  1  0.50531275  0.62307257  0.33315323  1  0.041532  0  -0.093748  -0.154692  0  3.982703  0
C  C68  1  0.50771799  0.62973325  0.28506779  1  -0.143118  0  -0.010935  0.071814  0  3.941127  0
C  C69  1  0.50737039  0.54627933  0.25552796  1  0.015144  0  -0.004243  0.045702  0  3.969604  0
C  C70  1  0.50433784  0.46838847  0.17907849  1  0.007574  0  -0.014193  -0.007027  0  3.972144  0
C  C71  1  0.50429375  0.53111667  0.35461273  1  -0.004573  0  -0.014323  -0.006599  0  3.971115  0
C  C72  1  0.49221742  0.59869669  0.67023742  1  -0.121779  0  -0.073358  -0.125943  0  3.91599  0
C  C73  1  0.49497604  0.59448730  0.71940688  1  0.054835  0  -0.003981  0.075717  0  4.038045  0
C  C74  1  0.49609259  0.67993249  0.74773087  1  0.055519  0  -0.068868  -0.120623  0  3.942305  0
C  C75  1  0.49480197  0.42425865  0.66518202  1  -0.049035  0  -0.087788  -0.162222  0  3.960029  0
C  C76  1  0.49898968  0.41603464  0.71422283  1  -0.03647  0  -0.00695  0.044984  0  4.027211  0
C  C77  1  0.50022146  0.32415971  0.73810258  1  -0.060353  0  -0.018416  -0.108719  0  4.008407  0
C  C78  1  0.49290801  0.40176955  0.86358865  1  -0.038255  0  -0.073673  -0.126054  0  3.914062  0
C  C79  1  0.49511616  0.40601684  0.81441952  1  0.000178  0  -0.003373  0.076344  0  4.037639  0
C  C80  1  0.49537466  0.32055851  0.78611196  1  0.011316  0  -0.069089  -0.122578  0  3.942395  0
C  C81  1  0.49627665  0.57618477  0.86870311  1  -0.171602  0  -0.087296  -0.159414  0  3.957592  0
C  C82  1  0.50004256  0.58439857  0.81963471  1  -0.034582  0  -0.007488  0.042236  0  4.031301  0
C  C83  1  0.50154200  0.67621517  0.79571936  1  -0.088342  0  -0.018035  -0.107547  0  4.010114  0
C  C84  1  0.49194003  0.51429072  0.64333809  1  0.028553  0  -0.014568  -0.012322  0  3.989583  0
C  C85  1  0.49796557  0.50255170  0.74200843  1  -0.010177  0  0.007964  0.012693  0  3.903928  0
C  C86  1  0.49325811  0.48613313  0.89051904  1  0.103101  0  -0.015648  -0.0154  0  3.99043  0
C  C87  1  0.49826811  0.49793814  0.79183394  1  0.042675  0  0.007849  0.013343  0  3.905429  0
C  C88  1  0.86532846  0.44080440  0.49959997  1  -0.010046  0  -0.085802  -0.134334  0  3.944632  0
C  C89  1  0.84752898  0.61515060  0.50247515  1  0.007059  0  -0.093651  -0.155361  0  3.984989  0
C  C90  1  0.95090518  0.62517128  0.50247764  1  -0.147356  0  -0.010402  0.074205  0  3.940035  0
C  C91  1  0.01734566  0.54398995  0.50082136  1  0.023665  0  -0.004512  0.045358  0  3.967294  0
C  C92  1  0.12363444  0.55273517  0.50031035  1  0.001579  0  -0.081845  -0.129679  0  3.933301  0
C  C93  1  0.14187286  0.37840992  0.49788934  1  -0.007139  0  -0.091355  -0.152936  0  3.97646  0
C  C94  1  0.03851076  0.36837573  0.49857151  1  -0.120151  0  -0.009813  0.075407  0  3.928172  0
C  C95  1  0.97166132  0.44925935  0.49967913  1  -0.023534  0  -0.004296  0.045115  0  3.971632  0
C  C96  1  0.80428322  0.52186101  0.50082051  1  0.022961  0  -0.013571  -0.004111  0  3.967824  0
C  C97  1  0.18487249  0.47197141  0.49873546  1  0.030952  0  -0.012777  -0.00475  0  3.964282  0
C  C98  1  0.44559137  0.78559882  0.00631878  1  0.566094  0  0.072109  0.064308  0  3.848519  0
C  C99  1  0.43968029  0.88633577  0.00356543  1  0.012728  0  0.007632  0.043029  0  4.029464  0
C  C100  1  0.37055722  0.93474766  0.97317437  1  -0.000324  0  -0.055277  -0.107533  0  3.913417  0
C  C101  1  0.57199864  0.79192035  0.06334093  1  0.407428  0  0.061008  0.041521  0  3.871029  0
C  C102  1  0.57387392  0.89330320  0.06351584  1  0.035545  0  0.005143  0.01148  0  4.009476  0
C  C103  1  0.63683818  0.95076181  0.09418719  1  -0.028429  0  -0.004936  -0.087181  0  3.983049  0
C  C104  1  0.54985566  0.19858259  0.06268843  1  0.542131  0  0.073319  0.065876  0  3.841079  0
C  C105  1  0.55991917  0.09792994  0.06363641  1  -0.069824  0  0.006882  0.042147  0  4.030634  0
C  C106  1  0.62772104  0.04940392  0.09457520  1  0.051911  0  -0.055872  -0.109304  0  3.913143  0
C  C107  1  0.42715696  0.19194160  0.00396140  1  0.498939  0  0.060958  0.042022  0  3.878386  0
C  C108  1  0.43055591  0.09079149  0.00152580  1  0.000525  0  0.003922  0.007245  0  4.019964  0
C  C109  1  0.36678411  0.03347785  0.97121643  1  -0.017042  0  -0.004553  -0.089206  0  3.992822  0
C  C110  1  0.50486736  0.94114023  0.03301034  1  -0.005797  0  0.01896  0.029539  0  3.928718  0
C  C111  1  0.49876830  0.04308063  0.03239666  1  0.046174  0  0.018734  0.029077  0  3.931989  0
C  C112  1  0.86617881  0.56008722  0.03483452  1  -0.013027  0  -0.085636  -0.134642  0  3.945495  0
C  C113  1  0.84901416  0.38570922  0.03253604  1  0.120393  0  -0.093348  -0.155611  0  3.984576  0
C  C114  1  0.95243045  0.37570247  0.03267858  1  -0.153216  0  -0.010653  0.073636  0  3.935997  0
C  C115  1  0.01859851  0.45692829  0.03408470  1  0.026283  0  -0.003997  0.046443  0  3.964152  0
C  C116  1  0.12493637  0.44823354  0.03452950  1  0.001816  0  -0.08219  -0.129933  0  3.934359  0
C  C117  1  0.14248874  0.62257461  0.03628756  1  -0.015359  0  -0.091655  -0.153777  0  3.97802  0
C  C118  1  0.03910170  0.63255990  0.03570379  1  -0.133129  0  -0.010098  0.075103  0  3.928964  0
C  C119  1  0.97254537  0.55165764  0.03488167  1  -0.028833  0  -0.005319  0.043564  0  3.972959  0
C  C120  1  0.80545288  0.47900440  0.03379980  1  0.024363  0  -0.013322  -0.002361  0  3.967608  0
C  C121  1  0.18587770  0.52905426  0.03566775  1  0.019149  0  -0.012234  -0.004186  0  3.966884  0
C  C122  1  0.29093802  0.92145223  0.59568587  1  1.511112  0  0.23634  0.572941  0  4.123973  0
C  C123  1  0.70966747  0.09342015  0.40509549  1  1.53105  0  0.233036  0.570045  0  4.124074  0
C  C124  1  0.50985440  0.77030936  0.82171609  1  1.524634  0  0.226637  0.575016  0  4.117107  0
C  C125  1  0.50759193  0.22992183  0.71209612  1  1.510106  0  0.227632  0.576494  0  4.11509  0
C  C126  1  0.29224814  0.07972093  0.93840775  1  1.548768  0  0.236728  0.574318  0  4.121217  0
C  C127  1  0.70994552  0.90643549  0.12831970  1  1.539612  0  0.233507  0.572122  0  4.122763  0
Br  Br128  1  0.51244701  0.75532372  0.25801344  1  -0.065137  0  0.018295  -0.072885  0  1.342181  0
Br  Br129  1  0.51344654  0.24407402  0.27558701  1  -0.064565  0  0.018144  -0.073  0  1.341319  0
Br  Br130  1  0.98553149  0.23993954  0.49843361  1  -0.091197  0  0.01213  -0.086222  0  1.3607  0
Br  Br131  1  0.00522334  0.75252345  0.50532931  1  -0.068856  0  0.015511  -0.077079  0  1.341274  0
Br  Br132  1  0.98569645  0.76097503  0.03564644  1  -0.081528  0  0.012851  -0.085428  0  1.36305  0
Br  Br133  1  0.00719341  0.24829166  0.03020909  1  -0.068832  0  0.015516  -0.077051  0  1.339924  0
N  N134  1  0.50912674  0.25935482  0.49830789  1  -1.238717  0  -0.311918  -0.175234  0  3.547173  0
N  N135  1  0.48403467  0.75787587  0.50011185  1  -1.234674  0  -0.312278  -0.17316  0  3.547939  0
N  N136  1  0.50954706  0.74115618  0.03554447  1  -1.229085  0  -0.311939  -0.175145  0  3.546848  0
N  N137  1  0.48539621  0.24271104  0.03359119  1  -1.232282  0  -0.313193  -0.173644  0  3.549511  0
O  O138  1  0.49693482  0.43937943  0.56841178  1  -1.177737  0  -0.316106  -0.555054  0  2.314876  0
O  O139  1  0.47980362  0.60217185  0.57251369  1  -1.165886  0  -0.319821  -0.546926  0  2.318675  0
O  O140  1  0.33326248  0.56815991  0.49905315  1  -1.165165  0  -0.314768  -0.536709  0  2.307842  0
O  O141  1  0.34925190  0.40515560  0.49702230  1  -1.152447  0  -0.317115  -0.549096  0  2.345665  0
O  O142  1  0.49270045  0.60419633  0.42934395  1  -1.159611  0  -0.317637  -0.550209  0  2.351504  0
O  O143  1  0.50412518  0.44103962  0.42540175  1  -1.163871  0  -0.316762  -0.541128  0  2.302745  0
O  O144  1  0.65636596  0.42593598  0.49792402  1  -1.159368  0  -0.321286  -0.542714  0  2.319616  0
O  O145  1  0.63935631  0.58866256  0.50261488  1  -1.156735  0  -0.315544  -0.55259  0  2.322893  0
O  O146  1  0.49884410  0.56085437  0.96548743  1  -1.172679  0  -0.315977  -0.554738  0  2.314718  0
O  O147  1  0.48161636  0.39814169  0.96136657  1  -1.159485  0  -0.319731  -0.54611  0  2.317243  0
O  O148  1  0.33459525  0.43292969  0.03512496  1  -1.160246  0  -0.315004  -0.537633  0  2.309182  0
O  O149  1  0.34997831  0.59594659  0.03677213  1  -1.187223  0  -0.317245  -0.549052  0  2.344813  0
O  O150  1  0.49333622  0.39541699  0.10440324  1  -1.175672  0  -0.318222  -0.550111  0  2.352512  0
O  O151  1  0.50381113  0.55858530  0.10834758  1  -1.16783  0  -0.316583  -0.541507  0  2.305103  0
O  O152  1  0.65717258  0.57494488  0.03620835  1  -1.163369  0  -0.321201  -0.54321  0  2.320763  0
O  O153  1  0.64074598  0.41227317  0.03134508  1  -1.178284  0  -0.315707  -0.553259  0  2.321791  0
O  O154  1  0.33056758  0.85908941  0.62775408  1  -1.091572  0  -0.327644  -0.461447  0  2.195115  0
O  O155  1  0.20084094  0.93750827  0.59463254  1  -1.058076  0  -0.267191  -0.425194  0  2.030516  0
O  O156  1  0.77790591  0.15775716  0.42269469  1  -1.09621  0  -0.331514  -0.469427  0  2.241282  0
O  O157  1  0.71004793  0.07280260  0.36368796  1  -1.072867  0  -0.263831  -0.418472  0  2.032495  0
O  O158  1  0.58402962  0.77541735  0.85523463  1  -1.133277  0  -0.347366  -0.486166  0  2.191045  0
O  O159  1  0.45788219  0.84077146  0.81393921  1  -1.10518  0  -0.285757  -0.44778  0  2.028474  0
O  O160  1  0.58173480  0.22391167  0.67837757  1  -1.092079  0  -0.347596  -0.487505  0  2.190525  0
O  O161  1  0.45504604  0.16002866  0.72007680  1  -1.110749  0  -0.286122  -0.44828  0  2.026976  0
O  O162  1  0.33189180  0.14233154  0.90640533  1  -1.071088  0  -0.327779  -0.461319  0  2.195075  0
O  O163  1  0.20222525  0.06352601  0.93953615  1  -1.097829  0  -0.267362  -0.425708  0  2.029811  0
O  O164  1  0.77773920  0.84128926  0.11068660  1  -1.06766  0  -0.332291  -0.471142  0  2.242935  0
O  O165  1  0.71061302  0.92757047  0.16966526  1  -1.089263  0  -0.264085  -0.418904  0  2.0317  0
