# generated using pymatgen
data_Cu3H22C30S2(N5O3)4
_symmetry_space_group_name_H-M   'P 1'
_cell_length_a   8.03122867
_cell_length_b   11.81869335
_cell_length_c   14.01375232
_cell_angle_alpha   104.06625606
_cell_angle_beta   104.53509838
_cell_angle_gamma   107.68487339
_symmetry_Int_Tables_number   1
_chemical_formula_structural   Cu3H22C30S2(N5O3)4
_chemical_formula_sum   'Cu3 H22 C30 S2 N20 O12'
_cell_volume   1150.88144622
_cell_formula_units_Z   1
loop_
 _symmetry_equiv_pos_site_id
 _symmetry_equiv_pos_as_xyz
  1  'x, y, z'
loop_
 _atom_site_type_symbol
 _atom_site_label
 _atom_site_symmetry_multiplicity
 _atom_site_fract_x
 _atom_site_fract_y
 _atom_site_fract_z
 _atom_site_occupancy
 _atom_site_hle17_ddec_charge
 _atom_site_hle17_ddec_spin_density
 _atom_site_hle17_ddec_sum_bond_order
 _atom_site_hle17_magmom
 _atom_site_hse06_10hf_ddec_charge
 _atom_site_hse06_10hf_ddec_spin_density
 _atom_site_hse06_10hf_ddec_sum_bond_order
 _atom_site_hse06_10hf_magmom
 _atom_site_hse06_ddec_charge
 _atom_site_hse06_ddec_spin_density
 _atom_site_hse06_ddec_sum_bond_order
 _atom_site_hse06_magmom
 _atom_site_pbe_cm5_charge
 _atom_site_pbe_ddec_charge
 _atom_site_pbe_ddec_spin_density
 _atom_site_pbe_ddec_sum_bond_order
 _atom_site_pbe_magmom
Cu  Cu0  1  0.99997053  0.50024150  0.99992238  1  0.775823  -0.708867  1.926565  -0.513  0.731664  -0.78379  2.319521  -0.617  0.808472  -0.85458  2.267736  -0.703  0.797708  0.684972  -0.72838  2.35625  -0.556
Cu  Cu1  1  0.49631875  0.68114860  0.50487937  1  0.8751  -0.691076  1.855552  -0.505  0.853286  -0.798663  2.263977  -0.635  0.959506  -0.881018  2.170898  -0.732  0.766281  0.791144  -0.726824  2.31992  -0.561
Cu  Cu2  1  0.50387256  0.31871958  0.49500025  1  0.874161  0.724892  1.858354  0.498  0.852825  0.828877  2.266064  0.635  0.958623  0.920046  2.173551  0.732  0.766761  0.790896  0.747741  2.321911  0.557
H  H3  1  0.95706668  0.23306640  0.00541467  1  0.400669  0.0  0.850719  0.0  0.39516  2.1e-05  0.89234  0.0  0.403469  1e-05  0.880508  0.0  0.309457  0.389494  2.4e-05  0.900446  0.0
H  H4  1  0.04296411  0.76683861  0.99456767  1  0.401062  6e-06  0.850367  0.0  0.395527  4.4e-05  0.891848  0.0  0.403841  2.3e-05  0.880013  0.0  0.30972  0.389883  6e-05  0.899923  0.0
H  H5  1  0.09849272  0.32099611  0.11942989  1  0.428413  -9.7e-05  0.875366  0.0  0.399157  -0.000112  0.936703  0.0  0.411159  -7.8e-05  0.919143  0.0  0.278031  0.390567  -0.000145  0.949201  0.0
H  H6  1  0.90142633  0.67893873  0.88052555  1  0.428628  6.6e-05  0.874993  0.0  0.399395  0.000102  0.93632  0.0  0.411417  5.8e-05  0.918725  0.0  0.278191  0.390794  0.00014  0.948826  0.0
H  H7  1  0.30021874  0.54417984  0.88689165  1  0.108866  -0.001457  0.966289  -0.003  0.107315  -0.000989  1.039013  -0.002  0.111005  -0.000588  1.035642  -0.001  0.126777  0.104391  -0.001392  1.041753  -0.003
H  H8  1  0.69979536  0.45585400  0.11308231  1  0.108576  -0.001435  0.966557  -0.003  0.107232  -0.000982  1.039152  -0.002  0.110949  -0.000589  1.035746  -0.001  0.126773  0.104378  -0.001376  1.041844  -0.003
H  H9  1  0.65209996  0.66667850  0.95558532  1  0.110412  -0.000961  0.948752  -0.001  0.112234  -0.000658  1.015483  -0.001  0.115926  -0.000413  1.01216  -0.001  0.119263  0.109262  -0.000912  1.018354  -0.001
H  H10  1  0.34789550  0.33329054  0.04441499  1  0.110348  -0.001046  0.948947  -0.001  0.112298  -0.00067  1.015577  -0.001  0.115986  -0.000426  1.012266  -0.001  0.119289  0.109349  -0.000918  1.018431  -0.001
H  H11  1  0.65370519  0.77589463  0.26057573  1  0.099208  -0.000953  0.95509  -0.001  0.098431  -0.000677  1.029564  -0.001  0.101561  -0.000392  1.027014  -0.001  0.120234  0.096187  -0.000971  1.031583  -0.001
H  H12  1  0.34629698  0.22382385  0.73945414  1  0.099339  -0.001216  0.95507  -0.002  0.098534  -0.000803  1.029572  -0.001  0.101743  -0.000494  1.026928  -0.001  0.120361  0.096202  -0.00111  1.031691  -0.001
H  H13  1  0.27903127  0.72207776  0.66152014  1  0.108194  -0.000184  0.919126  0.0  0.117164  -7.5e-05  0.973373  0.0  0.121003  0.0  0.970708  0.0  0.125764  0.11442  -0.000191  0.975392  0.0
H  H14  1  0.72096331  0.27793037  0.33847955  1  0.108208  0.00013  0.919217  0.0  0.117129  5.3e-05  0.973522  0.0  0.120943  -1.5e-05  0.97088  0.0  0.125817  0.114475  0.000155  0.975454  0.0
H  H15  1  0.95655137  0.70958256  0.65849875  1  0.098514  -5e-05  0.98293  0.0  0.103398  -5.5e-05  1.047004  0.0  0.107023  -2e-05  1.044139  0.0  0.115195  0.100794  -0.000105  1.048989  0.0
H  H16  1  0.04345255  0.29045760  0.34151375  1  0.098617  3.2e-05  0.982695  0.0  0.103388  6e-05  1.046856  0.0  0.107013  2.4e-05  1.043996  0.0  0.115243  0.100801  0.000111  1.048824  0.0
H  H17  1  0.77824789  0.61740614  0.33427429  1  0.110047  -8.4e-05  0.954483  0.0  0.112692  -6.6e-05  1.024705  0.0  0.117178  -2e-05  1.020685  0.0  0.120111  0.109527  -0.000136  1.027531  0.0
H  H18  1  0.22170278  0.38257227  0.66572395  1  0.110041  7.5e-05  0.954202  0.0  0.112493  7.7e-05  1.024586  0.0  0.116934  3.6e-05  1.020617  0.0  0.12008  0.10934  0.000126  1.027395  0.0
H  H19  1  0.85604727  0.09659777  0.48992572  1  0.089082  -0.000645  0.95148  -0.001  0.093367  -0.000611  1.019094  -0.001  0.095596  -0.000387  1.019229  -0.001  0.116127  0.091633  -0.000814  1.019161  -0.001
H  H20  1  0.14397946  0.90338119  0.51006767  1  0.089354  0.000673  0.951279  0.001  0.093388  0.000631  1.019117  0.001  0.095597  0.000402  1.019277  0.001  0.11617  0.091687  0.000835  1.01913  0.001
H  H21  1  0.06199702  0.07739552  0.78635691  1  0.089843  -0.000755  0.951565  -0.001  0.089115  -0.000577  1.022543  -0.001  0.093257  -0.000379  1.018761  0.0  0.116456  0.085955  -0.000766  1.025632  -0.001
H  H22  1  0.93803843  0.92266822  0.21366818  1  0.089961  0.000778  0.951263  0.001  0.089197  0.000613  1.022248  0.001  0.09335  0.000419  1.018449  0.0  0.116519  0.086079  0.00075  1.025299  0.001
H  H23  1  0.80758550  0.85497711  0.72554892  1  0.115098  -0.000804  0.947833  -0.001  0.1189  -0.000756  1.010198  -0.001  0.122548  -0.000562  1.007056  -0.001  0.126969  0.115676  -0.000886  1.013092  -0.002
H  H24  1  0.19250852  0.14506316  0.27447487  1  0.115308  0.000852  0.947887  0.001  0.11894  0.000787  1.010368  0.001  0.122577  0.00059  1.00724  0.001  0.126899  0.115738  0.000915  1.013254  0.002
C  C25  1  0.37975416  0.59759421  0.97022876  1  0.094226  0.006128  3.636375  0.006  0.069281  0.00031  3.891302  0.001  0.07429  0.001878  3.908526  0.003  0.063835  0.065736  -0.001123  3.881051  0.0
C  C26  1  0.62020902  0.40254440  0.02973802  1  0.094549  0.005558  3.636866  0.005  0.069178  0.00013  3.892079  0.001  0.074157  0.001545  3.909318  0.002  0.063905  0.06565  -0.001251  3.881711  -0.001
C  C27  1  0.57320081  0.66555199  0.00867348  1  0.073964  -0.0105  3.661467  -0.012  0.049571  -0.005355  3.920508  -0.007  0.051256  -0.004323  3.936217  -0.005  0.057114  0.047783  -0.006692  3.91103  -0.008
C  C28  1  0.42680494  0.33441017  0.99133530  1  0.073984  -0.007817  3.661251  -0.009  0.049475  -0.003461  3.920519  -0.005  0.051152  -0.002925  3.936241  -0.004  0.057111  0.047698  -0.003699  3.910979  -0.005
C  C29  1  0.57390222  0.72566818  0.17717592  1  0.081832  -0.008039  3.623181  -0.009  0.051628  -0.003612  3.878995  -0.004  0.054583  -0.003125  3.892661  -0.004  0.069213  0.049131  -0.004226  3.87059  -0.005
C  C30  1  0.42607154  0.27424906  0.82283182  1  0.080949  -0.006096  3.623582  -0.007  0.050986  -0.002423  3.879184  -0.003  0.053924  -0.002119  3.892777  -0.002  0.06879  0.048499  -0.002767  3.870825  -0.003
C  C31  1  0.37995973  0.65945682  0.14034647  1  0.139254  0.004772  3.734122  0.005  0.141257  0.000684  3.980549  0.001  0.145638  0.001845  3.997689  0.003  0.136381  0.137596  -0.000571  3.970493  0.0
C  C32  1  0.61998033  0.34058234  0.85962753  1  0.139613  0.002567  3.733845  0.003  0.141405  -0.000517  3.980433  0.0  0.145757  0.000601  3.997613  0.001  0.13654  0.137775  -0.001392  3.970326  -0.001
C  C33  1  0.25780116  0.64897102  0.20091102  1  0.23595  -0.004601  3.695112  -0.007  0.187626  -0.006379  3.959754  -0.008  0.203322  -0.003689  3.970383  -0.005  0.240096  0.176959  -0.008948  3.953433  -0.011
C  C34  1  0.74218253  0.35077857  0.79909683  1  0.234837  0.00545  3.696364  0.003  0.186154  0.003777  3.961093  0.002  0.201894  0.004054  3.971663  0.003  0.239421  0.175408  0.003803  3.954867  0.002
C  C35  1  0.11329704  0.64080669  0.31429975  1  0.235578  -0.009079  3.686929  -0.011  0.184782  -0.006723  3.960307  -0.009  0.194893  -0.004674  3.973378  -0.006  0.24218  0.176906  -0.008768  3.952624  -0.011
C  C36  1  0.88664555  0.35934041  0.68569602  1  0.23598  -0.000306  3.687389  -0.003  0.184857  0.000529  3.960854  -0.001  0.194834  0.000364  3.974051  -0.001  0.242329  0.177204  0.001052  3.952941  -0.001
C  C37  1  0.07263335  0.65694235  0.41106330  1  0.112386  0.00101  3.786039  0.001  0.12051  0.000187  4.029826  0.0  0.123417  0.000387  4.048392  0.0  0.129747  0.118763  -6.2e-05  4.01756  0.0
C  C38  1  0.92733886  0.34322026  0.58895868  1  0.111991  -0.002555  3.784682  -0.003  0.119673  -0.001147  4.029201  -0.002  0.122616  -0.001257  4.047752  -0.002  0.129185  0.117874  -0.000907  4.016897  -0.001
C  C39  1  0.16763610  0.70289506  0.58919245  1  0.08477  0.000773  3.671453  0.001  0.063062  0.00013  3.924468  0.0  0.065108  0.000371  3.941984  0.0  0.055176  0.061628  -0.00012  3.913053  0.0
C  C40  1  0.83233475  0.29707602  0.41079986  1  0.084823  -0.00133  3.6719  -0.001  0.063036  -0.000327  3.925094  -0.001  0.065079  -0.000595  3.942643  -0.001  0.055133  0.061598  -4e-05  3.913572  0.0
C  C41  1  0.98964515  0.69475199  0.58664259  1  0.070741  -0.002369  3.669632  -0.003  0.04724  -0.001282  3.92726  -0.001  0.049979  -0.000932  3.944068  -0.001  0.047117  0.045028  -0.001869  3.916681  -0.002
C  C42  1  0.01033756  0.30525088  0.41337067  1  0.070827  0.00376  3.669259  0.004  0.047345  0.001803  3.927007  0.002  0.050064  0.001409  3.943827  0.001  0.047197  0.045213  0.002434  3.91629  0.002
C  C43  1  0.89124799  0.64462086  0.40817845  1  0.068262  -0.002156  3.640937  -0.002  0.035751  -0.001097  3.899943  -0.001  0.038833  -0.000856  3.913987  -0.001  0.064097  0.033803  -0.001474  3.890534  -0.002
C  C44  1  0.10869523  0.35541419  0.59183505  1  0.069012  0.003312  3.639789  0.003  0.036753  0.001517  3.898908  0.002  0.039876  0.001267  3.912933  0.001  0.064577  0.034827  0.001883  3.889463  0.002
C  C45  1  0.54980538  0.87231573  0.40735605  1  0.45543  0.001733  3.938236  0.001  0.417549  -0.001218  4.246103  -0.002  0.448158  -0.000649  4.247423  -0.001  0.21682  0.396877  -0.001816  4.244526  -0.002
C  C46  1  0.45021592  0.12782008  0.59267754  1  0.455235  -0.000776  3.93664  0.0  0.417673  0.001326  4.244607  0.002  0.448253  0.000847  4.246008  0.001  0.217236  0.397042  0.001681  4.24282  0.002
C  C47  1  0.70272283  0.92781259  0.51254584  1  0.089835  0.006265  3.714583  0.006  0.094551  0.001839  3.958034  0.002  0.096423  0.002547  3.975818  0.003  0.122509  0.092442  0.001112  3.948005  0.001
C  C48  1  0.29733652  0.07223645  0.48749573  1  0.090641  -0.005783  3.713474  -0.006  0.095  -0.001721  3.957346  -0.002  0.096914  -0.0024  3.975062  -0.003  0.122764  0.092816  -0.001056  3.947352  -0.002
C  C49  1  0.84726922  0.04561348  0.54493885  1  0.06764  -0.007008  3.676681  -0.008  0.036796  -0.002837  3.934025  -0.003  0.038868  -0.00269  3.949708  -0.003  0.05503  0.035064  -0.003075  3.924775  -0.003
C  C50  1  0.15278598  0.95442175  0.45508691  1  0.067664  0.007498  3.675504  0.008  0.036805  0.002986  3.933263  0.003  0.038867  0.002849  3.948975  0.003  0.05509  0.035204  0.003115  3.923777  0.003
C  C51  1  0.95921514  0.03208889  0.70657249  1  0.08336  -0.007537  3.657309  -0.008  0.063713  -0.003507  3.910322  -0.004  0.066207  -0.003348  3.923253  -0.004  0.06022  0.061543  -0.003643  3.902874  -0.004
C  C52  1  0.04084045  0.96794936  0.29344828  1  0.083427  0.007784  3.656837  0.008  0.063701  0.003598  3.910045  0.004  0.066176  0.003505  3.923006  0.004  0.060159  0.061571  0.003646  3.902494  0.004
C  C53  1  0.81844791  0.91179744  0.67475196  1  0.097088  0.005953  3.617525  0.005  0.074053  0.00087  3.865213  0.001  0.079446  0.002  3.881851  0.003  0.065711  0.069708  -6e-06  3.856671  0.0
C  C54  1  0.18163449  0.08823158  0.32526410  1  0.097368  -0.005397  3.617408  -0.005  0.074207  -0.000714  3.865375  -0.001  0.079595  -0.001823  3.882016  -0.003  0.065961  0.069877  0.000142  3.85678  0.0
S  S55  1  0.62314542  0.58055647  0.68663521  1  1.556759  0.00215  5.805824  0.002  1.454978  0.000637  6.35102  0.002  1.518641  0.000504  6.316394  0.001  0.555995  1.409527  0.000655  6.373227  0.002
S  S56  1  0.37682052  0.41940166  0.31334421  1  1.556218  -0.001563  5.806718  -0.002  1.454321  -0.000296  6.352045  -0.002  1.517985  -0.000164  6.317457  -0.001  0.555803  1.408874  -0.00034  6.374221  -0.002
N  N57  1  0.66917926  0.72868262  0.11145701  1  -0.237462  0.003366  3.042019  0.004  -0.209159  0.001861  3.313264  0.002  -0.216276  0.002764  3.326551  0.003  -0.290786  -0.203876  0.000304  3.304529  0.001
N  N58  1  0.33079231  0.27129165  0.88855467  1  -0.236954  0.002079  3.042023  0.002  -0.208548  0.001221  3.313174  0.001  -0.21565  0.00211  3.326471  0.003  -0.290454  -0.203211  -0.000335  3.304391  0.0
N  N59  1  0.28502353  0.59501857  0.03611323  1  -0.264883  -0.080328  3.25251  -0.102  -0.228464  -0.058672  3.535042  -0.079  -0.25341  -0.047629  3.556957  -0.068  -0.308536  -0.213934  -0.065008  3.522533  -0.084
N  N60  1  0.71484567  0.40542964  0.96381140  1  -0.265036  -0.07861  3.251648  -0.099  -0.228088  -0.057389  3.533997  -0.077  -0.253009  -0.046718  3.555972  -0.067  -0.308609  -0.213575  -0.06277  3.521386  -0.081
N  N61  1  0.07400147  0.58492333  0.15019496  1  -0.234081  -0.073908  3.299147  -0.092  -0.208512  -0.052956  3.633479  -0.069  -0.235482  -0.043614  3.65323  -0.06  -0.256593  -0.19328  -0.057832  3.622541  -0.072
N  N62  1  0.92607953  0.41432872  0.84983324  1  -0.233032  -0.067069  3.298446  -0.084  -0.207709  -0.048052  3.632871  -0.064  -0.234797  -0.040735  3.6527  -0.057  -0.255862  -0.192223  -0.050992  3.621733  -0.065
N  N63  1  0.98413623  0.57882420  0.21888052  1  -0.195747  -0.008649  2.928437  -0.009  -0.179125  -0.007211  3.215877  -0.008  -0.187181  -0.003744  3.232279  -0.004  -0.186358  -0.172979  -0.010549  3.205637  -0.011
N  N64  1  0.01586861  0.42086973  0.78114278  1  -0.195778  -0.010938  2.928825  -0.012  -0.17933  -0.007179  3.21665  -0.008  -0.187384  -0.004019  3.233135  -0.005  -0.18637  -0.173087  -0.010426  3.206162  -0.012
N  N65  1  0.28735800  0.68756707  0.30576399  1  0.022271  -0.001182  3.582029  0.002  0.135564  -0.000305  3.754289  0.003  0.130154  0.000431  3.776162  0.003  -0.103442  0.13868  -0.000919  3.740696  0.002
N  N66  1  0.71256367  0.31264928  0.69423798  1  0.022012  0.003297  3.582038  0.001  0.136262  0.000729  3.753441  -0.002  0.130977  0.000223  3.775197  -0.002  -0.103577  0.139188  0.001051  3.739945  -0.001
N  N67  1  0.20987600  0.68594882  0.50175329  1  -0.277414  -0.007871  3.199015  -0.011  -0.24837  -0.00626  3.477418  -0.009  -0.265047  -0.003946  3.49338  -0.007  -0.304621  -0.2378  -0.008372  3.467201  -0.012
N  N68  1  0.79007174  0.31410826  0.49822796  1  -0.276922  0.008915  3.199079  0.011  -0.24793  0.006699  3.477842  0.01  -0.26458  0.004382  3.493794  0.007  -0.304363  -0.237366  0.008803  3.467641  0.012
N  N69  1  0.85142357  0.66559964  0.49603449  1  -0.244372  0.001697  3.084817  0.001  -0.219194  0.001493  3.375844  0.001  -0.231177  0.001614  3.39164  0.001  -0.291385  -0.211704  0.000989  3.366141  0.001
N  N70  1  0.14852795  0.33437984  0.50398981  1  -0.244396  -0.002065  3.084119  -0.002  -0.219418  -0.001534  3.375079  -0.001  -0.231315  -0.001693  3.390784  -0.002  -0.291513  -0.211946  -0.001002  3.365374  -0.001
N  N71  1  0.45273099  0.74815494  0.38894603  1  -0.408027  -0.086661  3.182149  -0.109  -0.4175  -0.060795  3.514449  -0.081  -0.463155  -0.04925  3.536102  -0.069  -0.295532  -0.389491  -0.065438  3.501294  -0.083
N  N72  1  0.54715144  0.25204798  0.61111163  1  -0.406434  0.084091  3.180434  0.1  -0.417149  0.062006  3.512947  0.079  -0.462901  0.050946  3.534732  0.068  -0.295216  -0.388734  0.06533  3.499466  0.08
N  N73  1  0.69253891  0.86015020  0.57710094  1  -0.26283  -0.065024  3.326047  -0.083  -0.227282  -0.049401  3.618407  -0.067  -0.253495  -0.041379  3.637509  -0.06  -0.313897  -0.213631  -0.052332  3.60946  -0.068
N  N74  1  0.30752377  0.13987567  0.42292091  1  -0.262749  0.068166  3.326377  0.082  -0.227538  0.051202  3.619058  0.067  -0.253678  0.04329  3.638096  0.06  -0.314068  -0.213842  0.053691  3.610115  0.067
N  N75  1  0.97680359  0.09799796  0.64155498  1  -0.248949  0.005514  3.051047  0.006  -0.21948  0.002472  3.325915  0.003  -0.225166  0.002835  3.339729  0.004  -0.295111  -0.215991  0.001917  3.317325  0.002
N  N76  1  0.02324254  0.90203279  0.35846064  1  -0.248757  -0.005182  3.050636  -0.006  -0.219758  -0.002448  3.325939  -0.003  -0.225467  -0.00276  3.339785  -0.004  -0.295069  -0.216193  -0.002092  3.317201  -0.003
O  O77  1  0.52122205  0.93499444  0.35011392  1  -0.522732  -0.020269  1.872125  -0.025  -0.50173  -0.007884  2.082523  -0.01  -0.525101  -0.002949  2.079633  -0.004  -0.314763  -0.483945  -0.013555  2.08306  -0.017
O  O78  1  0.47890968  0.06522385  0.64998020  1  -0.521725  0.020379  1.871448  0.024  -0.501418  0.008217  2.081924  0.01  -0.524836  0.003232  2.079107  0.004  -0.314462  -0.483434  0.013661  2.082316  0.017
O  O79  1  0.04868575  0.31851724  0.04535484  1  -0.836966  0.000471  1.823962  -0.001  -0.809519  0.000429  1.992849  0.0  -0.827698  0.000614  1.959924  0.0  -0.593619  -0.796553  0.000212  2.015964  0.0
O  O80  1  0.95133474  0.68139034  0.95460520  1  -0.837039  0.000906  1.824892  0.0  -0.809337  0.000802  1.993917  0.0  -0.827623  0.000877  1.960978  0.0  -0.593273  -0.79627  0.000652  2.016954  0.0
O  O81  1  0.50765763  0.64412467  0.63493923  1  -0.712009  -0.068665  2.056123  -0.091  -0.683233  -0.042459  2.361307  -0.06  -0.725511  -0.031044  2.342677  -0.046  -0.376336  -0.654154  -0.049956  2.373327  -0.068
O  O82  1  0.49238890  0.35585346  0.36502393  1  -0.71114  0.072824  2.056083  0.09  -0.683067  0.044124  2.361599  0.06  -0.725195  0.032546  2.342927  0.046  -0.376371  -0.653991  0.051549  2.373614  0.067
O  O83  1  0.65916630  0.49611638  0.60198740  1  -0.720085  0.048552  2.093515  0.06  -0.703119  0.031046  2.418775  0.042  -0.742971  0.023796  2.403478  0.033  -0.36996  -0.675136  0.0353  2.428808  0.046
O  O84  1  0.34075490  0.50383330  0.39798096  1  -0.720153  -0.045777  2.093533  -0.061  -0.702675  -0.029916  2.418808  -0.042  -0.742567  -0.022726  2.403315  -0.034  -0.36979  -0.674842  -0.034277  2.42915  -0.046
O  O85  1  0.52326180  0.51210148  0.74272039  1  -0.696131  -0.020148  1.889066  -0.026  -0.660739  -0.009745  2.135652  -0.013  -0.686958  -0.005521  2.12222  -0.008  -0.35873  -0.639045  -0.014041  2.142845  -0.018
O  O86  1  0.47672845  0.48788535  0.25728890  1  -0.695731  0.021545  1.889222  0.026  -0.660585  0.01021  2.136035  0.013  -0.686768  0.005861  2.122539  0.008  -0.358692  -0.63887  0.014592  2.143246  0.018
O  O87  1  0.80786257  0.68014784  0.76017593  1  -0.731902  0.016628  1.926665  0.02  -0.679707  0.007222  2.156189  0.009  -0.705  0.004203  2.136472  0.006  -0.362747  -0.659225  0.010619  2.167815  0.013
O  O88  1  0.19213342  0.31979037  0.23983537  1  -0.731912  -0.015758  1.927617  -0.02  -0.679286  -0.007017  2.156884  -0.01  -0.704614  -0.00405  2.137201  -0.006  -0.362531  -0.658811  -0.010379  2.168526  -0.013
