# generated using pymatgen
data_AlH9C24(ClO)6
_symmetry_space_group_name_H-M   'P 1'
_cell_length_a   3.99051077
_cell_length_b   28.79694991
_cell_length_c   28.79695836
_cell_angle_alpha   120.00008410
_cell_angle_beta   89.99957977
_cell_angle_gamma   90.00042423
_symmetry_Int_Tables_number   1
_chemical_formula_structural   AlH9C24(ClO)6
_chemical_formula_sum   'Al2 H18 C48 Cl12 O12'
_cell_volume   2865.83947363
_cell_formula_units_Z   2
loop_
 _symmetry_equiv_pos_site_id
 _symmetry_equiv_pos_as_xyz
  1  'x, y, z'
loop_
 _atom_site_type_symbol
 _atom_site_label
 _atom_site_symmetry_multiplicity
 _atom_site_fract_x
 _atom_site_fract_y
 _atom_site_fract_z
 _atom_site_occupancy
 _atom_site_pbe_bader_charge
 _atom_site_pbe_bader_spin_density
 _atom_site_pbe_cm5_charge
 _atom_site_pbe_ddec_charge
 _atom_site_pbe_ddec_spin_density
 _atom_site_pbe_ddec_sum_bond_order
 _atom_site_pbe_magmom
Al  Al0  1  0.00006534  0.50000015  0.49999925  1  2.505639  0  0.428502  1.615137  0  2.540131  0
Al  Al1  1  0.00006822  0.16666759  0.83333230  1  2.505767  0  0.428589  1.615345  0  2.539913  0
H  H2  1  0.50145414  0.22993056  0.64330514  1  0.064897  0  0.103922  0.118213  0  1.00479  0
H  H3  1  0.49827893  0.37543834  0.79796004  1  0.02123  0  0.1042  0.118834  0  0.995107  0
H  H4  1  0.49827344  0.29121450  0.53535029  1  0.020704  0  0.104311  0.118989  0  0.995187  0
H  H5  1  0.50145080  0.43671372  0.69001027  1  0.06542  0  0.103933  0.118122  0  1.004924  0
H  H6  1  0.49998515  0.38454605  0.72209730  1  0.053148  0  0.101717  0.09966  0  1.000088  0
H  H7  1  0.49997781  0.28209611  0.61120636  1  0.05208  0  0.101679  0.099588  0  1.000091  0
H  H8  1  0.50144859  0.91337652  0.77006898  1  0.071361  0  0.103914  0.118271  0  1.004837  0
H  H9  1  0.49827751  0.92252294  0.62456148  1  0.059847  0  0.10421  0.118858  0  0.995115  0
H  H10  1  0.49827825  0.74413723  0.70878635  1  0.059347  0  0.104294  0.118948  0  0.995222  0
H  H11  1  0.50144220  0.75329723  0.56328680  1  0.072913  0  0.10394  0.118135  0  1.004903  0
H  H12  1  0.49997958  0.83755202  0.61545356  1  0.044611  0  0.101707  0.099662  0  1.000091  0
H  H13  1  0.49997675  0.82911299  0.71790471  1  0.043917  0  0.101667  0.09954  0  1.000066  0
H  H14  1  0.50144661  0.35669383  0.08662384  1  0.072549  0  0.103943  0.118295  0  1.004781  0
H  H15  1  0.49828033  0.20204037  0.07747639  1  0.067022  0  0.104245  0.118909  0  0.995125  0
H  H16  1  0.49827506  0.46465048  0.25586142  1  0.066122  0  0.104254  0.118893  0  0.995198  0
H  H17  1  0.50144130  0.30999046  0.24670179  1  0.073251  0  0.103957  0.118135  0  1.004931  0
H  H18  1  0.49998417  0.27790319  0.16244745  1  0.048575  0  0.10172  0.09965  0  1.000111  0
H  H19  1  0.49997430  0.38879387  0.17088694  1  0.048419  0  0.101707  0.099603  0  0.999982  0
C  C20  1  0.50005010  0.46254853  0.41739775  1  1.581485  0  0.275476  0.678987  0  4.057919  0
C  C21  1  0.50005184  0.45485214  0.53745196  1  1.645647  0  0.275419  0.679024  0  4.05782  0
C  C22  1  0.50005496  0.58260134  0.54514855  1  1.650606  0  0.275433  0.678923  0  4.05786  0
C  C23  1  0.50006900  0.21180686  0.79587096  1  1.645829  0  0.2754  0.678854  0  4.057926  0
C  C24  1  0.50007089  0.08406616  0.78819088  1  1.649254  0  0.275474  0.679081  0  4.057738  0
C  C25  1  0.50006573  0.20412863  0.91593410  1  1.579106  0  0.275424  0.679007  0  4.057688  0
C  C26  1  0.50013570  0.24480763  0.76873958  1  0.067812  0  -0.01491  -0.152273  0  3.879812  0
C  C27  1  0.49829465  0.22084481  0.71236396  1  0.024595  0  0.023357  0.15413  0  4.034677  0
C  C28  1  0.49942877  0.25109007  0.68695882  1  -0.035051  0  -0.09782  -0.209909  0  3.947659  0
C  C29  1  0.49978531  0.30740768  0.71708241  1  0.043852  0  -0.006892  0.147277  0  4.058219  0
C  C30  1  0.50031075  0.33184496  0.77323638  1  0.169131  0  -0.097464  -0.215359  0  3.958567  0
C  C31  1  0.50178782  0.30119244  0.79833691  1  -0.023845  0  0.022415  0.156046  0  4.036363  0
C  C32  1  0.49981437  0.34154532  0.69311324  1  -0.098449  0  -0.086439  -0.121155  0  3.976845  0
C  C33  1  0.49980778  0.32509409  0.64018969  1  0.007633  0  -0.0863  -0.120654  0  3.976694  0
C  C34  1  0.50029874  0.33480554  0.56007282  1  0.168016  0  -0.097737  -0.216011  0  3.959036  0
C  C35  1  0.49976417  0.35923822  0.61622861  1  0.043222  0  -0.007047  0.14703  0  4.058199  0
C  C36  1  0.49942656  0.41555770  0.64635728  1  -0.035415  0  -0.097813  -0.209727  0  3.94764  0
C  C37  1  0.49828528  0.44580291  0.62095289  1  0.026012  0  0.023511  0.154493  0  4.034465  0
C  C38  1  0.50011795  0.42184342  0.56457739  1  0.067619  0  -0.014828  -0.152617  0  3.879896  0
C  C39  1  0.50176616  0.36546068  0.53497731  1  -0.023276  0  0.022442  0.156486  0  4.036639  0
C  C40  1  0.50013533  0.02393306  0.75518970  1  -0.053796  0  -0.014929  -0.152534  0  3.879955  0
C  C41  1  0.49828788  0.99152105  0.77915394  1  0.07458  0  0.023457  0.154409  0  4.034536  0
C  C42  1  0.49943243  0.93587214  0.74891032  1  0.048395  0  -0.097854  -0.210101  0  3.947969  0
C  C43  1  0.49978402  0.90967626  0.69259044  1  -0.08716  0  -0.006774  0.147449  0  4.058107  0
C  C44  1  0.50030670  0.94139306  0.66815360  1  0.129146  0  -0.097558  -0.215473  0  3.958513  0
C  C45  1  0.50178086  0.99714672  0.69880711  1  0.08348  0  0.022441  0.156117  0  4.036268  0
C  C46  1  0.49980844  0.85156916  0.65845432  1  -0.041996  0  -0.086467  -0.121229  0  3.976899  0
C  C47  1  0.49980207  0.81509718  0.67490609  1  0.064983  0  -0.086327  -0.120629  0  3.976712  0
C  C48  1  0.50030368  0.72526995  0.66519625  1  0.128804  0  -0.097651  -0.215869  0  3.958866  0
C  C49  1  0.49976134  0.75699171  0.64076279  1  -0.087265  0  -0.007009  0.147061  0  4.058126  0
C  C50  1  0.49942379  0.73080027  0.58444332  1  0.047911  0  -0.097813  -0.209733  0  3.947631  0
C  C51  1  0.49828542  0.67515086  0.55419881  1  0.074994  0  0.023538  0.154548  0  4.034573  0
C  C52  1  0.50012083  0.64273549  0.57815840  1  -0.053013  0  -0.014886  -0.152703  0  3.879994  0
C  C53  1  0.50176899  0.66951815  0.63454019  1  0.083274  0  0.022398  0.156463  0  4.036505  0
C  C54  1  0.50013255  0.23125966  0.97606657  1  0.071611  0  -0.014975  -0.152433  0  3.879754  0
C  C55  1  0.49828682  0.28763654  0.00847996  1  -0.008669  0  0.02339  0.154245  0  4.034684  0
C  C56  1  0.49942877  0.31304190  0.06412841  1  0.1549  0  -0.097879  -0.210085  0  3.947677  0
C  C57  1  0.49978065  0.28291668  0.09032403  1  -0.10677  0  -0.006831  0.147319  0  4.057902  0
C  C58  1  0.50030626  0.22676226  0.05860653  1  0.088267  0  -0.097514  -0.215416  0  3.958495  0
C  C59  1  0.50178053  0.20166276  0.00285294  1  0.085341  0  0.022414  0.156073  0  4.036217  0
C  C60  1  0.49980234  0.30688678  0.14843075  1  -0.090464  0  -0.086509  -0.121203  0  3.97687  0
C  C61  1  0.49980278  0.35981073  0.18490248  1  0.002461  0  -0.086343  -0.120645  0  3.976595  0
C  C62  1  0.50030125  0.43992796  0.27472983  1  0.089985  0  -0.097576  -0.21576  0  3.958966  0
C  C63  1  0.49976182  0.38377237  0.24300795  1  -0.107822  0  -0.007074  0.146877  0  4.058339  0
C  C64  1  0.49942708  0.35364338  0.26919900  1  0.15467  0  -0.097736  -0.209557  0  3.947702  0
C  C65  1  0.49828611  0.37904839  0.32484711  1  -0.007942  0  0.02346  0.154391  0  4.034725  0
C  C66  1  0.50012110  0.43542538  0.35726434  1  0.072916  0  -0.014961  -0.152812  0  3.880009  0
C  C67  1  0.50176645  0.46502462  0.33048139  1  0.085208  0  0.02244  0.156564  0  4.036524  0
Cl  Cl68  1  0.49186339  0.33474692  0.86745590  1  -0.166802  0  -0.003438  -0.066055  0  1.595321  0
Cl  Cl69  1  0.50885393  0.15195584  0.67250794  1  -0.174717  0  -0.004882  -0.06807  0  1.595656  0
Cl  Cl70  1  0.50885863  0.51469370  0.66081472  1  -0.174661  0  -0.00502  -0.068275  0  1.595477  0
Cl  Cl71  1  0.49184351  0.33191123  0.46585815  1  -0.167743  0  -0.003373  -0.066006  0  1.595295  0
Cl  Cl72  1  0.49185571  0.03271031  0.66525171  1  -0.17379  0  -0.003464  -0.066049  0  1.595186  0
Cl  Cl73  1  0.50884854  0.02055504  0.84804324  1  -0.209041  0  -0.004928  -0.068148  0  1.595574  0
Cl  Cl74  1  0.50885901  0.64612167  0.48530781  1  -0.209148  0  -0.005055  -0.068328  0  1.595493  0
Cl  Cl75  1  0.49184868  0.63394810  0.66808986  1  -0.17424  0  -0.003375  -0.066028  0  1.595307  0
Cl  Cl76  1  0.49186060  0.13254382  0.96728893  1  -0.167555  0  -0.003452  -0.06606  0  1.59519  0
Cl  Cl77  1  0.50884813  0.32749171  0.97944729  1  -0.187931  0  -0.004816  -0.06801  0  1.595604  0
Cl  Cl78  1  0.50885942  0.33918833  0.35387821  1  -0.189031  0  -0.005004  -0.068248  0  1.595548  0
Cl  Cl79  1  0.49184880  0.53414392  0.36605109  1  -0.168385  0  -0.003356  -0.066019  0  1.595301  0
O  O80  1  0.73691101  0.55785937  0.55305260  1  -1.241511  0  -0.231194  -0.589432  0  2.395474  0
O  O81  1  0.73691222  0.49519432  0.44214005  1  -1.247503  0  -0.231257  -0.589481  0  2.395512  0
O  O82  1  0.73690937  0.44694743  0.50480581  1  -1.23779  0  -0.23122  -0.589526  0  2.395462  0
O  O83  1  0.26316076  0.56056251  0.51164949  1  -1.243529  0  -0.230821  -0.58918  0  2.394564  0
O  O84  1  0.26315793  0.48835034  0.54891205  1  -1.24021  0  -0.230791  -0.589211  0  2.394626  0
O  O85  1  0.26315976  0.45108876  0.43943642  1  -1.243093  0  -0.230811  -0.589201  0  2.39472  0
O  O86  1  0.73690487  0.17147881  0.89119305  1  -1.244518  0  -0.231245  -0.589689  0  2.395406  0
O  O87  1  0.73690772  0.21971651  0.82852050  1  -1.237907  0  -0.231232  -0.589561  0  2.395481  0
O  O88  1  0.73691109  0.10880637  0.78028234  1  -1.24148  0  -0.231268  -0.58964  0  2.39561  0
O  O89  1  0.26315957  0.21558395  0.89389293  1  -1.243649  0  -0.230778  -0.589147  0  2.39455  0
O  O90  1  0.26316359  0.10610757  0.82168805  1  -1.242054  0  -0.2308  -0.589215  0  2.39447  0
O  O91  1  0.26316391  0.17831097  0.78441551  1  -1.240349  0  -0.230805  -0.589175  0  2.394656  0
