# generated using pymatgen
data_Zn2H17C26(NO2)4
_symmetry_space_group_name_H-M   'P 1'
_cell_length_a   11.01281472
_cell_length_b   10.95496666
_cell_length_c   15.77075152
_cell_angle_alpha   88.05459987
_cell_angle_beta   80.32323991
_cell_angle_gamma   85.20815815
_symmetry_Int_Tables_number   1
_chemical_formula_structural   Zn2H17C26(NO2)4
_chemical_formula_sum   'Zn4 H34 C52 N8 O16'
_cell_volume   1868.65159916
_cell_formula_units_Z   2
loop_
 _symmetry_equiv_pos_site_id
 _symmetry_equiv_pos_as_xyz
  1  'x, y, z'
loop_
 _atom_site_type_symbol
 _atom_site_label
 _atom_site_symmetry_multiplicity
 _atom_site_fract_x
 _atom_site_fract_y
 _atom_site_fract_z
 _atom_site_occupancy
 _atom_site_pbe_bader_charge
 _atom_site_pbe_bader_spin_density
 _atom_site_pbe_cm5_charge
 _atom_site_pbe_ddec_charge
 _atom_site_pbe_ddec_spin_density
 _atom_site_pbe_ddec_sum_bond_order
 _atom_site_pbe_magmom
Zn  Zn0  1  0.72699160  0.82034227  0.60525385  1  1.301455  0  0.672746  0.833084  0  2.407455  0
Zn  Zn1  1  0.68027210  0.81419008  0.79261533  1  1.286702  0  0.668086  0.837296  0  2.357138  0
Zn  Zn2  1  0.27427511  0.18393405  0.39536921  1  1.29556  0  0.675418  0.832607  0  2.414934  0
Zn  Zn3  1  0.32153847  0.18948296  0.21063855  1  1.299885  0  0.668753  0.844698  0  2.378034  0
H  H4  1  0.74548638  0.43608224  0.56258601  1  0.118302  0  0.106578  0.114834  0  0.993441  0
H  H5  1  0.74377263  0.20646287  0.56352905  1  0.081533  0  0.099228  0.100971  0  1.039228  0
H  H6  1  0.65052188  0.20251168  0.83883541  1  0.103801  0  0.09163  0.095036  0  1.045173  0
H  H7  1  0.64398051  0.43302374  0.83744936  1  0.076566  0  0.103264  0.110542  0  0.998252  0
H  H8  1  0.28361491  0.79082016  0.83742744  1  0.074449  0  0.101875  0.105458  0  0.998283  0
H  H9  1  0.05739259  0.77381933  0.83421484  1  0.089643  0  0.10134  0.104138  0  1.016464  0
H  H10  1  0.12276539  0.82692969  0.56036706  1  0.096543  0  0.106161  0.10832  0  1.014099  0
H  H11  1  0.34911558  0.83991858  0.56274110  1  0.114142  0  0.105964  0.108684  0  1.008362  0
H  H12  1  0.56882131  0.82899302  0.31978741  1  0.101669  0  0.109431  0.124599  0  1.024083  0
H  H13  1  0.56344370  0.79486264  0.47737320  1  0.13866  0  0.123396  0.098528  0  0.99656  0
H  H14  1  0.93094766  0.86318072  0.45986297  1  0.121121  0  0.124536  0.100067  0  0.983611  0
H  H15  1  0.95360921  0.90205917  0.30170844  1  0.080383  0  0.113937  0.131056  0  0.984754  0
H  H16  1  0.84482450  0.73906555  0.92011454  1  0.120027  0  0.120205  0.095325  0  0.998121  0
H  H17  1  0.85188152  0.78482441  0.07341481  1  0.093794  0  0.107017  0.119314  0  1.015641  0
H  H18  1  0.48062579  0.87796334  0.94137732  1  0.104042  0  0.114327  0.086327  0  1.001601  0
H  H19  1  0.83459604  0.95935971  0.18775459  1  0.447129  0  0.3212  0.243519  0  0.946894  0
H  H20  1  0.60208792  0.98746089  0.19578532  1  0.506503  0  0.308245  0.252003  0  0.996787  0
H  H21  1  0.25860166  0.57187713  0.43826444  1  0.120424  0  0.108987  0.117383  0  0.991141  0
H  H22  1  0.26321431  0.80155402  0.43359699  1  0.085985  0  0.100523  0.102908  0  1.034808  0
H  H23  1  0.33877655  0.79719283  0.15777639  1  0.055024  0  0.097666  0.09938  0  1.027688  0
H  H24  1  0.34423884  0.56745351  0.16264431  1  0.092374  0  0.104732  0.112208  0  0.997081  0
H  H25  1  0.71683325  0.21392998  0.16344900  1  0.094954  0  0.104331  0.109909  0  0.996146  0
H  H26  1  0.94317172  0.22891854  0.16611026  1  0.094706  0  0.099974  0.101901  0  1.016811  0
H  H27  1  0.88001304  0.16738260  0.43935934  1  0.095913  0  0.106699  0.108831  0  1.013112  0
H  H28  1  0.65369185  0.15591935  0.43759129  1  0.099097  0  0.107511  0.110707  0  1.006819  0
H  H29  1  0.43345948  0.17384165  0.67998712  1  0.090572  0  0.113704  0.130445  0  1.019162  0
H  H30  1  0.43801070  0.20828545  0.52272142  1  0.117371  0  0.124629  0.100289  0  0.995189  0
H  H31  1  0.07213502  0.13316220  0.54017316  1  0.120612  0  0.124973  0.100625  0  0.979713  0
H  H32  1  0.05068476  0.09286053  0.69811547  1  0.09146  0  0.116625  0.135039  0  0.980782  0
H  H33  1  0.15135201  0.27228445  0.07801934  1  0.140244  0  0.1286  0.112267  0  0.987853  0
H  H34  1  0.14940348  0.21946229  0.92526686  1  0.093987  0  0.112378  0.133379  0  1.006409  0
H  H35  1  0.47213173  0.93472577  0.09436994  1  0.100008  0  0.10945  0.130705  0  1.022823  0
H  H36  1  0.17323991  0.03466971  0.81095949  1  0.460349  0  0.321959  0.245738  0  0.947362  0
H  H37  1  0.40698527  0.01928693  0.80298352  1  0.508458  0  0.311481  0.260852  0  0.990597  0
C  C38  1  0.69633414  0.58413492  0.69905745  1  1.579145  0  0.212932  0.590004  0  4.170445  0
C  C39  1  0.69508916  0.44736029  0.70004418  1  -0.056808  0  -0.01432  -0.022134  0  3.955078  0
C  C40  1  0.72361700  0.38399248  0.62252515  1  -0.060479  0  -0.082836  -0.091812  0  3.971869  0
C  C41  1  0.72342796  0.25706007  0.62311815  1  -0.033739  0  -0.089873  -0.105332  0  3.990419  0
C  C42  1  0.69808533  0.19128306  0.70113437  1  -0.059922  0  -0.022901  -0.035639  0  3.976134  0
C  C43  1  0.67042509  0.25463203  0.77870037  1  -0.047573  0  -0.091993  -0.101885  0  3.987035  0
C  C44  1  0.66718450  0.38205108  0.77797195  1  -0.023984  0  -0.086971  -0.097564  0  3.974286  0
C  C45  1  0.70068795  0.05419835  0.70062228  1  1.576733  0  0.205237  0.578122  0  4.195868  0
C  C46  1  0.46281519  0.83119646  0.70114061  1  1.567319  0  0.214007  0.583229  0  4.178042  0
C  C47  1  0.32882805  0.81810319  0.70026181  1  -0.038913  0  -0.019207  -0.030944  0  3.9695  0
C  C48  1  0.24720454  0.79892543  0.77710118  1  -0.031652  0  -0.091658  -0.11364  0  4.009646  0
C  C49  1  0.12224845  0.78962203  0.77541758  1  -0.101975  0  -0.092199  -0.11359  0  4.005141  0
C  C50  1  0.07728441  0.80111952  0.69714114  1  -0.056638  0  -0.014929  -0.02245  0  3.95919  0
C  C51  1  0.15954790  0.81760879  0.62039990  1  -0.020868  0  -0.083172  -0.096253  0  3.977532  0
C  C52  1  0.28452349  0.82509113  0.62183060  1  -0.039706  0  -0.079202  -0.088407  0  3.96279  0
C  C53  1  0.94138861  0.80087255  0.69551411  1  1.592048  0  0.212823  0.585601  0  4.182626  0
C  C54  1  0.76157711  0.87109878  0.29759103  1  0.387881  0  0.118833  0.250332  0  4.087487  0
C  C55  1  0.65132754  0.83717778  0.34796408  1  0.004251  0  -0.09462  -0.231589  0  3.948488  0
C  C56  1  0.64797724  0.81796542  0.43550621  1  0.445208  0  0.052386  0.116915  0  3.944585  0
C  C57  1  0.85347009  0.85652242  0.42579591  1  0.465189  0  0.05109  0.111338  0  3.958788  0
C  C58  1  0.86546063  0.87764785  0.33808858  1  -0.000166  0  -0.094725  -0.241424  0  3.977646  0
C  C59  1  0.76419327  0.78145861  0.96161121  1  0.493195  0  0.044935  0.108887  0  3.969331  0
C  C60  1  0.76818703  0.80811033  0.04625924  1  -0.02507  0  -0.104475  -0.253189  0  3.980215  0
C  C61  1  0.66384638  0.87032810  0.09530251  1  0.409748  0  0.120823  0.264951  0  4.075911  0
C  C62  1  0.55645482  0.89119307  0.05766666  1  0.01072  0  -0.101579  -0.253367  0  3.982911  0
C  C63  1  0.56098424  0.85983300  0.97318265  1  0.430121  0  0.041951  0.106353  0  3.994135  0
C  C64  1  0.30123017  0.42037539  0.30303041  1  1.565743  0  0.21516  0.592819  0  4.171659  0
C  C65  1  0.30160923  0.55704117  0.30064249  1  0.002811  0  -0.011822  -0.018473  0  3.953143  0
C  C66  1  0.27774891  0.62230105  0.37738976  1  -0.0363  0  -0.081453  -0.091586  0  3.966022  0
C  C67  1  0.27944205  0.74916892  0.37477155  1  -0.020683  0  -0.086797  -0.100992  0  3.982734  0
C  C68  1  0.30147688  0.81264575  0.29558471  1  -0.036339  0  -0.021503  -0.037573  0  3.983598  0
C  C69  1  0.32303853  0.74720471  0.21891929  1  -0.03775  0  -0.09069  -0.102254  0  3.996342  0
C  C70  1  0.32500425  0.62003628  0.22146979  1  -0.058056  0  -0.085764  -0.097096  0  3.9772  0
C  C71  1  0.30232869  0.94933971  0.29400659  1  1.53147  0  0.207245  0.580393  0  4.188538  0
C  C72  1  0.53820773  0.17320293  0.29932319  1  1.58569  0  0.213805  0.584833  0  4.177196  0
C  C73  1  0.67259991  0.18327158  0.30033170  1  -0.037971  0  -0.014582  -0.025959  0  3.964349  0
C  C74  1  0.75375768  0.20375971  0.22348873  1  -0.093347  0  -0.091557  -0.113455  0  4.004729  0
C  C75  1  0.87886418  0.21193363  0.22496209  1  -0.036479  0  -0.092591  -0.111923  0  4.002778  0
C  C76  1  0.92440071  0.19809902  0.30294769  1  -0.008894  0  -0.013337  -0.024182  0  3.958971  0
C  C77  1  0.84273786  0.17907999  0.37959773  1  -0.095087  0  -0.080369  -0.090269  0  3.97172  0
C  C78  1  0.71755573  0.17254657  0.37848298  1  -0.009079  0  -0.080719  -0.090759  0  3.961064  0
C  C79  1  0.06008740  0.19925311  0.30456918  1  1.575061  0  0.21366  0.588996  0  4.181982  0
C  C80  1  0.24175099  0.12767223  0.70209116  1  0.360956  0  0.119045  0.249515  0  4.076445  0
C  C81  1  0.35109173  0.16395897  0.65198426  1  0.029708  0  -0.095731  -0.233115  0  3.942922  0
C  C82  1  0.35406422  0.18346374  0.56447768  1  0.468223  0  0.056632  0.121669  0  3.932738  0
C  C83  1  0.14953116  0.14082934  0.57414599  1  0.472241  0  0.053927  0.113927  0  3.951134  0
C  C84  1  0.13814639  0.11901290  0.66176638  1  0.011015  0  -0.089366  -0.233884  0  3.965852  0
C  C85  1  0.23335481  0.23217993  0.03672766  1  0.367606  0  0.050922  0.112855  0  3.864217  0
C  C86  1  0.23398559  0.20098679  0.95230525  1  -0.021639  0  -0.104032  -0.268187  0  3.949336  0
C  C87  1  0.34091737  0.13862464  0.90166315  1  0.527407  0  0.152122  0.306534  0  4.078258  0
C  C88  1  0.44670641  0.12784708  0.94218101  1  0.423179  0  -0.082052  -0.317153  0  3.759088  0
C  C89  1  0.42188754  0.16219076  0.01857146  1  0.11719  0  0.169224  0.275695  0  3.976803  0
N  N90  1  0.66377717  0.80919676  0.92379143  1  -1.250359  0  -0.343572  -0.246184  0  3.532863  0
N  N91  1  0.74604036  0.82889905  0.47487323  1  -1.25351  0  -0.340501  -0.241834  0  3.544805  0
N  N92  1  0.77071093  0.89869099  0.21083268  1  -0.809406  0  -0.323298  -0.220062  0  3.583539  0
N  N93  1  0.66267978  0.91250770  0.17617926  1  -0.858003  0  -0.322212  -0.212979  0  3.578789  0
N  N94  1  0.33613968  0.20807766  0.07788182  1  -1.220955  0  -0.318108  -0.252045  0  3.458984  0
N  N95  1  0.25624535  0.17080384  0.52519558  1  -1.253059  0  -0.340156  -0.242194  0  3.544279  0
N  N96  1  0.23276737  0.09992485  0.78909384  1  -0.811217  0  -0.325798  -0.224234  0  3.556608  0
N  N97  1  0.34086546  0.09002194  0.82375907  1  -0.85618  0  -0.303709  -0.19109  0  3.597948  0
O  O98  1  0.87210008  0.77437093  0.76555897  1  -1.178956  0  -0.315818  -0.554066  0  2.328454  0
O  O99  1  0.90642560  0.83005566  0.62401494  1  -1.167675  0  -0.31393  -0.542938  0  2.322842  0
O  O100  1  0.49311130  0.86559723  0.77139034  1  -1.179413  0  -0.317396  -0.571414  0  2.301173  0
O  O101  1  0.53621129  0.80787484  0.63193119  1  -1.162996  0  -0.30051  -0.529056  0  2.359328  0
O  O102  1  0.65184076  0.63882609  0.76908421  1  -1.167799  0  -0.321681  -0.552678  0  2.329025  0
O  O103  1  0.74208146  0.63511575  0.62866131  1  -1.16399  0  -0.315486  -0.538764  0  2.322257  0
O  O104  1  0.70722296  0.99673625  0.77167895  1  -1.164243  0  -0.322903  -0.553227  0  2.329267  0
O  O105  1  0.69593760  0.00588069  0.62905413  1  -1.166214  0  -0.320424  -0.551846  0  2.326905  0
O  O106  1  0.12979992  0.22338863  0.23399381  1  -1.182954  0  -0.318031  -0.560512  0  2.327943  0
O  O107  1  0.09510901  0.17352165  0.37645502  1  -1.161048  0  -0.314052  -0.542069  0  2.328441  0
O  O108  1  0.50738901  0.14224886  0.22841437  1  -1.185375  0  -0.318833  -0.567455  0  2.302435  0
O  O109  1  0.46486815  0.19570520  0.36877122  1  -1.1687  0  -0.302474  -0.532491  0  2.356136  0
O  O110  1  0.34467329  0.36547876  0.23290359  1  -1.168544  0  -0.322635  -0.554865  0  2.343955  0
O  O111  1  0.25789723  0.36967751  0.37404810  1  -1.163304  0  -0.313653  -0.53626  0  2.314096  0
O  O112  1  0.30124555  0.00505075  0.22137475  1  -1.161874  0  -0.326117  -0.559308  0  2.319751  0
O  O113  1  0.30465653  0.99965096  0.36508783  1  -1.168414  0  -0.315992  -0.548288  0  2.334321  0
