# generated using pymatgen
data_ZnH13C17I2NO5
_symmetry_space_group_name_H-M   'P 1'
_cell_length_a   8.88111299
_cell_length_b   13.96883456
_cell_length_c   15.31792636
_cell_angle_alpha   91.88144183
_cell_angle_beta   91.07798119
_cell_angle_gamma   99.00168058
_symmetry_Int_Tables_number   1
_chemical_formula_structural   ZnH13C17I2NO5
_chemical_formula_sum   'Zn2 H26 C34 I4 N2 O10'
_cell_volume   1875.35463895
_cell_formula_units_Z   2
loop_
 _symmetry_equiv_pos_site_id
 _symmetry_equiv_pos_as_xyz
  1  'x, y, z'
loop_
 _atom_site_type_symbol
 _atom_site_label
 _atom_site_symmetry_multiplicity
 _atom_site_fract_x
 _atom_site_fract_y
 _atom_site_fract_z
 _atom_site_occupancy
 _atom_site_pbe_bader_charge
 _atom_site_pbe_bader_spin_density
 _atom_site_pbe_cm5_charge
 _atom_site_pbe_ddec_charge
 _atom_site_pbe_ddec_spin_density
 _atom_site_pbe_ddec_sum_bond_order
 _atom_site_pbe_magmom
Zn  Zn0  1  0.48465055  0.39722730  0.49364656  1  1.283543  0  0.665884  0.813331  0  2.435423  0
Zn  Zn1  1  0.50144609  0.59907721  0.50382831  1  1.290928  0  0.672386  0.819449  0  2.449088  0
H  H2  1  0.01806319  0.60913127  0.49108207  1  0.104671  0  0.106669  0.118247  0  1.008168  0
H  H3  1  0.38007460  0.23694148  0.61063588  1  0.144943  0  0.132788  0.110152  0  0.975615  0
H  H4  1  0.26429558  0.72221016  0.48350238  1  0.160708  0  0.125605  0.107991  0  1.014993  0
H  H5  1  0.59631722  0.25335580  0.37334179  1  0.141118  0  0.129562  0.114683  0  0.973243  0
H  H6  1  0.73493562  0.35191018  0.70106102  1  0.063243  0  0.091061  0.064917  0  1.001073  0
H  H7  1  0.78681254  0.34377269  0.81412692  1  0.023141  0  0.085886  0.043173  0  1.004671  0
H  H8  1  0.00269105  0.44299126  0.67907596  1  0.046529  0  0.090432  0.090423  0  0.988351  0
H  H9  1  0.04893710  0.42074366  0.78874448  1  0.028017  0  0.085199  0.075948  0  1.010073  0
H  H10  1  0.99481377  0.23957653  0.75408017  1  0.013539  0  0.081136  0.105287  0  1.00686  0
H  H11  1  0.13800197  0.29902779  0.68609758  1  0.045083  0  0.084604  0.116711  0  1.013794  0
H  H12  1  0.94988817  0.26292735  0.64389720  1  0.008948  0  0.080269  0.102852  0  1.014707  0
H  H13  1  0.96760874  0.38641183  0.50305094  1  0.115734  0  0.111072  0.130252  0  0.986207  0
H  H14  1  0.22417217  0.69536208  0.31509728  1  0.043192  0  0.096339  0.066346  0  0.983182  0
H  H15  1  0.23183213  0.56931474  0.31274235  1  0.065857  0  0.097453  0.067846  0  1.008633  0
H  H16  1  0.09222964  0.67869343  0.16852802  1  0.033448  0  0.083246  0.079703  0  0.993986  0
H  H17  1  0.10466945  0.55377618  0.16262241  1  0.01059  0  0.082334  0.079874  0  0.988744  0
H  H18  1  0.93797198  0.52596803  0.29433849  1  0.025358  0  0.081071  0.111077  0  1.007895  0
H  H19  1  0.84392556  0.58005374  0.21016939  1  0.040018  0  0.083238  0.117678  0  1.015668  0
H  H20  1  0.92525757  0.65137861  0.30218225  1  0.01649  0  0.07987  0.107297  0  1.006192  0
H  H21  1  0.27747615  0.51270436  0.77323195  1  0.094775  0  0.107834  0.114046  0  0.99581  0
H  H22  1  0.54350088  0.36354662  0.21877739  1  0.080158  0  0.101923  0.106044  0  0.99939  0
H  H23  1  0.27458483  0.51475492  0.93529544  1  0.070095  0  0.092561  0.100436  0  1.022432  0
H  H24  1  0.57174119  0.36895129  0.05725547  1  0.089651  0  0.097279  0.106096  0  1.004155  0
H  H25  1  0.73440688  0.95975823  0.51530509  1  0.094471  0  0.110933  0.124012  0  0.98847  0
H  H26  1  0.37667763  0.05644957  0.61373227  1  0.100931  0  0.118329  0.132686  0  0.970776  0
H  H27  1  0.73194703  0.77940601  0.52307155  1  0.145648  0  0.128326  0.10679  0  0.98891  0
C  C28  1  0.51129533  0.49396774  0.66886781  1  1.593267  0  0.221176  0.62416  0  4.161645  0
C  C29  1  0.55377670  0.10700170  0.42197879  1  -0.201647  0  -0.042633  -0.038945  0  3.889963  0
C  C30  1  0.49039437  0.94459189  0.49300980  1  0.024456  0  0.004461  0.073592  0  3.995504  0
C  C31  1  0.49037392  0.05051573  0.49033924  1  0.007252  0  0.002374  0.070355  0  4.001687  0
C  C32  1  0.78686933  0.52557504  0.49234162  1  1.534536  0  0.21493  0.635947  0  4.16968  0
C  C33  1  0.19823125  0.47283800  0.50309027  1  1.52743  0  0.211776  0.627254  0  4.179958  0
C  C34  1  0.95516234  0.53575789  0.49283813  1  0.034206  0  -0.075638  -0.163798  0  3.904469  0
C  C35  1  0.02949458  0.45994424  0.49965898  1  -0.069979  0  -0.078804  -0.174151  0  3.899383  0
C  C36  1  0.64845150  0.49830475  0.90651917  1  -0.249364  0  -0.054926  -0.092643  0  3.858633  0
C  C37  1  0.45164627  0.58540749  0.09522541  1  -0.179816  0  -0.055128  -0.090851  0  3.83701  0
C  C38  1  0.64852467  0.48992821  0.81455478  1  0.545019  0  0.076041  0.195748  0  4.053772  0
C  C39  1  0.47191601  0.49756658  0.32871174  1  1.540703  0  0.212838  0.602632  0  4.185149  0
C  C40  1  0.42777727  0.58090069  0.18594355  1  0.563582  0  0.085756  0.221812  0  4.019479  0
C  C41  1  0.51399201  0.49578419  0.76697780  1  -0.001658  0  -0.017399  -0.102079  0  3.953352  0
C  C42  1  0.46669826  0.50108770  0.23092146  1  0.015987  0  -0.026148  -0.136018  0  3.948926  0
C  C43  1  0.38069336  0.50648665  0.81079463  1  -0.025799  0  -0.090403  -0.087784  0  4.004999  0
C  C44  1  0.51649742  0.42519419  0.18322122  1  -0.059706  0  -0.088439  -0.071272  0  4.020753  0
C  C45  1  0.37993900  0.50921216  0.90138351  1  -0.025531  0  -0.099563  -0.135523  0  4.020942  0
C  C46  1  0.53382455  0.42882742  0.09359315  1  -0.040571  0  -0.105615  -0.155302  0  4.036479  0
C  C47  1  0.51389906  0.50684224  0.95115832  1  0.065504  0  -0.020405  0.048697  0  4.01623  0
C  C48  1  0.50345007  0.50950282  0.04780906  1  0.002786  0  -0.015808  0.06017  0  4.018922  0
C  C49  1  0.81170137  0.38562349  0.75476271  1  0.39451  0  -0.072941  0.037832  0  3.877405  0
C  C50  1  0.62780622  0.90933513  0.50778651  1  -0.041221  0  -0.077734  -0.165031  0  3.956168  0
C  C51  1  0.97798647  0.39127670  0.73153300  1  -0.005128  0  -0.171531  -0.129524  0  3.972684  0
C  C52  1  0.01702611  0.29255106  0.70247488  1  -0.080427  0  -0.245941  -0.34905  0  3.982384  0
C  C53  1  0.22881713  0.63192149  0.27143992  1  0.397258  0  -0.067362  0.044768  0  3.857023  0
C  C54  1  0.09191300  0.61449101  0.20829815  1  -0.007393  0  -0.176813  -0.144566  0  3.994099  0
C  C55  1  0.94179712  0.59174643  0.25636548  1  -0.067393  0  -0.245929  -0.342241  0  3.950391  0
C  C56  1  0.42648086  0.09775472  0.55933192  1  0.027264  0  -0.075509  -0.164724  0  3.955582  0
C  C57  1  0.62779598  0.81028791  0.51268243  1  0.523165  0  0.063863  0.107665  0  3.893168  0
C  C58  1  0.42719688  0.19709743  0.55814464  1  0.476107  0  0.063041  0.107541  0  3.904383  0
C  C59  1  0.36486513  0.77801461  0.48991930  1  0.536114  0  0.057258  0.072447  0  3.889887  0
C  C60  1  0.54954508  0.20664735  0.42512064  1  0.518985  0  0.058857  0.075266  0  3.897262  0
C  C61  1  0.35647132  0.87648198  0.48330360  1  -0.227477  0  -0.038757  -0.031729  0  3.873895  0
I  I62  1  0.86086996  0.50758841  0.97348791  1  0.102833  0  0.080282  -0.024224  0  1.496057  0
I  I63  1  0.41273255  0.71340309  0.03480784  1  0.103075  0  0.050135  -0.050213  0  1.441884  0
I  I64  1  0.14255295  0.91544093  0.45337145  1  0.139367  0  0.10288  -0.00203  0  1.356257  0
I  I65  1  0.64892760  0.04676503  0.31274119  1  0.160083  0  0.105777  0.010273  0  1.323244  0
N  N66  1  0.49786814  0.74641349  0.50423019  1  -1.233495  0  -0.306044  -0.162569  0  3.486231  0
N  N67  1  0.48734445  0.24982245  0.49175857  1  -1.238854  0  -0.309727  -0.17326  0  3.511268  0
O  O68  1  0.52548537  0.41487178  0.62868841  1  -1.173513  0  -0.313113  -0.557596  0  2.317729  0
O  O69  1  0.37132631  0.65570780  0.22649474  1  -1.082331  0  -0.202427  -0.227458  0  2.568224  0
O  O70  1  0.50948373  0.57778919  0.37094719  1  -1.160896  0  -0.31543  -0.539642  0  2.347617  0
O  O71  1  0.48968619  0.57236191  0.63452477  1  -1.158213  0  -0.316331  -0.539208  0  2.288742  0
O  O72  1  0.44462839  0.41402807  0.36178488  1  -1.165642  0  -0.326669  -0.5588  0  2.292048  0
O  O73  1  0.71129056  0.44141277  0.47611480  1  -1.168701  0  -0.319908  -0.553695  0  2.321335  0
O  O74  1  0.26997058  0.55787099  0.49214619  1  -1.176986  0  -0.315715  -0.558977  0  2.365398  0
O  O75  1  0.73241971  0.60315995  0.50948714  1  -1.155119  0  -0.317513  -0.544358  0  2.285297  0
O  O76  1  0.25819599  0.39711932  0.51592544  1  -1.149808  0  -0.319039  -0.543627  0  2.281681  0
O  O77  1  0.78101964  0.48383720  0.77115163  1  -1.067652  0  -0.209389  -0.238613  0  2.517886  0
