# generated using pymatgen
data_Pr2H37C36N7O22
_symmetry_space_group_name_H-M   'P 1'
_cell_length_a   13.86008850
_cell_length_b   13.86009835
_cell_length_c   16.43383016
_cell_angle_alpha   67.06908434
_cell_angle_beta   67.06933085
_cell_angle_gamma   75.15070962
_symmetry_Int_Tables_number   1
_chemical_formula_structural   Pr2H37C36N7O22
_chemical_formula_sum   'Pr4 H74 C72 N14 O44'
_cell_volume   2657.34652344
_cell_formula_units_Z   2
loop_
 _symmetry_equiv_pos_site_id
 _symmetry_equiv_pos_as_xyz
  1  'x, y, z'
loop_
 _atom_site_type_symbol
 _atom_site_label
 _atom_site_symmetry_multiplicity
 _atom_site_fract_x
 _atom_site_fract_y
 _atom_site_fract_z
 _atom_site_occupancy
 _atom_site_pbe_bader_charge
 _atom_site_pbe_bader_spin_density
 _atom_site_pbe_cm5_charge
 _atom_site_pbe_ddec_charge
 _atom_site_pbe_ddec_spin_density
 _atom_site_pbe_ddec_sum_bond_order
 _atom_site_pbe_magmom
Pr  Pr0  1  0.82793870  0.54899466  0.50347662  1  2.28315  0  1.505413  2.119075  0  2.166246  0
Pr  Pr1  1  0.45100783  0.17206573  0.99652193  1  2.283249  0  1.505397  2.119002  0  2.166446  0
Pr  Pr2  1  0.17205989  0.45100906  0.49652310  1  2.283277  0  1.505349  2.118982  0  2.166465  0
Pr  Pr3  1  0.54899390  0.82794075  0.00347585  1  2.283154  0  1.505381  2.118999  0  2.166461  0
H  H4  1  0.77521753  0.08718612  0.50454424  1  0.074399  0  0.113656  0.132722  0  0.965545  0
H  H5  1  0.91281188  0.22478446  0.99544939  1  0.074411  0  0.113627  0.132651  0  0.965448  0
H  H6  1  0.22478423  0.91281174  0.49545513  1  0.074413  0  0.113598  0.132639  0  0.965398  0
H  H7  1  0.08718593  0.77521466  0.00455086  1  0.074782  0  0.113648  0.132711  0  0.965419  0
H  H8  1  0.88385341  0.13099369  0.50825806  1  0.063842  0  0.111064  0.120608  0  0.992814  0
H  H9  1  0.86899981  0.11614571  0.99173809  1  0.063765  0  0.111086  0.120561  0  0.992699  0
H  H10  1  0.11614678  0.86900436  0.49174116  1  0.063859  0  0.111065  0.120592  0  0.992753  0
H  H11  1  0.13099484  0.88385457  0.00826281  1  0.063712  0  0.111117  0.120622  0  0.992695  0
H  H12  1  0.87596685  0.14215160  0.39866556  1  0.045808  0  0.101089  0.115869  0  1.009071  0
H  H13  1  0.85784675  0.12403593  0.10132809  1  0.045692  0  0.101117  0.115874  0  1.009102  0
H  H14  1  0.12403413  0.85784636  0.60133343  1  0.045938  0  0.101088  0.115865  0  1.009095  0
H  H15  1  0.14214948  0.87596573  0.89867185  1  0.045532  0  0.101121  0.115884  0  1.009049  0
H  H16  1  0.63099515  0.22417087  0.45864825  1  0.084667  0  0.104418  0.123855  0  1.022738  0
H  H17  1  0.77583071  0.36900493  0.04135011  1  0.084645  0  0.104401  0.123819  0  1.022753  0
H  H18  1  0.36900424  0.77582649  0.54135205  1  0.084729  0  0.104403  0.123837  0  1.022797  0
H  H19  1  0.22417182  0.63099518  0.95865254  1  0.084692  0  0.104414  0.123844  0  1.022715  0
H  H20  1  0.72062553  0.28643659  0.34773381  1  0.099665  0  0.102447  0.120141  0  0.999738  0
H  H21  1  0.71356827  0.27937194  0.15226560  1  0.099832  0  0.102409  0.120088  0  0.999788  0
H  H22  1  0.27937386  0.71356156  0.65226685  1  0.099922  0  0.102463  0.120168  0  0.999744  0
H  H23  1  0.28643110  0.72062933  0.84773709  1  0.099459  0  0.10242  0.120126  0  0.9998  0
H  H24  1  0.64797998  0.35979596  0.42630052  1  0.111096  0  0.11256  0.131334  0  1.023967  0
H  H25  1  0.64020391  0.35202403  0.07370117  1  0.111192  0  0.112571  0.131371  0  1.023813  0
H  H26  1  0.35202098  0.64020278  0.57369944  1  0.1111  0  0.112552  0.131328  0  1.023884  0
H  H27  1  0.35979781  0.64798244  0.92629966  1  0.111145  0  0.112573  0.131369  0  1.023845  0
H  H28  1  0.86469840  0.28567064  0.51597180  1  0.088278  0  0.12541  0.043323  0  1.0205  0
H  H29  1  0.71431848  0.13530898  0.98402704  1  0.088453  0  0.125391  0.04332  0  1.020537  0
H  H30  1  0.13530100  0.71432358  0.48403075  1  0.088396  0  0.125425  0.043377  0  1.020482  0
H  H31  1  0.28567456  0.86470011  0.01597273  1  0.088279  0  0.125405  0.043338  0  1.020481  0
H  H32  1  0.75234497  0.44266746  0.83222297  1  0.045515  0  0.102536  0.116369  0  0.984758  0
H  H33  1  0.55733481  0.24765041  0.66777562  1  0.045559  0  0.102491  0.116286  0  0.984758  0
H  H34  1  0.24765443  0.55732990  0.16777795  1  0.045408  0  0.1025  0.116299  0  0.984859  0
H  H35  1  0.44266695  0.75234746  0.33222375  1  0.045557  0  0.102483  0.116275  0  0.984845  0
H  H36  1  0.74794725  0.40792853  0.73975335  1  0.137932  0  0.113496  0.132162  0  1.058165  0
H  H37  1  0.59207378  0.25205098  0.76024373  1  0.137949  0  0.113484  0.132142  0  1.058121  0
H  H38  1  0.25205294  0.59207110  0.26024230  1  0.138008  0  0.113464  0.132152  0  1.058181  0
H  H39  1  0.40792639  0.74794784  0.23975949  1  0.137993  0  0.113456  0.132119  0  1.05821  0
H  H40  1  0.65585594  0.36202836  0.85572454  1  0.077643  0  0.108461  0.125478  0  1.030658  0
H  H41  1  0.63797224  0.34414034  0.64427245  1  0.077449  0  0.108474  0.125439  0  1.030617  0
H  H42  1  0.34414189  0.63796842  0.14427160  1  0.077722  0  0.108421  0.125412  0  1.030322  0
H  H43  1  0.36202951  0.65585908  0.35572946  1  0.077692  0  0.108424  0.125428  0  1.030366  0
H  H44  1  0.61320126  0.58202408  0.88528529  1  0.072804  0  0.107812  0.130535  0  1.010509  0
H  H45  1  0.41797682  0.38679553  0.61471096  1  0.072721  0  0.107771  0.130474  0  1.010539  0
H  H46  1  0.38679973  0.41797231  0.11471299  1  0.072814  0  0.107803  0.130498  0  1.010491  0
H  H47  1  0.58202494  0.61320311  0.38528998  1  0.0727  0  0.107764  0.130465  0  1.010509  0
H  H48  1  0.51123071  0.50535530  0.91305333  1  0.074513  0  0.108413  0.123773  0  0.991632  0
H  H49  1  0.49464449  0.48876833  0.58694494  1  0.074526  0  0.10841  0.123789  0  0.991627  0
H  H50  1  0.48877106  0.49463942  0.08694828  1  0.074616  0  0.108464  0.123859  0  0.991599  0
H  H51  1  0.50535964  0.51123082  0.41305324  1  0.074583  0  0.108433  0.123799  0  0.991647  0
H  H52  1  0.51505727  0.63727263  0.83067616  1  0.090671  0  0.113629  0.130302  0  1.011404  0
H  H53  1  0.36272790  0.48493861  0.66932267  1  0.090614  0  0.113644  0.130338  0  1.011405  0
H  H54  1  0.48494134  0.36272326  0.16932610  1  0.090621  0  0.113605  0.130264  0  1.011474  0
H  H55  1  0.63727623  0.51506053  0.33067551  1  0.090558  0  0.113629  0.130301  0  1.011402  0
H  H56  1  0.55537247  0.63541162  0.69058256  1  0.111471  0  0.128269  0.058752  0  0.997822  0
H  H57  1  0.36458942  0.44462145  0.80941439  1  0.111668  0  0.128259  0.058719  0  0.997931  0
H  H58  1  0.44462139  0.36458876  0.30941857  1  0.11154  0  0.128278  0.058757  0  0.9979  0
H  H59  1  0.63540996  0.55538139  0.19058474  1  0.111636  0  0.12826  0.058704  0  0.997972  0
H  H60  1  0.90022220  0.46217287  0.29031359  1  0.157924  0  0.125576  0.135051  0  1.005609  0
H  H61  1  0.53783017  0.09978220  0.20968294  1  0.158108  0  0.125559  0.135037  0  1.005618  0
H  H62  1  0.09977798  0.53782675  0.70968329  1  0.157936  0  0.125575  0.135067  0  1.005581  0
H  H63  1  0.46217156  0.90022349  0.79031632  1  0.157931  0  0.125578  0.135059  0  1.005605  0
H  H64  1  0.07825958  0.35016869  0.05530290  1  0.162752  0  0.119886  0.13204  0  0.995923  0
H  H65  1  0.64983357  0.92174057  0.44469523  1  0.162717  0  0.119893  0.132071  0  0.995857  0
H  H66  1  0.92174454  0.64983202  0.94469538  1  0.162754  0  0.119883  0.132062  0  0.995821  0
H  H67  1  0.35016740  0.07825817  0.55530412  1  0.162679  0  0.119871  0.132052  0  0.995861  0
H  H68  1  0.22651418  0.33066677  0.24847172  1  0.129959  0  0.117881  0.128705  0  0.993615  0
H  H69  1  0.66933327  0.77348601  0.25152621  1  0.130043  0  0.117883  0.128703  0  0.993596  0
H  H70  1  0.77348284  0.66933322  0.75153094  1  0.12977  0  0.117901  0.128722  0  0.993649  0
H  H71  1  0.33066454  0.22651704  0.74846972  1  0.129841  0  0.117914  0.128766  0  0.993627  0
H  H72  1  0.23811545  0.76188433  0.24999991  1  0.121761  0  0.116735  0.121759  0  1.024941  0
H  H73  1  0.76188551  0.23811598  0.74999892  1  0.121765  0  0.11673  0.121734  0  1.024958  0
H  H74  1  0.90705415  0.87065095  0.34925135  1  0.175515  0  0.12435  0.143186  0  0.995319  0
H  H75  1  0.12934987  0.09294572  0.15074789  1  0.175496  0  0.124353  0.143207  0  0.995297  0
H  H76  1  0.09294603  0.12934710  0.65075031  1  0.175278  0  0.124349  0.143173  0  0.995351  0
H  H77  1  0.87065030  0.90705389  0.84925447  1  0.175714  0  0.124349  0.143188  0  0.99525  0
C  C78  1  0.83004620  0.14705429  0.46886551  1  0.280017  0  -0.125985  -0.271217  0  3.917573  0
C  C79  1  0.85293917  0.16995672  0.03113202  1  0.280322  0  -0.125987  -0.271107  0  3.917312  0
C  C80  1  0.16995478  0.85294053  0.53113633  1  0.279944  0  -0.125884  -0.27107  0  3.917261  0
C  C81  1  0.14705784  0.83004484  0.96886952  1  0.280088  0  -0.126029  -0.271265  0  3.917365  0
C  C82  1  0.68753143  0.28228339  0.42147188  1  0.197393  0  -0.137095  -0.278643  0  3.882047  0
C  C83  1  0.71772027  0.31246677  0.07852946  1  0.197161  0  -0.137065  -0.278618  0  3.881927  0
C  C84  1  0.31246480  0.71771670  0.57852979  1  0.197115  0  -0.137078  -0.278643  0  3.882018  0
C  C85  1  0.28228068  0.68753588  0.92147166  1  0.197651  0  -0.137097  -0.278725  0  3.881878  0
C  C86  1  0.79866067  0.31882558  0.48766401  1  1.376961  0  0.181045  0.309463  0  4.124709  0
C  C87  1  0.68116855  0.20134859  0.01233452  1  1.376967  0  0.18104  0.309477  0  4.124813  0
C  C88  1  0.20134029  0.68117472  0.51233726  1  1.377049  0  0.181039  0.309377  0  4.124687  0
C  C89  1  0.31882685  0.79866100  0.98766431  1  1.376979  0  0.181042  0.309338  0  4.124801  0
C  C90  1  0.70031752  0.42736048  0.80349002  1  0.225052  0  -0.136077  -0.280393  0  3.859591  0
C  C91  1  0.57263965  0.29968012  0.69650846  1  0.225092  0  -0.135977  -0.280165  0  3.859452  0
C  C92  1  0.29968032  0.57263159  0.19651009  1  0.225049  0  -0.135922  -0.280229  0  3.859437  0
C  C93  1  0.42736524  0.70032206  0.30349152  1  0.224834  0  -0.135896  -0.280148  0  3.859441  0
C  C94  1  0.56257901  0.56366770  0.85726177  1  0.252369  0  -0.128636  -0.289909  0  3.895208  0
C  C95  1  0.43633444  0.43741668  0.64273682  1  0.252495  0  -0.128607  -0.289929  0  3.89525  0
C  C96  1  0.43741959  0.43632976  0.14273999  1  0.252355  0  -0.128644  -0.289951  0  3.895231  0
C  C97  1  0.56366652  0.56258284  0.35726348  1  0.252505  0  -0.128612  -0.289894  0  3.895274  0
C  C98  1  0.61323981  0.56378144  0.69816325  1  1.382432  0  0.191388  0.333438  0  4.069183  0
C  C99  1  0.43622156  0.38675587  0.80183333  1  1.382059  0  0.191441  0.333577  0  4.069372  0
C  C100  1  0.38675327  0.43621747  0.30183679  1  1.382172  0  0.191479  0.333525  0  4.069347  0
C  C101  1  0.56378097  0.61324660  0.19816429  1  1.381902  0  0.191386  0.333511  0  4.069426  0
C  C102  1  0.06098344  0.42283061  0.36052513  1  1.619669  0  0.23238  0.638701  0  4.186661  0
C  C103  1  0.57717074  0.93901432  0.13947270  1  1.619659  0  0.232373  0.638755  0  4.186574  0
C  C104  1  0.93901120  0.57717437  0.63947241  1  1.619685  0  0.232406  0.638755  0  4.186557  0
C  C105  1  0.42282864  0.06098774  0.86052730  1  1.619684  0  0.232427  0.638785  0  4.186505  0
C  C106  1  0.06373832  0.39993157  0.27733721  1  -0.021656  0  -0.011954  -0.032215  0  3.955979  0
C  C107  1  0.60006870  0.93626425  0.22266066  1  -0.023447  0  -0.011977  -0.032369  0  3.956056  0
C  C108  1  0.93625950  0.60006598  0.72266477  1  -0.021834  0  -0.01198  -0.032319  0  3.956042  0
C  C109  1  0.39993305  0.06374067  0.77733458  1  -0.021804  0  -0.01196  -0.032248  0  3.956065  0
C  C110  1  0.97368615  0.42640903  0.25054038  1  -0.001425  0  -0.064407  -0.125082  0  3.91075  0
C  C111  1  0.57359493  0.02631524  0.24945702  1  -4.5e-05  0  -0.064387  -0.125019  0  3.910868  0
C  C112  1  0.02631165  0.57359244  0.74945971  1  -0.001216  0  -0.064397  -0.125075  0  3.910707  0
C  C113  1  0.42640839  0.97368791  0.75054133  1  -0.001216  0  -0.064407  -0.125077  0  3.910757  0
C  C114  1  0.98083555  0.40729247  0.17099284  1  0.16257  0  0.077691  0.05955  0  3.953444  0
C  C115  1  0.59271125  0.01916560  0.32900537  1  0.162574  0  0.077708  0.059614  0  3.953597  0
C  C116  1  0.01916462  0.59270871  0.82900596  1  0.162564  0  0.077691  0.059599  0  3.953548  0
C  C117  1  0.40729128  0.98083765  0.67099259  1  0.162476  0  0.077709  0.05959  0  3.953529  0
C  C118  1  0.07414374  0.36375550  0.11742794  1  0.025492  0  -0.059936  -0.101693  0  3.913733  0
C  C119  1  0.63624810  0.92585560  0.38256816  1  0.025671  0  -0.060008  -0.101799  0  3.913845  0
C  C120  1  0.92585801  0.63624550  0.88256980  1  0.025569  0  -0.059998  -0.101748  0  3.91378  0
C  C121  1  0.36375287  0.07414393  0.61742910  1  0.02571  0  -0.05996  -0.101753  0  3.913702  0
C  C122  1  0.16306833  0.33566062  0.14577857  1  -0.022298  0  -0.007362  -0.013774  0  3.944764  0
C  C123  1  0.66434379  0.83693098  0.35421992  1  -0.022344  0  -0.007313  -0.013768  0  3.9447  0
C  C124  1  0.83693106  0.66433909  0.85422219  1  -0.022516  0  -0.007331  -0.013851  0  3.944792  0
C  C125  1  0.33565638  0.16307177  0.64577777  1  -0.022289  0  -0.007289  -0.01373  0  3.944609  0
C  C126  1  0.15748049  0.35330562  0.22572266  1  -0.013125  0  -0.05654  -0.077915  0  3.879118  0
C  C127  1  0.64669701  0.84252246  0.27427457  1  -0.012988  0  -0.05655  -0.077887  0  3.879073  0
C  C128  1  0.84251811  0.64669340  0.77427798  1  -0.012805  0  -0.056584  -0.077907  0  3.879327  0
C  C129  1  0.35330394  0.15748255  0.72572273  1  -0.013021  0  -0.056632  -0.07802  0  3.879227  0
C  C130  1  0.26346209  0.28656642  0.08947174  1  1.579239  0  0.185118  0.559844  0  4.268382  0
C  C131  1  0.71343685  0.73653735  0.41052551  1  1.578966  0  0.185212  0.560133  0  4.268189  0
C  C132  1  0.73653887  0.71343388  0.91052953  1  1.579323  0  0.185214  0.560043  0  4.268399  0
C  C133  1  0.28656333  0.26346149  0.58947162  1  1.579271  0  0.185178  0.560004  0  4.268332  0
C  C134  1  0.04887550  0.69357411  0.37060844  1  1.623303  0  0.230811  0.631182  0  4.19201  0
C  C135  1  0.30642665  0.95112597  0.12938909  1  1.623342  0  0.230764  0.630937  0  4.191859  0
C  C136  1  0.95112784  0.30642121  0.62939429  1  1.623202  0  0.230742  0.631045  0  4.191823  0
C  C137  1  0.69357747  0.04887317  0.87061153  1  1.62305  0  0.230727  0.631011  0  4.191992  0
C  C138  1  0.17371609  0.82628472  0.24999947  1  -0.034668  0  -0.062008  -0.084449  0  3.879869  0
C  C139  1  0.82628566  0.17371705  0.75000046  1  -0.034566  0  -0.062006  -0.084369  0  3.879577  0
C  C140  1  0.07083912  0.80467319  0.30716894  1  0.014725  0  -0.010214  -0.025385  0  3.939092  0
C  C141  1  0.19532222  0.92916582  0.19283027  1  0.01468  0  -0.010221  -0.025326  0  3.939003  0
C  C142  1  0.92916817  0.19532008  0.69283378  1  0.014695  0  -0.010223  -0.025348  0  3.938972  0
C  C143  1  0.80467321  0.07083514  0.80717320  1  0.014688  0  -0.010306  -0.0256  0  3.938991  0
C  C144  1  0.98762353  0.88688504  0.30626062  1  -0.049762  0  -0.064706  -0.122324  0  3.902724  0
C  C145  1  0.11311492  0.01237778  0.19373733  1  -0.050088  0  -0.06468  -0.122341  0  3.902595  0
C  C146  1  0.01237823  0.11311125  0.69374170  1  -0.050103  0  -0.064648  -0.122263  0  3.902654  0
C  C147  1  0.88688919  0.98762215  0.80626242  1  -0.050064  0  -0.064632  -0.122227  0  3.902431  0
C  C148  1  0.01074921  0.98924689  0.25000132  1  0.156617  0  0.068983  0.048024  0  3.971032  0
C  C149  1  0.98924861  0.01074830  0.75000386  1  0.156914  0  0.06904  0.048084  0  3.971152  0
N  N150  1  0.77151808  0.25162782  0.46226231  1  -1.184289  0  -0.276131  0.035335  0  3.712387  0
N  N151  1  0.74836974  0.22848321  0.03773778  1  -1.184296  0  -0.276087  0.035428  0  3.712449  0
N  N152  1  0.22848132  0.74836875  0.53773947  1  -1.184501  0  -0.276119  0.035396  0  3.712497  0
N  N153  1  0.25162883  0.77152208  0.96226325  1  -1.184319  0  -0.276083  0.035577  0  3.712397  0
N  N154  1  0.62653503  0.52147905  0.78162565  1  -1.202582  0  -0.270002  0.048417  0  3.721068  0
N  N155  1  0.47852295  0.37345916  0.71837427  1  -1.202411  0  -0.269967  0.048435  0  3.721295  0
N  N156  1  0.37346199  0.47851938  0.21837570  1  -1.20254  0  -0.270034  0.048493  0  3.721214  0
N  N157  1  0.52147880  0.62654026  0.28162581  1  -1.202389  0  -0.269976  0.048456  0  3.721284  0
N  N158  1  0.88667285  0.43289189  0.14267593  1  0.370893  0  0.059541  0.526176  0  4.180955  0
N  N159  1  0.56711079  0.11332784  0.35731953  1  0.371115  0  0.059513  0.526068  0  4.181111  0
N  N160  1  0.11332891  0.56710832  0.85732085  1  0.370866  0  0.059453  0.525999  0  4.180908  0
N  N161  1  0.43289096  0.88667237  0.64268091  1  0.37114  0  0.059458  0.525977  0  4.181198  0
N  N162  1  0.92366976  0.07633225  0.24999797  1  0.352314  0  0.04985  0.497744  0  4.23105  0
N  N163  1  0.07633041  0.92366736  0.75000379  1  0.352146  0  0.04989  0.497862  0  4.231236  0
O  O164  1  0.75453770  0.41120169  0.48176402  1  -1.182407  0  -0.348457  -0.533955  0  2.313589  0
O  O165  1  0.58878990  0.24547063  0.01823723  1  -1.182676  0  -0.348482  -0.534024  0  2.313592  0
O  O166  1  0.24546172  0.58878861  0.51824041  1  -1.182598  0  -0.348512  -0.534027  0  2.313522  0
O  O167  1  0.41121103  0.75453908  0.98175976  1  -1.182604  0  -0.348491  -0.533995  0  2.313628  0
O  O168  1  0.79964819  0.45148640  0.19988763  1  -0.482383  0  -0.130218  -0.352724  0  1.946631  0
O  O169  1  0.54851747  0.20035343  0.30010999  1  -0.482663  0  -0.130194  -0.35269  0  1.94676  0
O  O170  1  0.20035357  0.54851382  0.80010915  1  -0.482429  0  -0.13016  -0.352636  0  1.946517  0
O  O171  1  0.45148665  0.79964807  0.69988864  1  -0.482724  0  -0.130154  -0.352627  0  1.946784  0
O  O172  1  0.89863458  0.43387730  0.06349755  1  -0.468271  0  -0.120863  -0.336413  0  1.970345  0
O  O173  1  0.56612301  0.10136411  0.43650179  1  -0.46821  0  -0.120831  -0.336336  0  1.970238  0
O  O174  1  0.10136559  0.56612467  0.93649978  1  -0.46817  0  -0.120787  -0.336289  0  1.970312  0
O  O175  1  0.43387638  0.89863638  0.56349872  1  -0.468194  0  -0.120849  -0.336327  0  1.970247  0
O  O176  1  0.66089751  0.52706900  0.63168738  1  -1.205976  0  -0.391536  -0.581067  0  2.376228  0
O  O177  1  0.47293312  0.33909751  0.86831289  1  -1.205653  0  -0.391648  -0.581231  0  2.376239  0
O  O178  1  0.33909793  0.47293118  0.36831452  1  -1.205695  0  -0.391647  -0.581197  0  2.376187  0
O  O179  1  0.52706704  0.66090446  0.13168749  1  -1.205673  0  -0.391572  -0.581129  0  2.376225  0
O  O180  1  0.97372945  0.46284883  0.40671840  1  -1.240797  0  -0.407712  -0.71378  0  2.376549  0
O  O181  1  0.53714974  0.02627069  0.09328233  1  -1.240833  0  -0.407726  -0.713801  0  2.376489  0
O  O182  1  0.02626521  0.53715067  0.59328215  1  -1.240691  0  -0.407685  -0.713772  0  2.376613  0
O  O183  1  0.46285198  0.97373658  0.90671642  1  -1.240689  0  -0.407694  -0.713787  0  2.376711  0
O  O184  1  0.14628994  0.40132013  0.37887030  1  -1.182294  0  -0.380503  -0.632336  0  2.253605  0
O  O185  1  0.59867944  0.85371234  0.12112805  1  -1.182308  0  -0.380499  -0.632331  0  2.25366  0
O  O186  1  0.85370709  0.59867752  0.62113008  1  -1.18242  0  -0.380544  -0.632352  0  2.253499  0
O  O187  1  0.40132071  0.14629354  0.87887106  1  -1.182385  0  -0.380558  -0.63238  0  2.253413  0
O  O188  1  0.34363401  0.25798962  0.11809762  1  -1.190888  0  -0.394608  -0.648951  0  2.157832  0
O  O189  1  0.74201220  0.65636718  0.38189912  1  -1.190728  0  -0.394657  -0.649115  0  2.157787  0
O  O190  1  0.65636617  0.74200764  0.88190490  1  -1.190897  0  -0.39466  -0.649066  0  2.157975  0
O  O191  1  0.25798799  0.34363323  0.61809750  1  -1.190972  0  -0.394619  -0.649034  0  2.157903  0
O  O192  1  0.26523416  0.27471149  0.01606293  1  -1.169267  0  -0.372525  -0.608954  0  2.155486  0
O  O193  1  0.72529214  0.73476399  0.48393526  1  -1.169216  0  -0.372586  -0.609083  0  2.155444  0
O  O194  1  0.73476601  0.72528890  0.98393917  1  -1.169342  0  -0.372563  -0.609008  0  2.155475  0
O  O195  1  0.27470726  0.26523573  0.51606185  1  -1.169332  0  -0.37258  -0.609017  0  2.155375  0
O  O196  1  0.95313130  0.67762951  0.40679183  1  -1.194682  0  -0.387944  -0.652274  0  2.312144  0
O  O197  1  0.32236834  0.04687151  0.09320298  1  -1.194824  0  -0.387886  -0.652174  0  2.312128  0
O  O198  1  0.04687756  0.32236828  0.59320646  1  -1.194849  0  -0.387986  -0.652275  0  2.311912  0
O  O199  1  0.67763343  0.95312557  0.90679543  1  -1.194709  0  -0.387932  -0.652222  0  2.31207  0
O  O200  1  0.12804832  0.62663664  0.38333022  1  -1.208025  0  -0.372907  -0.669135  0  2.326259  0
O  O201  1  0.37336746  0.87194867  0.11666916  1  -1.208043  0  -0.372921  -0.669027  0  2.326042  0
O  O202  1  0.87195263  0.37336366  0.61667044  1  -1.207885  0  -0.372851  -0.66906  0  2.326171  0
O  O203  1  0.62663510  0.12804988  0.88332913  1  -1.20776  0  -0.372835  -0.668964  0  2.326014  0
O  O204  1  0.83212126  0.05428757  0.29631171  1  -0.475493  0  -0.134826  -0.348782  0  1.958973  0
O  O205  1  0.94571004  0.16788198  0.20368697  1  -0.475589  0  -0.134768  -0.348723  0  1.959007  0
O  O206  1  0.16787893  0.94570655  0.70369305  1  -0.475394  0  -0.134844  -0.34884  0  1.959078  0
O  O207  1  0.05428383  0.83211683  0.79631345  1  -0.475495  0  -0.134793  -0.348791  0  1.959065  0
