# generated using pymatgen
data_ZnH12C14N5O3
_symmetry_space_group_name_H-M   'P 1'
_cell_length_a   7.63142527
_cell_length_b   12.57971694
_cell_length_c   14.14410036
_cell_angle_alpha   94.04841861
_cell_angle_beta   90.00019058
_cell_angle_gamma   90.00002268
_symmetry_Int_Tables_number   1
_chemical_formula_structural   ZnH12C14N5O3
_chemical_formula_sum   'Zn4 H48 C56 N20 O12'
_cell_volume   1354.46199605
_cell_formula_units_Z   4
loop_
 _symmetry_equiv_pos_site_id
 _symmetry_equiv_pos_as_xyz
  1  'x, y, z'
loop_
 _atom_site_type_symbol
 _atom_site_label
 _atom_site_symmetry_multiplicity
 _atom_site_fract_x
 _atom_site_fract_y
 _atom_site_fract_z
 _atom_site_occupancy
 _atom_site_hle17_bader_spin_density
 _atom_site_hle17_ddec_charge
 _atom_site_hle17_ddec_spin_density
 _atom_site_hle17_ddec_sum_bond_order
 _atom_site_hle17_magmom
 _atom_site_hse06_10hf_bader_spin_density
 _atom_site_hse06_10hf_ddec_charge
 _atom_site_hse06_10hf_ddec_spin_density
 _atom_site_hse06_10hf_ddec_sum_bond_order
 _atom_site_hse06_10hf_magmom
 _atom_site_hse06_bader_spin_density
 _atom_site_hse06_ddec_charge
 _atom_site_hse06_ddec_spin_density
 _atom_site_hse06_ddec_sum_bond_order
 _atom_site_hse06_magmom
 _atom_site_pbe_bader_spin_density
 _atom_site_pbe_cm5_charge
 _atom_site_pbe_ddec_charge
 _atom_site_pbe_ddec_spin_density
 _atom_site_pbe_ddec_sum_bond_order
 _atom_site_pbe_magmom
Zn  Zn0  1  0.95902438  0.19735150  0.96912715  1  0  1.035332  0  1.850193  0  0  0.837512  0  2.333352  0  0  0.882242  0  2.279079  0  0  0.712719  0.80641  0  2.370693  0
Zn  Zn1  1  0.45902868  0.30264676  0.53087278  1  0  1.035474  0  1.850093  0  0  0.837618  0  2.333258  0  0  0.88234  0  2.279011  0  0  0.712744  0.806509  0  2.370573  0
Zn  Zn2  1  0.04096783  0.80264891  0.03087348  1  0  1.035418  0  1.850191  0  0  0.837585  0  2.333393  0  0  0.882314  0  2.279126  0  0  0.712693  0.806397  0  2.37072  0
Zn  Zn3  1  0.54096615  0.69735206  0.46912916  1  0  1.035396  0  1.850111  0  0  0.837525  0  2.333305  0  0  0.882257  0  2.279048  0  0  0.71272  0.80642  0  2.370612  0
H  H4  1  0.37368923  0.07972102  0.05264047  1  0  0.09741  0  0.96666  0  0  0.109833  0  1.032426  0  0  0.111843  0  1.031807  0  0  0.096109  0.108078  0  1.033096  0
H  H5  1  0.87368627  0.42027932  0.44735912  1  0  0.097378  0  0.966725  0  0  0.109835  0  1.032483  0  0  0.11186  0  1.031852  0  0  0.096294  0.108308  0  1.033085  0
H  H6  1  0.62630823  0.92027620  0.94736561  1  0  0.097354  0  0.966737  0  0  0.10979  0  1.03248  0  0  0.1118  0  1.031863  0  0  0.096113  0.108074  0  1.033112  0
H  H7  1  0.12631381  0.57971711  0.55263701  1  0  0.097378  0  0.966681  0  0  0.109796  0  1.032453  0  0  0.111808  0  1.03184  0  0  0.096282  0.108286  0  1.03303  0
H  H8  1  0.53053818  0.00024101  0.10774909  1  0  0.104476  0  0.931695  0  0  0.119529  0  0.991875  0  0  0.121605  0  0.991548  0  0  0.100793  0.1177  0  0.992209  0
H  H9  1  0.03054219  0.49975761  0.39225330  1  0  0.104461  0  0.931652  0  0  0.119511  0  0.991874  0  0  0.121586  0  0.991548  0  0  0.10111  0.118033  0  0.992155  0
H  H10  1  0.46945796  0.99975701  0.89225634  1  0  0.104488  0  0.931644  0  0  0.119508  0  0.991856  0  0  0.121584  0  0.991525  0  0  0.100905  0.117793  0  0.992226  0
H  H11  1  0.96945920  0.50024042  0.60774505  1  0  0.104526  0  0.931649  0  0  0.119574  0  0.991827  0  0  0.121651  0  0.991497  0  0  0.101112  0.118086  0  0.992119  0
H  H12  1  0.85712065  0.87330908  0.85605644  1  0  0.082028  0  0.947899  0  0  0.088454  0  1.016852  0  0  0.091713  0  1.013072  0  0  0.11812  0.086036  0  1.019661  0
H  H13  1  0.35712288  0.62669468  0.64394161  1  0  0.082037  0  0.947911  0  0  0.08845  0  1.016904  0  0  0.091718  0  1.013115  0  0  0.118104  0.085994  0  1.019749  0
H  H14  1  0.14286894  0.12669134  0.14394348  1  0  0.082056  0  0.947903  0  0  0.088467  0  1.016883  0  0  0.09173  0  1.013098  0  0  0.11815  0.086052  0  1.019665  0
H  H15  1  0.64286802  0.37330334  0.35605957  1  0  0.082025  0  0.947966  0  0  0.088431  0  1.016953  0  0  0.091699  0  1.013165  0  0  0.118122  0.085973  0  1.019816  0
H  H16  1  0.69578600  0.78704205  0.72088127  1  0  0.112661  0  0.962588  0  0  0.117571  0  1.029068  0  0  0.120548  0  1.028918  0  0  0.109928  0.115472  0  1.029303  0
H  H17  1  0.19579435  0.71295926  0.77911916  1  0  0.112653  0  0.962616  0  0  0.117619  0  1.02904  0  0  0.120596  0  1.028889  0  0  0.109937  0.115521  0  1.029255  0
H  H18  1  0.30420884  0.21295836  0.27911794  1  0  0.112625  0  0.962635  0  0  0.117587  0  1.029056  0  0  0.120564  0  1.028906  0  0  0.109918  0.115481  0  1.029276  0
H  H19  1  0.80420966  0.28704195  0.22088576  1  0  0.112627  0  0.962613  0  0  0.117594  0  1.029041  0  0  0.120572  0  1.02889  0  0  0.109949  0.115511  0  1.029242  0
H  H20  1  0.66893113  0.58657959  0.70552291  1  0  0.102022  0  0.952185  0  0  0.112065  0  1.015023  0  0  0.114988  0  1.012923  0  0  0.110203  0.10987  0  1.016695  0
H  H21  1  0.16892924  0.91342091  0.79447883  1  0  0.102129  0  0.952092  0  0  0.112117  0  1.014989  0  0  0.115041  0  1.012883  0  0  0.11027  0.109942  0  1.016635  0
H  H22  1  0.33107157  0.41342083  0.29447630  1  0  0.101997  0  0.952217  0  0  0.112031  0  1.015059  0  0  0.114954  0  1.012958  0  0  0.110179  0.109822  0  1.016735  0
H  H23  1  0.83107739  0.08658030  0.20552397  1  0  0.102086  0  0.952106  0  0  0.112091  0  1.014978  0  0  0.115011  0  1.012885  0  0  0.110265  0.109928  0  1.016614  0
H  H24  1  0.97779033  0.58188902  0.96147563  1  0  0.081639  0  1.012094  0  0  0.077785  0  1.098641  0  0  0.082154  0  1.094077  0  0  0.11688  0.074709  0  1.10174  0
H  H25  1  0.47778296  0.91811956  0.53852649  1  0  0.081718  0  1.012011  0  0  0.077805  0  1.098629  0  0  0.082149  0  1.094061  0  0  0.11685  0.074737  0  1.101727  0
H  H26  1  0.02220975  0.41811538  0.03852525  1  0  0.081694  0  1.011992  0  0  0.07779  0  1.098587  0  0  0.082124  0  1.094043  0  0  0.116846  0.074697  0  1.101691  0
H  H27  1  0.52221842  0.08187766  0.46147535  1  0  0.081672  0  1.012031  0  0  0.077756  0  1.098653  0  0  0.082107  0  1.094064  0  0  0.116815  0.074678  0  1.10176  0
H  H28  1  0.72555773  0.09185886  0.83866387  1  0  0.062033  0  0.968817  0  0  0.069547  0  1.040759  0  0  0.07198  0  1.038208  0  0  0.105044  0.06788  0  1.042556  0
H  H29  1  0.22555504  0.40814410  0.66133098  1  0  0.062053  0  0.968731  0  0  0.069629  0  1.040633  0  0  0.072061  0  1.03808  0  0  0.105034  0.067905  0  1.042477  0
H  H30  1  0.27444759  0.90814076  0.16133176  1  0  0.062097  0  0.968727  0  0  0.0696  0  1.040687  0  0  0.072028  0  1.038141  0  0  0.105067  0.067934  0  1.042469  0
H  H31  1  0.77444504  0.59185472  0.33867166  1  0  0.062042  0  0.968721  0  0  0.069623  0  1.040619  0  0  0.072055  0  1.038067  0  0  0.105034  0.067894  0  1.042468  0
H  H32  1  0.82385477  0.90897814  0.58940575  1  0  0.081385  0  0.948762  0  0  0.086679  0  1.019078  0  0  0.090136  0  1.015396  0  0  0.109231  0.084179  0  1.021738  0
H  H33  1  0.32384942  0.59102960  0.91058401  1  0  0.081452  0  0.948573  0  0  0.086752  0  1.01888  0  0  0.09021  0  1.015194  0  0  0.109196  0.084268  0  1.021542  0
H  H34  1  0.17614661  0.09102467  0.41058513  1  0  0.081394  0  0.948677  0  0  0.086748  0  1.01895  0  0  0.090206  0  1.015267  0  0  0.109158  0.084236  0  1.021627  0
H  H35  1  0.67615328  0.40897241  0.08941672  1  0  0.081493  0  0.948595  0  0  0.086794  0  1.018892  0  0  0.090252  0  1.015207  0  0  0.109207  0.084316  0  1.02155  0
H  H36  1  0.90479715  0.07117918  0.50528110  1  0  0.100068  0  0.964744  0  0  0.111004  0  1.024915  0  0  0.113329  0  1.025437  0  0  0.10587  0.109343  0  1.02475  0
H  H37  1  0.40477683  0.42883501  0.99471550  1  0  0.100071  0  0.964702  0  0  0.111005  0  1.024885  0  0  0.113335  0  1.025392  0  0  0.105948  0.10936  0  1.02471  0
H  H38  1  0.09520686  0.92882842  0.49471433  1  0  0.100108  0  0.96482  0  0  0.111026  0  1.024993  0  0  0.113377  0  1.025447  0  0  0.105895  0.109351  0  1.024862  0
H  H39  1  0.59522456  0.57116780  0.00528669  1  0  0.100056  0  0.964809  0  0  0.110979  0  1.025003  0  0  0.113326  0  1.025459  0  0  0.105924  0.109323  0  1.024832  0
H  H40  1  0.90891598  0.24779157  0.59443216  1  0  0.109348  0  0.95273  0  0  0.118754  0  1.014768  0  0  0.121944  0  1.01232  0  0  0.10695  0.116442  0  1.016527  0
H  H41  1  0.40890024  0.25221783  0.90557050  1  0  0.109444  0  0.952655  0  0  0.118721  0  1.014852  0  0  0.121909  0  1.012413  0  0  0.106978  0.11646  0  1.016567  0
H  H42  1  0.09108540  0.75221204  0.40556655  1  0  0.109405  0  0.952674  0  0  0.118717  0  1.014831  0  0  0.121909  0  1.012383  0  0  0.106915  0.116397  0  1.016589  0
H  H43  1  0.59109984  0.74778338  0.09443442  1  0  0.109362  0  0.952677  0  0  0.118663  0  1.014861  0  0  0.121849  0  1.012429  0  0  0.106962  0.11641  0  1.01657  0
H  H44  1  0.19697236  0.10069192  0.84768243  1  0  0.398423  0  0.925581  0  0  0.354177  0  1.01111  0  0  0.36583  0  0.994939  0  0  0.277551  0.346073  0  1.022326  0
H  H45  1  0.69697677  0.39931183  0.65231807  1  0  0.398518  0  0.925466  0  0  0.354298  0  1.010948  0  0  0.365948  0  0.994782  0  0  0.277594  0.346192  0  1.02217  0
H  H46  1  0.80302510  0.89930770  0.15232097  1  0  0.398466  0  0.925537  0  0  0.354229  0  1.011046  0  0  0.365881  0  0.994876  0  0  0.27756  0.346118  0  1.022266  0
H  H47  1  0.30302330  0.60068939  0.34767907  1  0  0.398497  0  0.925492  0  0  0.354259  0  1.011  0  0  0.365911  0  0.99483  0  0  0.27756  0.346148  0  1.022229  0
H  H48  1  0.15630655  0.02491164  0.93852409  1  0  0.427431  0  0.880869  0  0  0.394981  0  0.945893  0  0  0.406032  0  0.930018  0  0  0.287593  0.387204  0  0.957058  0
H  H49  1  0.65630916  0.47508970  0.56147548  1  0  0.427397  0  0.880915  0  0  0.395022  0  0.945833  0  0  0.406074  0  0.929957  0  0  0.287593  0.387216  0  0.957039  0
H  H50  1  0.84368829  0.97508718  0.06147785  1  0  0.427391  0  0.880937  0  0  0.394908  0  0.945998  0  0  0.405957  0  0.930127  0  0  0.287562  0.387148  0  0.957135  0
H  H51  1  0.34368699  0.52490833  0.43852217  1  0  0.427424  0  0.880881  0  0  0.395063  0  0.945786  0  0  0.406113  0  0.929911  0  0  0.28761  0.387255  0  0.956997  0
C  C52  1  0.63839596  0.12602262  0.03181582  1  0  0.682245  0  3.850089  0  0  0.635917  0  4.150016  0  0  0.667571  0  4.144092  0  0  0.2041  0.614352  0  4.153378  0
C  C53  1  0.13839117  0.37396887  0.46817925  1  0  0.682083  0  3.850001  0  0  0.635723  0  4.150027  0  0  0.667379  0  4.144105  0  0  0.204048  0.614142  0  4.153435  0
C  C54  1  0.36160018  0.87397142  0.96818511  1  0  0.682391  0  3.849902  0  0  0.635828  0  4.150193  0  0  0.667489  0  4.144264  0  0  0.204031  0.614266  0  4.153538  0
C  C55  1  0.86160891  0.62602677  0.53181471  1  0  0.68232  0  3.849858  0  0  0.635979  0  4.149823  0  0  0.667639  0  4.143889  0  0  0.20416  0.614393  0  4.153251  0
C  C56  1  0.50116865  0.04094715  0.04312303  1  0  -0.244159  0  3.667353  0  0  -0.282436  0  3.912096  0  0  -0.287544  0  3.920154  0  0  -0.1687  -0.278861  0  3.906517  0
C  C57  1  0.00116909  0.45904908  0.45687844  1  0  -0.24403  0  3.667192  0  0  -0.282383  0  3.912097  0  0  -0.287504  0  3.920161  0  0  -0.168531  -0.278737  0  3.906518  0
C  C58  1  0.49882619  0.95904848  0.95688295  1  0  -0.244213  0  3.667231  0  0  -0.282406  0  3.912076  0  0  -0.28752  0  3.920143  0  0  -0.168625  -0.278776  0  3.906501  0
C  C59  1  0.99883099  0.54094736  0.54311910  1  0  -0.244256  0  3.667241  0  0  -0.28251  0  3.912081  0  0  -0.287626  0  3.920152  0  0  -0.168607  -0.278891  0  3.906492  0
C  C60  1  0.84406406  0.78686746  0.84868337  1  0  0.124712  0  3.689407  0  0  0.089825  0  3.942822  0  0  0.097241  0  3.959617  0  0  0.047787  0.085178  0  3.931372  0
C  C61  1  0.34406247  0.71313709  0.65131613  1  0  0.124759  0  3.689347  0  0  0.089786  0  3.942775  0  0  0.097196  0  3.959564  0  0  0.047742  0.085097  0  3.9314  0
C  C62  1  0.15593078  0.21313375  0.15131731  1  0  0.124691  0  3.689366  0  0  0.089787  0  3.942777  0  0  0.097197  0  3.95957  0  0  0.047775  0.085153  0  3.931321  0
C  C63  1  0.65593106  0.28686253  0.34868657  1  0  0.124832  0  3.689427  0  0  0.089897  0  3.94283  0  0  0.097306  0  3.959622  0  0  0.047782  0.085213  0  3.931469  0
C  C64  1  0.75411338  0.73742448  0.77240389  1  0  -0.097587  0  3.716706  0  0  -0.108667  0  3.968141  0  0  -0.115805  0  3.990529  0  0  -0.075247  -0.104194  0  3.953192  0
C  C65  1  0.25411491  0.76257924  0.72759680  1  0  -0.097613  0  3.71663  0  0  -0.108734  0  3.968058  0  0  -0.115872  0  3.990447  0  0  -0.075266  -0.104248  0  3.953074  0
C  C66  1  0.24588539  0.26257593  0.22759604  1  0  -0.097637  0  3.716673  0  0  -0.10875  0  3.968086  0  0  -0.115889  0  3.990478  0  0  -0.075305  -0.104291  0  3.953119  0
C  C67  1  0.74588648  0.23742277  0.27240675  1  0  -0.097579  0  3.716653  0  0  -0.108728  0  3.968084  0  0  -0.115867  0  3.990476  0  0  -0.075276  -0.104249  0  3.953104  0
C  C68  1  0.74183644  0.62660952  0.76389050  1  0  -0.024831  0  3.652229  0  0  -0.05138  0  3.894653  0  0  -0.047935  0  3.912199  0  0  -0.058132  -0.053251  0  3.882754  0
C  C69  1  0.24183417  0.87339419  0.73611017  1  0  -0.025032  0  3.65205  0  0  -0.051502  0  3.89454  0  0  -0.048058  0  3.912092  0  0  -0.058173  -0.053332  0  3.882548  0
C  C70  1  0.25816626  0.37339249  0.23610811  1  0  -0.024802  0  3.65202  0  0  -0.051339  0  3.894495  0  0  -0.047892  0  3.912037  0  0  -0.058115  -0.053219  0  3.882602  0
C  C71  1  0.75816853  0.12660542  0.26389323  1  0  -0.025043  0  3.651911  0  0  -0.051529  0  3.89441  0  0  -0.048081  0  3.911947  0  0  -0.058177  -0.053337  0  3.882399  0
C  C72  1  0.82402311  0.56737121  0.83145630  1  0  -0.028053  0  3.765776  0  0  -0.007507  0  4.000549  0  0  -0.012613  0  4.021939  0  0  0.007285  -0.004548  0  3.986247  0
C  C73  1  0.32401523  0.93263413  0.66854392  1  0  -0.027912  0  3.765349  0  0  -0.007448  0  4.000319  0  0  -0.012553  0  4.021698  0  0  0.007284  -0.004481  0  3.98595  0
C  C74  1  0.17598090  0.43263239  0.16854171  1  0  -0.027973  0  3.765535  0  0  -0.007469  0  4.000422  0  0  -0.012574  0  4.021798  0  0  0.00729  -0.004529  0  3.986128  0
C  C75  1  0.67598223  0.06736469  0.33145802  1  0  -0.027789  0  3.765217  0  0  -0.007322  0  4.000147  0  0  -0.012422  0  4.021523  0  0  0.007416  -0.004345  0  3.985775  0
C  C76  1  0.91139629  0.62341967  0.90664025  1  0  0.103568  0  3.654885  0  0  0.064447  0  3.90177  0  0  0.071638  0  3.917342  0  0  0.055548  0.059539  0  3.891986  0
C  C77  1  0.41139185  0.87658730  0.59336022  1  0  0.103523  0  3.654951  0  0  0.064402  0  3.901861  0  0  0.071625  0  3.917469  0  0  0.055588  0.059471  0  3.892134  0
C  C78  1  0.08860248  0.37658394  0.09335987  1  0  0.103558  0  3.654733  0  0  0.064471  0  3.901644  0  0  0.0717  0  3.917234  0  0  0.055601  0.059565  0  3.891866  0
C  C79  1  0.58860954  0.12341232  0.40664106  1  0  0.103589  0  3.654991  0  0  0.064466  0  3.901913  0  0  0.071692  0  3.917517  0  0  0.055583  0.05955  0  3.89218  0
C  C80  1  0.82807865  0.45106981  0.82823139  1  0  0.292182  0  3.814204  0  0  0.265031  0  4.086748  0  0  0.275695  0  4.105553  0  0  0.207025  0.258239  0  4.073756  0
C  C81  1  0.32806528  0.04893478  0.67176941  1  0  0.292263  0  3.813815  0  0  0.265007  0  4.086564  0  0  0.275674  0  4.10536  0  0  0.206949  0.258215  0  4.073524  0
C  C82  1  0.17193191  0.54893220  0.17176651  1  0  0.292072  0  3.81414  0  0  0.264853  0  4.086818  0  0  0.27552  0  4.105613  0  0  0.206882  0.258063  0  4.073829  0
C  C83  1  0.67193611  0.95106325  0.32823248  1  0  0.292096  0  3.814078  0  0  0.26489  0  4.086756  0  0  0.275548  0  4.105565  0  0  0.206906  0.258098  0  4.073713  0
C  C84  1  0.82689519  0.28550341  0.78275187  1  0  0.320567  0  3.797747  0  0  0.286317  0  4.065823  0  0  0.300288  0  4.083734  0  0  0.213017  0.277411  0  4.05318  0
C  C85  1  0.32688090  0.21450357  0.71724696  1  0  0.320632  0  3.797666  0  0  0.286184  0  4.065989  0  0  0.300151  0  4.083904  0  0  0.212892  0.277262  0  4.05333  0
C  C86  1  0.17311144  0.71449940  0.21724608  1  0  0.320559  0  3.797895  0  0  0.286303  0  4.06595  0  0  0.300269  0  4.083867  0  0  0.212982  0.277392  0  4.053302  0
C  C87  1  0.67311394  0.78549525  0.28275710  1  0  0.320416  0  3.797748  0  0  0.286134  0  4.065876  0  0  0.300099  0  4.083797  0  0  0.212924  0.277222  0  4.053226  0
C  C88  1  0.81922276  0.18435886  0.72535509  1  0  -0.05229  0  3.793687  0  0  -0.029461  0  4.027585  0  0  -0.035667  0  4.05069  0  0  -0.008101  -0.025896  0  4.012451  0
C  C89  1  0.31921282  0.31564652  0.77464292  1  0  -0.052281  0  3.793635  0  0  -0.029361  0  4.02754  0  0  -0.035565  0  4.050644  0  0  -0.008051  -0.025829  0  4.012454  0
C  C90  1  0.18078256  0.81564315  0.27464069  1  0  -0.052365  0  3.793824  0  0  -0.029487  0  4.027653  0  0  -0.035693  0  4.050765  0  0  -0.008091  -0.025935  0  4.012538  0
C  C91  1  0.68078333  0.68435469  0.22535988  1  0  -0.0523  0  3.793684  0  0  -0.029439  0  4.027595  0  0  -0.035642  0  4.050702  0  0  -0.008068  -0.025891  0  4.012505  0
C  C92  1  0.76956895  0.08959936  0.76506217  1  0  0.085396  0  3.721817  0  0  0.053231  0  3.98074  0  0  0.059511  0  3.996403  0  0  0.038719  0.048841  0  3.970842  0
C  C93  1  0.26956014  0.41040521  0.73493216  1  0  0.085354  0  3.721735  0  0  0.053084  0  3.980728  0  0  0.059383  0  3.996355  0  0  0.038672  0.048678  0  3.970913  0
C  C94  1  0.23043637  0.91040425  0.23493159  1  0  0.085277  0  3.72172  0  0  0.05307  0  3.98071  0  0  0.059378  0  3.996323  0  0  0.038618  0.048685  0  3.97079  0
C  C95  1  0.73043731  0.58959281  0.26507114  1  0  0.085376  0  3.72167  0  0  0.053104  0  3.980703  0  0  0.059404  0  3.996329  0  0  0.038628  0.048689  0  3.970902  0
C  C96  1  0.82113327  0.98830800  0.62638270  1  0  0.108915  0  3.718291  0  0  0.082314  0  3.980863  0  0  0.088215  0  3.997285  0  0  0.039669  0.078722  0  3.969437  0
C  C97  1  0.32112633  0.51169814  0.87361048  1  0  0.108567  0  3.718043  0  0  0.08199  0  3.980575  0  0  0.087888  0  3.996995  0  0  0.039528  0.078404  0  3.969128  0
C  C98  1  0.17887205  0.01169321  0.37361232  1  0  0.108692  0  3.718349  0  0  0.082041  0  3.980902  0  0  0.087934  0  3.997333  0  0  0.039554  0.078452  0  3.969471  0
C  C99  1  0.67887637  0.48830307  0.12639019  1  0  0.108562  0  3.718056  0  0  0.081985  0  3.980598  0  0  0.087883  0  3.997018  0  0  0.03953  0.078403  0  3.969144  0
C  C100  1  0.86721331  0.07836642  0.57962993  1  0  -0.109924  0  3.736351  0  0  -0.121979  0  3.987191  0  0  -0.128147  0  4.008679  0  0  -0.085915  -0.118043  0  3.972636  0
C  C101  1  0.36719647  0.42164616  0.92036508  1  0  -0.109911  0  3.736229  0  0  -0.121971  0  3.987037  0  0  -0.128134  0  4.008523  0  0  -0.085959  -0.118013  0  3.972441  0
C  C102  1  0.13279201  0.92164038  0.42036544  1  0  -0.109952  0  3.736447  0  0  -0.121972  0  3.987254  0  0  -0.12813  0  4.008752  0  0  -0.085885  -0.11804  0  3.972694  0
C  C103  1  0.63280492  0.57835585  0.07963706  1  0  -0.109935  0  3.736305  0  0  -0.121988  0  3.987121  0  0  -0.128142  0  4.008612  0  0  -0.08593  -0.118035  0  3.972529  0
C  C104  1  0.86752275  0.17762599  0.62947136  1  0  -0.034677  0  3.676523  0  0  -0.061901  0  3.923896  0  0  -0.058526  0  3.940396  0  0  -0.070326  -0.063644  0  3.912532  0
C  C105  1  0.36750553  0.32238339  0.87052840  1  0  -0.034616  0  3.676402  0  0  -0.061772  0  3.923795  0  0  -0.058407  0  3.940309  0  0  -0.070232  -0.063493  0  3.912355  0
C  C106  1  0.13248257  0.82237841  0.37052528  1  0  -0.034566  0  3.676473  0  0  -0.061778  0  3.923886  0  0  -0.058407  0  3.940389  0  0  -0.070234  -0.063517  0  3.912516  0
C  C107  1  0.63249324  0.67761702  0.12947505  1  0  -0.03444  0  3.676365  0  0  -0.061621  0  3.923781  0  0  -0.058252  0  3.940282  0  0  -0.070165  -0.063345  0  3.912344  0
N  N108  1  0.91961762  0.73031242  0.91551535  1  0  -0.340054  0  3.32138  0  0  -0.24913  0  3.600143  0  0  -0.268016  0  3.612872  0  0  -0.333912  -0.236314  0  3.591172  0
N  N109  1  0.41961567  0.76969375  0.58448439  1  0  -0.340209  0  3.3215  0  0  -0.249071  0  3.600076  0  0  -0.267958  0  3.612796  0  0  -0.333954  -0.236319  0  3.59121  0
N  N110  1  0.08037721  0.26969039  0.08448543  1  0  -0.340085  0  3.321349  0  0  -0.249097  0  3.600032  0  0  -0.267982  0  3.612748  0  0  -0.333946  -0.236305  0  3.591081  0
N  N111  1  0.58037786  0.23030507  0.41551826  1  0  -0.340361  0  3.321678  0  0  -0.249253  0  3.60027  0  0  -0.268141  0  3.612987  0  0  -0.334029  -0.23651  0  3.591388  0
N  N112  1  0.79545146  0.38258105  0.75098675  1  0  -0.483103  0  3.041039  0  0  -0.423608  0  3.29232  0  0  -0.44369  0  3.306154  0  0  -0.325871  -0.410068  0  3.282611  0
N  N113  1  0.29543860  0.11742591  0.74901414  1  0  -0.483049  0  3.041011  0  0  -0.423371  0  3.292257  0  0  -0.443467  0  3.306114  0  0  -0.325613  -0.409728  0  3.282442  0
N  N114  1  0.20455779  0.61742176  0.24901120  1  0  -0.482942  0  3.040985  0  0  -0.423364  0  3.292179  0  0  -0.443464  0  3.306045  0  0  -0.325675  -0.4098  0  3.282456  0
N  N115  1  0.70456148  0.88257291  0.25098850  1  0  -0.482867  0  3.040934  0  0  -0.423264  0  3.292112  0  0  -0.443365  0  3.305986  0  0  -0.325579  -0.409622  0  3.282288  0
N  N116  1  0.87593743  0.29509109  0.87513706  1  0  -0.352162  0  3.275555  0  0  -0.273462  0  3.58261  0  0  -0.293699  0  3.597543  0  0  -0.256614  -0.259792  0  3.572263  0
N  N117  1  0.37592781  0.20491431  0.62486388  1  0  -0.352338  0  3.275526  0  0  -0.273563  0  3.582611  0  0  -0.2938  0  3.597546  0  0  -0.256676  -0.259936  0  3.572316  0
N  N118  1  0.12406658  0.70491092  0.12486226  1  0  -0.352235  0  3.27566  0  0  -0.273514  0  3.582685  0  0  -0.293752  0  3.597623  0  0  -0.256611  -0.259834  0  3.572333  0
N  N119  1  0.62406179  0.79508610  0.37514028  1  0  -0.352245  0  3.275603  0  0  -0.273523  0  3.58265  0  0  -0.29376  0  3.597589  0  0  -0.256743  -0.259937  0  3.572387  0
N  N120  1  0.87659405  0.40033531  0.90416181  1  0  -0.273371  0  2.970203  0  0  -0.247312  0  3.242793  0  0  -0.258179  0  3.262311  0  0  -0.222629  -0.239907  0  3.229423  0
N  N121  1  0.37658680  0.09967009  0.59584125  1  0  -0.273425  0  2.970092  0  0  -0.247288  0  3.242618  0  0  -0.258155  0  3.262126  0  0  -0.222605  -0.239884  0  3.22927  0
N  N122  1  0.12340996  0.59966590  0.09583745  1  0  -0.273343  0  2.970273  0  0  -0.247254  0  3.24284  0  0  -0.258125  0  3.262364  0  0  -0.222628  -0.239835  0  3.229467  0
N  N123  1  0.62340804  0.90033112  0.40416226  1  0  -0.273355  0  2.970261  0  0  -0.247253  0  3.242819  0  0  -0.258117  0  3.262332  0  0  -0.222602  -0.23986  0  3.229487  0
N  N124  1  0.77139710  0.99357933  0.71788064  1  0  -0.319573  0  3.094656  0  0  -0.279074  0  3.367344  0  0  -0.291387  0  3.384086  0  0  -0.324138  -0.270463  0  3.35558  0
N  N125  1  0.27139484  0.50642600  0.78211241  1  0  -0.319393  0  3.094404  0  0  -0.278858  0  3.367045  0  0  -0.291177  0  3.383791  0  0  -0.32407  -0.270298  0  3.355329  0
N  N126  1  0.22860560  0.00642268  0.28211514  1  0  -0.31943  0  3.094581  0  0  -0.278892  0  3.367208  0  0  -0.291212  0  3.383958  0  0  -0.324015  -0.270278  0  3.35542  0
N  N127  1  0.72860786  0.49357362  0.21788887  1  0  -0.319441  0  3.094402  0  0  -0.278901  0  3.367041  0  0  -0.291222  0  3.38379  0  0  -0.324066  -0.270327  0  3.355325  0
O  O128  1  0.79912211  0.08890539  0.01828602  1  0  -0.698965  0  2.081177  0  0  -0.605199  0  2.341073  0  0  -0.635564  0  2.325954  0  0  -0.339624  -0.584096  0  2.3509  0
O  O129  1  0.29911742  0.41108616  0.48171146  1  0  -0.698992  0  2.081062  0  0  -0.60519  0  2.340898  0  0  -0.635561  0  2.325788  0  0  -0.339539  -0.583915  0  2.350678  0
O  O130  1  0.20087535  0.91109024  0.98171501  1  0  -0.699153  0  2.081239  0  0  -0.605255  0  2.341156  0  0  -0.635633  0  2.326048  0  0  -0.33955  -0.583994  0  2.35092  0
O  O131  1  0.70088265  0.58891028  0.51828609  1  0  -0.699009  0  2.081096  0  0  -0.60525  0  2.340957  0  0  -0.635627  0  2.325856  0  0  -0.339517  -0.583973  0  2.350735  0
O  O132  1  0.60211313  0.22206594  0.03247628  1  0  -0.587781  0  1.901445  0  0  -0.544063  0  2.12084  0  0  -0.565119  0  2.113626  0  0  -0.308496  -0.529509  0  2.125361  0
O  O133  1  0.10210040  0.27792635  0.46751028  1  0  -0.587609  0  1.90147  0  0  -0.543945  0  2.12094  0  0  -0.564993  0  2.113714  0  0  -0.308279  -0.52916  0  2.125421  0
O  O134  1  0.39788564  0.77792811  0.96751829  1  0  -0.587706  0  1.90133  0  0  -0.543951  0  2.120886  0  0  -0.565006  0  2.113666  0  0  -0.308396  -0.529377  0  2.125389  0
O  O135  1  0.89790361  0.72206850  0.53247797  1  0  -0.587778  0  1.901358  0  0  -0.544067  0  2.120756  0  0  -0.565126  0  2.113539  0  0  -0.308373  -0.529281  0  2.125233  0
O  O136  1  0.12901800  0.09370217  0.90976905  1  0  -0.86534  0  1.975099  0  0  -0.789837  0  2.231928  0  0  -0.812661  0  2.192826  0  0  -0.592923  -0.773663  0  2.258792  0
O  O137  1  0.62901943  0.40630155  0.59023416  1  0  -0.865408  0  1.975041  0  0  -0.789957  0  2.231753  0  0  -0.812793  0  2.192678  0  0  -0.592992  -0.773794  0  2.258661  0
O  O138  1  0.87097683  0.90629745  0.09023506  1  0  -0.865392  0  1.975148  0  0  -0.789869  0  2.23207  0  0  -0.812678  0  2.192935  0  0  -0.592935  -0.773699  0  2.258898  0
O  O139  1  0.37097672  0.59369887  0.40976647  1  0  -0.865437  0  1.975036  0  0  -0.790001  0  2.231741  0  0  -0.812831  0  2.192651  0  0  -0.592966  -0.773818  0  2.258636  0
