# generated using pymatgen
data_Ni5H22C16(N2O9)2
_symmetry_space_group_name_H-M   'P 1'
_cell_length_a   11.68653996
_cell_length_b   18.19681677
_cell_length_c   18.19681400
_cell_angle_alpha   90.00316186
_cell_angle_beta   90.00000252
_cell_angle_gamma   90.00000663
_symmetry_Int_Tables_number   1
_chemical_formula_structural   Ni5H22C16(N2O9)2
_chemical_formula_sum   'Ni20 H88 C64 N16 O72'
_cell_volume   3869.69490483
_cell_formula_units_Z   4
loop_
 _symmetry_equiv_pos_site_id
 _symmetry_equiv_pos_as_xyz
  1  'x, y, z'
loop_
 _atom_site_type_symbol
 _atom_site_label
 _atom_site_symmetry_multiplicity
 _atom_site_fract_x
 _atom_site_fract_y
 _atom_site_fract_z
 _atom_site_occupancy
 _atom_site_pbe_bader_charge
 _atom_site_pbe_bader_spin_density
 _atom_site_pbe_cm5_charge
 _atom_site_pbe_ddec_charge
 _atom_site_pbe_ddec_spin_density
 _atom_site_pbe_ddec_sum_bond_order
 _atom_site_pbe_magmom
Ni  Ni0  1  0.16107171  0.54213838  0.94122808  1  1.240834  1.607604  0.628012  1.00241  1.793187  2.39469  1.595
Ni  Ni1  1  0.93804676  0.59313836  0.87517343  1  1.182394  1.577391  0.631815  0.887286  1.762475  2.408259  1.565
Ni  Ni2  1  0.66107082  0.45786140  0.05877128  1  1.240698  1.607604  0.628027  1.002445  1.793188  2.394628  1.595
Ni  Ni3  1  0.43804672  0.40686143  0.12482649  1  1.182395  1.57739  0.631799  0.887229  1.762473  2.408284  1.565
Ni  Ni4  1  0.91109093  0.55878794  0.04216402  1  1.240578  1.607566  0.627986  1.00252  1.793104  2.394034  1.595
Ni  Ni5  1  0.68806770  0.62481188  0.09314179  1  1.182919  1.577417  0.631799  0.887288  1.762503  2.408191  1.565
Ni  Ni6  1  0.41109095  0.44121185  0.95783535  1  1.240565  1.607566  0.628008  1.002554  1.793103  2.394013  1.595
Ni  Ni7  1  0.18806771  0.37518845  0.90685811  1  1.18293  1.577417  0.631795  0.887277  1.762503  2.408216  1.565
Ni  Ni8  1  0.58891008  0.95783577  0.44121191  1  1.240573  1.607565  0.62798  1.002496  1.793103  2.394043  1.595
Ni  Ni9  1  0.81193246  0.90685800  0.37518851  1  1.182935  1.577419  0.631775  0.887239  1.762505  2.408241  1.565
Ni  Ni10  1  0.08890914  0.04216455  0.55878744  1  1.240585  1.607565  0.628011  1.002556  1.793102  2.393984  1.595
Ni  Ni11  1  0.31193239  0.09314178  0.62481140  1  1.182933  1.577419  0.631801  0.887305  1.762505  2.408227  1.565
Ni  Ni12  1  0.83892848  0.94122851  0.54213792  1  1.240713  1.607606  0.628016  1.002423  1.793189  2.394651  1.595
Ni  Ni13  1  0.06195342  0.87517383  0.59313842  1  1.182439  1.577393  0.63179  0.887234  1.762475  2.408284  1.565
Ni  Ni14  1  0.33892925  0.05877182  0.45786145  1  1.240842  1.607602  0.628006  1.002419  1.793184  2.394585  1.595
Ni  Ni15  1  0.56195335  0.12482648  0.40686149  1  1.182486  1.577389  0.631821  0.887303  1.762475  2.408251  1.565
Ni  Ni16  1  0.00000009  0.74316147  0.74316159  1  1.150507  1.560042  0.621619  0.822001  1.743928  2.434965  1.549
Ni  Ni17  1  0.50000003  0.25683884  0.25683887  1  1.150896  1.560035  0.621628  0.822068  1.74393  2.434854  1.549
Ni  Ni18  1  0.74999965  0.75684955  0.24314972  1  1.150783  1.560004  0.621437  0.821784  1.743929  2.433501  1.549
Ni  Ni19  1  0.24999962  0.24315023  0.75685019  1  1.150778  1.560004  0.621442  0.821789  1.743929  2.433508  1.549
H  H20  1  0.92027161  0.56520228  0.74020562  1  0.462559  -0.000749  0.303095  0.302125  -0.000839  0.932086  -0.001
H  H21  1  0.78974623  0.55488633  0.76536414  1  0.491633  0.000567  0.291304  0.30269  0.000531  0.970196  0.001
H  H22  1  0.10982474  0.83084587  0.83662158  1  0.402214  0.000912  0.305669  0.287001  0.000279  0.925584  0.0
H  H23  1  0.16817990  0.83536250  0.75329832  1  0.472601  0.000712  0.289727  0.289979  0.000656  1.005202  0.0
H  H24  1  0.89307792  0.43399582  0.74061306  1  0.059409  0.005265  0.113942  0.076258  0.002416  0.938667  0.002
H  H25  1  0.81680641  0.36947369  0.84553294  1  0.072873  0.001342  0.114091  0.140556  0.000607  0.974057  0.001
H  H26  1  0.71746991  0.43793991  0.82030459  1  0.095482  0.000506  0.117808  0.148631  0.000123  0.947238  0.0
H  H27  1  0.27293375  0.76219274  0.85915385  1  0.051915  0.003538  0.112575  0.072962  0.001661  0.947265  0.002
H  H28  1  0.35698428  0.76546033  0.73899994  1  0.015466  0.00049  0.098058  0.111963  0.000225  0.995495  0.0
H  H29  1  0.34262417  0.67246232  0.76345440  1  0.085028  0.00046  0.111807  0.140995  0.000199  0.960481  0.0
H  H30  1  0.30227175  0.49229587  0.85141703  1  0.592196  0.001287  0.315387  0.406711  0.001564  0.87348  0.001
H  H31  1  0.42027158  0.43479807  0.25979374  1  0.462177  -0.000749  0.303097  0.302132  -0.00084  0.932071  -0.001
H  H32  1  0.28974620  0.44511401  0.23463578  1  0.491636  0.000567  0.291302  0.302684  0.000531  0.970196  0.001
H  H33  1  0.60982637  0.16915390  0.16337943  1  0.402248  0.000912  0.305609  0.286911  0.000279  0.925558  0.0
H  H34  1  0.66818068  0.16463837  0.24670268  1  0.472595  0.000712  0.289717  0.28998  0.000656  1.005196  0.0
H  H35  1  0.39307705  0.56600452  0.25938685  1  0.059382  0.005266  0.11394  0.076255  0.002416  0.938696  0.002
H  H36  1  0.31680641  0.63052664  0.15446642  1  0.072871  0.001342  0.114101  0.140583  0.000606  0.974027  0.001
H  H37  1  0.21746990  0.56205986  0.17969477  1  0.095491  0.000506  0.117799  0.148627  0.000123  0.947263  0.0
H  H38  1  0.77293624  0.23780650  0.14084716  1  0.051911  0.003538  0.112589  0.073003  0.001661  0.947291  0.002
H  H39  1  0.85698422  0.23454111  0.26100107  1  0.015574  0.00049  0.098063  0.111984  0.000225  0.995496  0.0
H  H40  1  0.84262412  0.32753912  0.23654606  1  0.084995  0.00046  0.111835  0.141085  0.000199  0.96053  0.0
H  H41  1  0.80227173  0.50770392  0.14858234  1  0.592196  0.001287  0.315427  0.406756  0.001564  0.873522  0.001
H  H42  1  0.67026433  0.75977757  0.06519832  1  0.462465  -0.00075  0.303074  0.302184  -0.000841  0.931872  -0.001
H  H43  1  0.53976205  0.73462233  0.05488593  1  0.491992  0.000567  0.291303  0.302707  0.000532  0.970219  0.001
H  H44  1  0.85985423  0.66339662  0.33080809  1  0.402739  0.000906  0.305698  0.286766  0.000279  0.925912  0.0
H  H45  1  0.91817090  0.74672286  0.33537548  1  0.47231  0.000714  0.289652  0.289801  0.000657  1.005303  0.0
H  H46  1  0.64308779  0.75936960  0.93401303  1  0.060028  0.005264  0.113775  0.07591  0.002417  0.938606  0.002
H  H47  1  0.56680686  0.65448738  0.86945213  1  0.072283  0.001342  0.114085  0.140516  0.000606  0.973972  0.001
H  H48  1  0.46747550  0.67969862  0.93792306  1  0.095561  0.000505  0.117762  0.14864  0.000122  0.947199  0.0
H  H49  1  0.02301800  0.64092153  0.26221303  1  0.051579  0.003541  0.112591  0.073119  0.001662  0.947282  0.002
H  H50  1  0.10706085  0.76106462  0.26545758  1  0.015164  0.000491  0.097853  0.111745  0.000225  0.995476  0.0
H  H51  1  0.09265881  0.73658854  0.17246040  1  0.084621  0.000459  0.111833  0.140831  0.000199  0.960752  0.0
H  H52  1  0.05226364  0.64857873  0.99229655  1  0.591873  0.001287  0.315375  0.406864  0.001561  0.873336  0.001
H  H53  1  0.17026345  0.24022276  0.93480104  1  0.46247  -0.00075  0.3031  0.302199  -0.000841  0.931934  -0.001
H  H54  1  0.03976204  0.26537853  0.94511398  1  0.49199  0.000567  0.29135  0.302787  0.000531  0.970119  0.001
H  H55  1  0.35985507  0.33660262  0.66919182  1  0.402755  0.000906  0.305718  0.286821  0.000278  0.925867  0.0
H  H56  1  0.41817087  0.25327639  0.66462499  1  0.472272  0.000714  0.289651  0.28981  0.000657  1.00529  0.0
H  H57  1  0.14308857  0.24063073  0.06598632  1  0.060036  0.005264  0.113777  0.075908  0.002417  0.938636  0.002
H  H58  1  0.06680852  0.34551294  0.13054777  1  0.072319  0.001342  0.114096  0.140518  0.000606  0.973985  0.001
H  H59  1  0.96747629  0.32030063  0.06207741  1  0.095576  0.000505  0.117765  0.148638  0.000122  0.947198  0.0
H  H60  1  0.52301799  0.35907768  0.73778742  1  0.051594  0.003541  0.112601  0.073144  0.001661  0.947287  0.002
H  H61  1  0.60706168  0.23893570  0.73454288  1  0.01508  0.000491  0.097839  0.111703  0.000225  0.995533  0.0
H  H62  1  0.59265879  0.26341068  0.82754060  1  0.08461  0.000459  0.111819  0.140825  0.000199  0.960719  0.0
H  H63  1  0.55226358  0.35142159  0.00770281  1  0.591874  0.001287  0.315379  0.406858  0.001561  0.873351  0.001
H  H64  1  0.82973499  0.93480148  0.24022225  1  0.462411  -0.00075  0.303117  0.302232  -0.000841  0.931834  -0.001
H  H65  1  0.96023811  0.94511387  0.26537749  1  0.491988  0.000567  0.291327  0.302741  0.000532  0.97014  0.001
H  H66  1  0.64014592  0.66919174  0.33660377  1  0.402728  0.000907  0.305691  0.286767  0.000279  0.925912  0.0
H  H67  1  0.58182925  0.66462435  0.25327697  1  0.472293  0.000714  0.289654  0.289819  0.000657  1.005274  0.0
H  H68  1  0.85691147  0.06598689  0.24062967  1  0.060032  0.005264  0.113788  0.075922  0.002417  0.938564  0.002
H  H69  1  0.93319326  0.13054778  0.34551245  1  0.072285  0.001342  0.114091  0.140529  0.000606  0.973993  0.001
H  H70  1  0.03252376  0.06207684  0.32030064  1  0.095562  0.000505  0.117767  0.148658  0.000122  0.947182  0.0
H  H71  1  0.47698300  0.73778677  0.35907827  1  0.051583  0.003541  0.112591  0.073121  0.001662  0.947288  0.002
H  H72  1  0.39293845  0.73454167  0.23893627  1  0.015066  0.000491  0.097833  0.111698  0.000225  0.99551  0.0
H  H73  1  0.40734135  0.82753993  0.26341180  1  0.084624  0.000459  0.11185  0.140852  0.000199  0.960723  0.0
H  H74  1  0.44773647  0.00770337  0.35142163  1  0.591878  0.001287  0.315384  0.406862  0.001561  0.873337  0.001
H  H75  1  0.32973578  0.06519886  0.75977766  1  0.462461  -0.00075  0.303101  0.302212  -0.000841  0.931827  -0.001
H  H76  1  0.46023805  0.05488593  0.73462188  1  0.491991  0.000567  0.291316  0.302722  0.000532  0.970181  0.001
H  H77  1  0.14014504  0.33080803  0.66339724  1  0.402755  0.000906  0.305717  0.286823  0.000278  0.925866  0.0
H  H78  1  0.08182838  0.33537487  0.74672349  1  0.472275  0.000714  0.289658  0.289814  0.000657  1.005286  0.0
H  H79  1  0.35691242  0.93401345  0.75936969  1  0.060025  0.005264  0.113783  0.07591  0.002417  0.938574  0.002
H  H80  1  0.43319248  0.86945256  0.65448746  1  0.072285  0.001342  0.114074  0.140485  0.000606  0.974035  0.001
H  H81  1  0.53252385  0.93792293  0.67969871  1  0.095573  0.000505  0.117759  0.148632  0.000122  0.947215  0.0
H  H82  1  0.97698212  0.26221248  0.64092219  1  0.051588  0.003541  0.112602  0.073144  0.001662  0.947301  0.002
H  H83  1  0.89293843  0.26545702  0.76106474  1  0.01516  0.000491  0.097845  0.11173  0.000225  0.995512  0.0
H  H84  1  0.90734131  0.17245931  0.73658866  1  0.084607  0.000459  0.111818  0.140827  0.000199  0.960719  0.0
H  H85  1  0.94773571  0.99229698  0.64857829  1  0.591869  0.001288  0.31538  0.406869  0.001561  0.873338  0.001
H  H86  1  0.07972856  0.74020605  0.56520178  1  0.462157  -0.000749  0.303104  0.302137  -0.000839  0.932061  -0.001
H  H87  1  0.21025308  0.76536402  0.55488639  1  0.491638  0.000567  0.291292  0.302677  0.000531  0.970231  0.001
H  H88  1  0.89017547  0.83662093  0.83084601  1  0.40222  0.000912  0.305675  0.28701  0.000279  0.925586  0.0
H  H89  1  0.83181944  0.75329824  0.83536208  1  0.472601  0.000712  0.289724  0.289985  0.000656  1.005194  0.0
H  H90  1  0.10692309  0.74061294  0.43399586  1  0.059412  0.005265  0.113951  0.076251  0.002416  0.938676  0.002
H  H91  1  0.18319375  0.84553336  0.36947372  1  0.072881  0.001342  0.114087  0.140558  0.000607  0.974068  0.001
H  H92  1  0.28253025  0.82030502  0.43794051  1  0.095954  0.000506  0.117831  0.148662  0.000123  0.947227  0.0
H  H93  1  0.72706646  0.85915374  0.76219285  1  0.051923  0.003537  0.112578  0.072975  0.001661  0.947248  0.002
H  H94  1  0.64301591  0.73899985  0.76545989  1  0.015554  0.00049  0.098062  0.111982  0.000225  0.995483  0.0
H  H95  1  0.65737602  0.76345485  0.67246242  1  0.085023  0.00046  0.111854  0.141104  0.000199  0.96052  0.0
H  H96  1  0.69772757  0.85141747  0.49229594  1  0.592199  0.001287  0.315356  0.406695  0.001565  0.873509  0.001
H  H97  1  0.57972937  0.25979427  0.43479757  1  0.462573  -0.000749  0.30311  0.302147  -0.00084  0.932041  -0.001
H  H98  1  0.71025389  0.23463576  0.44511407  1  0.49163  0.000567  0.291292  0.302659  0.000531  0.970235  0.001
H  H99  1  0.39017367  0.16337941  0.16915390  1  0.402239  0.000912  0.30568  0.287022  0.000279  0.925579  0.0
H  H100  1  0.33181937  0.24670210  0.16463838  1  0.472602  0.000712  0.28973  0.289996  0.000656  1.005178  0.0
H  H101  1  0.60692220  0.25938738  0.56600460  1  0.059375  0.005265  0.113942  0.076258  0.002416  0.93869  0.002
H  H102  1  0.68319284  0.15446696  0.63052674  1  0.072859  0.001342  0.114109  0.140581  0.000607  0.97396  0.001
H  H103  1  0.78252934  0.17969532  0.56205995  1  0.095496  0.000506  0.117812  0.148644  0.000123  0.947236  0.0
H  H104  1  0.22706552  0.14084604  0.23780706  1  0.051912  0.003537  0.112595  0.073  0.001661  0.947289  0.002
H  H105  1  0.14301499  0.26099993  0.23454002  1  0.015463  0.00049  0.098055  0.111982  0.000224  0.995474  0.0
H  H106  1  0.15737595  0.23654602  0.32753804  1  0.085009  0.00046  0.111846  0.141075  0.000199  0.960547  0.0
H  H107  1  0.19772750  0.14858341  0.50770397  1  0.592021  0.001288  0.315405  0.406724  0.001565  0.873552  0.001
C  C108  1  0.01303301  0.45572231  0.82726014  1  1.54956  0.004776  0.226987  0.582876  0.003057  4.071869  0.003
C  C109  1  0.89391136  0.46458888  0.79306045  1  0.321913  0.012592  0.004503  0.071774  0.007868  3.882855  0.008
C  C110  1  0.80361688  0.42925717  0.84348094  1  -0.03393  0.011776  -0.149697  -0.33985  0.006874  3.858632  0.009
C  C111  1  0.79974662  0.45631409  0.92278897  1  1.566451  0.000316  0.228466  0.661852  -0.000639  4.065337  0.0
C  C112  1  0.15424249  0.67580853  0.84433733  1  1.550999  0.000212  0.223886  0.585399  -0.001023  4.066531  -0.001
C  C113  1  0.21720639  0.74325466  0.81409709  1  0.309302  0.013267  -0.00048  0.068063  0.008131  3.893376  0.008
C  C114  1  0.29350099  0.72198377  0.74905544  1  -0.028935  7.9e-05  -0.162219  -0.343805  -0.000489  3.90391  0.0
C  C115  1  0.23245041  0.70753690  0.67562021  1  1.62499  2.8e-05  0.193615  0.629023  -0.00042  4.163432  0.0
C  C116  1  0.51303300  0.54427745  0.17274032  1  1.549567  0.004777  0.22701  0.582952  0.003057  4.071853  0.003
C  C117  1  0.39391134  0.53541146  0.20693946  1  0.321912  0.012591  0.004517  0.071713  0.007868  3.883133  0.008
C  C118  1  0.30361687  0.57074262  0.15651842  1  -0.033918  0.011776  -0.149688  -0.339878  0.006875  3.858695  0.009
C  C119  1  0.29974660  0.54368624  0.07721039  1  1.566466  0.000315  0.228497  0.661952  -0.00064  4.06538  0.0
C  C120  1  0.65424329  0.32419179  0.15566313  1  1.551135  0.000213  0.223866  0.585411  -0.001024  4.066463  -0.001
C  C121  1  0.71720718  0.25674567  0.18590337  1  0.309311  0.013267  -0.000501  0.06801  0.008131  3.89344  0.008
C  C122  1  0.79350094  0.27801767  0.25094502  1  -0.028943  8e-05  -0.162233  -0.343923  -0.000489  3.904078  0.0
C  C123  1  0.73244865  0.29246452  0.32437970  1  1.625006  2.8e-05  0.19364  0.629044  -0.00042  4.163406  0.0
C  C124  1  0.76304117  0.67272043  0.95573862  1  1.550235  0.004779  0.227036  0.582591  0.003064  4.071465  0.003
C  C125  1  0.64391609  0.70690797  0.96459166  1  0.321961  0.012595  0.004604  0.072309  0.007867  3.883151  0.008
C  C126  1  0.55361733  0.65651411  0.92923573  1  -0.033259  0.01178  -0.149502  -0.339732  0.006877  3.858433  0.009
C  C127  1  0.54971626  0.57721142  0.95629323  1  1.565636  0.000307  0.228674  0.661854  -0.000651  4.064664  0.0
C  C128  1  0.90434387  0.65568165  0.17581042  1  1.553835  0.000206  0.22358  0.585641  -0.001026  4.066784  -0.001
C  C129  1  0.96725984  0.68594595  0.24325713  1  0.309724  0.013262  -0.000528  0.067266  0.008132  3.894219  0.008
C  C130  1  0.04355189  0.75098748  0.22198870  1  -0.027749  7.9e-05  -0.162056  -0.343144  -0.000488  3.903843  0.0
C  C131  1  0.98247736  0.82442083  0.20753381  1  1.624553  2.4e-05  0.19375  0.629252  -0.00043  4.163385  0.0
C  C132  1  0.26304196  0.32727880  0.04426239  1  1.550253  0.00478  0.227009  0.582564  0.003064  4.071453  0.003
C  C133  1  0.14391602  0.29309181  0.03540769  1  0.321938  0.012595  0.004614  0.072301  0.007867  3.883142  0.008
C  C134  1  0.05361813  0.34348621  0.07076472  1  -0.033305  0.01178  -0.149487  -0.339701  0.006877  3.858377  0.009
C  C135  1  0.04971621  0.42278834  0.04370668  1  1.565694  0.000307  0.228715  0.6619  -0.00065  4.064675  0.0
C  C136  1  0.40434301  0.34431704  0.82419005  1  1.55386  0.000205  0.223577  0.585652  -0.001027  4.066664  -0.001
C  C137  1  0.46726068  0.31405385  0.75674334  1  0.30958  0.013262  -0.000556  0.067208  0.008132  3.89427  0.008
C  C138  1  0.54355272  0.24901229  0.77801120  1  -0.027634  8e-05  -0.162053  -0.343091  -0.000487  3.90387  0.0
C  C139  1  0.48247732  0.17557896  0.79246610  1  1.624592  2.4e-05  0.193734  0.629181  -0.00043  4.1635  0.0
C  C140  1  0.73695895  0.04426240  0.32727885  1  1.550222  0.004779  0.226987  0.582514  0.003064  4.071486  0.003
C  C141  1  0.85608488  0.03540772  0.29309131  1  0.321951  0.012596  0.0046  0.072389  0.007867  3.88299  0.008
C  C142  1  0.94638278  0.07076420  0.34348517  1  -0.033272  0.011781  -0.149482  -0.339766  0.006878  3.858435  0.009
C  C143  1  0.95028471  0.04370726  0.42278842  1  1.565709  0.000307  0.228719  0.661861  -0.00065  4.064666  0.0
C  C144  1  0.59565714  0.82418939  0.34431764  1  1.55368  0.000205  0.223581  0.58568  -0.001026  4.066744  -0.001
C  C145  1  0.53274031  0.75674269  0.31405443  1  0.309748  0.013262  -0.000532  0.067249  0.008132  3.894234  0.008
C  C146  1  0.45644741  0.77801055  0.24901286  1  -0.02774  8e-05  -0.162048  -0.343082  -0.000488  3.903845  0.0
C  C147  1  0.51752195  0.79246490  0.17557953  1  1.62461  2.4e-05  0.193785  0.629236  -0.00043  4.163528  0.0
C  C148  1  0.23695904  0.95573793  0.67272051  1  1.550238  0.004779  0.226972  0.582527  0.003064  4.071386  0.003
C  C149  1  0.35608412  0.96459207  0.70690861  1  0.321961  0.012595  0.00461  0.072395  0.007867  3.882951  0.008
C  C150  1  0.44638201  0.92923560  0.65651419  1  -0.033263  0.01178  -0.149485  -0.339722  0.006878  3.85849  0.009
C  C151  1  0.45028394  0.95629364  0.57721150  1  1.565638  0.000308  0.228677  0.661815  -0.00065  4.064776  0.0
C  C152  1  0.09565538  0.17580983  0.65568227  1  1.553834  0.000206  0.223603  0.585705  -0.001026  4.066726  -0.001
C  C153  1  0.03273942  0.24325708  0.68594602  1  0.309716  0.013262  -0.000567  0.067182  0.008132  3.894306  0.008
C  C154  1  0.95644738  0.22198870  0.75098760  1  -0.027747  8e-05  -0.16205  -0.343124  -0.000488  3.903875  0.0
C  C155  1  0.01752191  0.20753377  0.82442092  1  1.624468  2.4e-05  0.193744  0.629206  -0.000431  4.163409  0.0
C  C156  1  0.98696715  0.82725950  0.45572239  1  1.549564  0.004776  0.227046  0.58296  0.003056  4.071835  0.003
C  C157  1  0.10608880  0.79306087  0.46458837  1  0.321881  0.012592  0.004542  0.071862  0.007868  3.882886  0.008
C  C158  1  0.19638328  0.84348136  0.42925776  1  -0.034398  0.011776  -0.149717  -0.339906  0.006874  3.858684  0.009
C  C159  1  0.20025355  0.92278938  0.45631358  1  1.566458  0.000316  0.228425  0.661811  -0.000639  4.065426  0.0
C  C160  1  0.84575770  0.84433723  0.67580919  1  1.550985  0.000212  0.223884  0.585428  -0.001023  4.066486  -0.001
C  C161  1  0.78279381  0.81409699  0.74325423  1  0.309296  0.013266  -0.000467  0.068073  0.00813  3.893332  0.008
C  C162  1  0.70649920  0.74905535  0.72198333  1  -0.028939  7.9e-05  -0.162254  -0.343956  -0.000489  3.904028  0.0
C  C163  1  0.76754976  0.67562013  0.70753646  1  1.62499  2.8e-05  0.193599  0.629032  -0.00042  4.163439  0.0
C  C164  1  0.48696709  0.17274085  0.54427697  1  1.549563  0.004777  0.227077  0.583033  0.003056  4.071807  0.003
C  C165  1  0.60608875  0.20693945  0.53541153  1  0.321908  0.012592  0.004547  0.071785  0.007868  3.883128  0.008
C  C166  1  0.69638237  0.15651897  0.57074325  1  -0.033934  0.011776  -0.149736  -0.339885  0.006874  3.858603  0.009
C  C167  1  0.70025348  0.07721095  0.54368633  1  1.566463  0.000316  0.228498  0.661859  -0.000639  4.065395  0.0
C  C168  1  0.34575591  0.15566311  0.32419182  1  1.550993  0.000212  0.223885  0.58536  -0.001023  4.066484  -0.001
C  C169  1  0.28279288  0.18590334  0.25674568  1  0.309306  0.013267  -0.000478  0.068064  0.00813  3.893335  0.008
C  C170  1  0.20649828  0.25094443  0.27801713  1  -0.028937  8e-05  -0.162241  -0.343888  -0.000488  3.903969  0.0
C  C171  1  0.26754972  0.32438020  0.29246345  1  1.625011  2.8e-05  0.193598  0.628978  -0.00042  4.163425  0.0
N  N172  1  0.87247131  0.54335676  0.78223820  1  -1.159399  0.080628  -0.625661  -0.61331  0.044583  3.416176  0.066
N  N173  1  0.13441371  0.80041680  0.79223989  1  -1.122153  0.077047  -0.625133  -0.605928  0.042397  3.430237  0.063
N  N174  1  0.37247129  0.45664358  0.21776116  1  -1.159006  0.080627  -0.625716  -0.613338  0.044582  3.416326  0.066
N  N175  1  0.63441449  0.19958352  0.20776057  1  -1.122351  0.07705  -0.62508  -0.605862  0.042397  3.430139  0.063
N  N176  1  0.62247772  0.71773335  0.04335212  1  -1.160621  0.080604  -0.625798  -0.613677  0.044573  3.416712  0.066
N  N177  1  0.88442780  0.70779091  0.30040125  1  -1.122142  0.077032  -0.625145  -0.605321  0.04238  3.430308  0.063
N  N178  1  0.12247686  0.28226642  0.95664723  1  -1.160658  0.080603  -0.625871  -0.613769  0.044573  3.416696  0.066
N  N179  1  0.38442778  0.29220833  0.69959922  1  -1.122103  0.077032  -0.625129  -0.605349  0.04238  3.430275  0.063
N  N180  1  0.87752244  0.95664712  0.28226648  1  -1.160599  0.080602  -0.625858  -0.613789  0.044572  3.416582  0.066
N  N181  1  0.61557235  0.69959858  0.29220947  1  -1.122124  0.077032  -0.625148  -0.605355  0.04238  3.430294  0.063
N  N182  1  0.37752238  0.04335267  0.71773344  1  -1.160644  0.080604  -0.625848  -0.613758  0.044573  3.416588  0.066
N  N183  1  0.11557233  0.30040064  0.70779153  1  -1.122107  0.077032  -0.625137  -0.605368  0.04238  3.430309  0.063
N  N184  1  0.12752885  0.78223862  0.54335681  1  -1.158989  0.080629  -0.625687  -0.613373  0.044583  3.416314  0.066
N  N185  1  0.86558649  0.79223980  0.80041693  1  -1.122229  0.077046  -0.625159  -0.60597  0.042397  3.430198  0.063
N  N186  1  0.62752966  0.21776115  0.45664365  1  -1.159382  0.080628  -0.625723  -0.61337  0.044583  3.416329  0.066
N  N187  1  0.36558642  0.20775999  0.19958298  1  -1.122431  0.077048  -0.625164  -0.606009  0.042397  3.430166  0.063
O  O188  1  0.05858885  0.51475363  0.85132532  1  -1.131875  0.112719  -0.300107  -0.533668  0.06318  2.55893  0.101
O  O189  1  0.05791455  0.39250643  0.83148056  1  -1.157031  0.066011  -0.292018  -0.5235  0.03572  2.359255  0.059
O  O190  1  0.74069920  0.41917585  0.96711659  1  -1.148317  0.072417  -0.300138  -0.532983  0.039363  2.309357  0.065
O  O191  1  0.85504529  0.51491164  0.94033542  1  -1.15656  0.109957  -0.302662  -0.573224  0.061231  2.513408  0.102
O  O192  1  0.04666061  0.67034066  0.82891745  1  -1.1399  0.107978  -0.300396  -0.545331  0.059938  2.502522  0.101
O  O193  1  0.21396761  0.63224701  0.88195206  1  -1.135097  0.071699  -0.298516  -0.525154  0.039188  2.318638  0.065
O  O194  1  0.12257786  0.69954756  0.67465993  1  -1.184794  0.06403  -0.337737  -0.578897  0.034519  2.271135  0.059
O  O195  1  0.29536467  0.70481401  0.61987961  1  -1.195674  0.015531  -0.362217  -0.581418  0.008112  2.038449  0.013
O  O196  1  0.27561458  0.47298719  0.89821480  1  -1.12938  0.199531  -0.564553  -0.882432  0.113368  2.437361  0.179
O  O197  1  0.55858882  0.48524614  0.14867459  1  -1.131871  0.112718  -0.300103  -0.533663  0.06318  2.558911  0.101
O  O198  1  0.55791455  0.60749389  0.16851934  1  -1.157025  0.066013  -0.292031  -0.523545  0.03572  2.359251  0.059
O  O199  1  0.24069833  0.58082393  0.03288277  1  -1.148479  0.072417  -0.300139  -0.532992  0.039363  2.309343  0.065
O  O200  1  0.35504525  0.48508870  0.05966394  1  -1.156553  0.109956  -0.302673  -0.573251  0.061231  2.513432  0.102
O  O201  1  0.54666055  0.32965910  0.17108081  1  -1.140019  0.107977  -0.300388  -0.545371  0.059937  2.502528  0.101
O  O202  1  0.71396842  0.36775222  0.11804675  1  -1.135108  0.0717  -0.298495  -0.525106  0.039188  2.31855  0.065
O  O203  1  0.62257695  0.30045221  0.32534052  1  -1.184836  0.064028  -0.337759  -0.578902  0.034517  2.271156  0.059
O  O204  1  0.79536462  0.29518742  0.38012030  1  -1.195669  0.015532  -0.362244  -0.581446  0.008112  2.038357  0.013
O  O205  1  0.77561542  0.52701260  0.10178566  1  -1.129377  0.199528  -0.564597  -0.882493  0.113365  2.437402  0.179
O  O206  1  0.80861065  0.64867268  0.01477104  1  -1.132476  0.112763  -0.300051  -0.533427  0.063203  2.558401  0.101
O  O207  1  0.80793640  0.66853004  0.89252579  1  -1.157064  0.066039  -0.292054  -0.523327  0.035734  2.359041  0.059
O  O208  1  0.49062862  0.53289715  0.91915143  1  -1.148129  0.072459  -0.300282  -0.533016  0.039383  2.309028  0.065
O  O209  1  0.60505082  0.55964557  0.01486805  1  -1.15615  0.109925  -0.302761  -0.573292  0.061206  2.513152  0.102
O  O210  1  0.79674487  0.67105287  0.17033406  1  -1.141787  0.107979  -0.300049  -0.545143  0.059931  2.502174  0.101
O  O211  1  0.96411006  0.61806618  0.13225175  1  -1.136461  0.07175  -0.298424  -0.525319  0.039208  2.318265  0.065
O  O212  1  0.87260652  0.82538616  0.19954837  1  -1.186004  0.064035  -0.33771  -0.579132  0.034525  2.270854  0.059
O  O213  1  0.04536937  0.88017938  0.20478705  1  -1.194511  0.015541  -0.362344  -0.581544  0.008118  2.038322  0.013
O  O214  1  0.02561930  0.60177056  0.97299407  1  -1.128967  0.199591  -0.564467  -0.882665  0.113405  2.437345  0.179
O  O215  1  0.30861066  0.35132765  0.98522832  1  -1.132441  0.112768  -0.300067  -0.533446  0.063206  2.558329  0.101
O  O216  1  0.30793634  0.33147029  0.10747357  1  -1.157083  0.066035  -0.292029  -0.523275  0.035732  2.359098  0.059
O  O217  1  0.99062858  0.46710210  0.08084793  1  -1.148182  0.07246  -0.300351  -0.533071  0.039383  2.309048  0.065
O  O218  1  0.10505084  0.44035420  0.98513186  1  -1.156151  0.109925  -0.302753  -0.573289  0.061207  2.513169  0.102
O  O219  1  0.29674486  0.32894747  0.82966585  1  -1.141829  0.107975  -0.300063  -0.54516  0.059929  2.502204  0.101
O  O220  1  0.46411006  0.38193361  0.86774871  1  -1.13645  0.071754  -0.298425  -0.525342  0.03921  2.318105  0.065
O  O221  1  0.37260733  0.17461363  0.80045154  1  -1.186099  0.064033  -0.337699  -0.5791  0.034524  2.270886  0.059
O  O222  1  0.54536933  0.11982039  0.79521230  1  -1.194434  0.015541  -0.362335  -0.58151  0.008118  2.038343  0.013
O  O223  1  0.52561926  0.39822976  0.02700528  1  -1.12897  0.199594  -0.564473  -0.882646  0.113407  2.437355  0.179
O  O224  1  0.69138951  0.98522929  0.35132715  1  -1.132425  0.112765  -0.300032  -0.533397  0.063204  2.558366  0.101
O  O225  1  0.69206371  0.10747412  0.33146979  1  -1.157088  0.066037  -0.292044  -0.523306  0.035733  2.359098  0.059
O  O226  1  0.00937149  0.08084846  0.46710158  1  -1.148213  0.072458  -0.300367  -0.53307  0.039382  2.309084  0.065
O  O227  1  0.89494934  0.98513229  0.44035428  1  -1.156131  0.109926  -0.302758  -0.57326  0.061207  2.513064  0.102
O  O228  1  0.70325529  0.82966575  0.32894752  1  -1.14169  0.107976  -0.300062  -0.545161  0.05993  2.502161  0.101
O  O229  1  0.53589096  0.86774804  0.38193366  1  -1.136431  0.071751  -0.29841  -0.525332  0.039209  2.318222  0.065
O  O230  1  0.62739365  0.80045144  0.17461365  1  -1.186064  0.064036  -0.337731  -0.579136  0.034525  2.27089  0.059
O  O231  1  0.45462993  0.79521164  0.11982094  1  -1.194482  0.015541  -0.362363  -0.581555  0.008118  2.038393  0.013
O  O232  1  0.47438166  0.02700584  0.39822926  1  -1.128969  0.199591  -0.564476  -0.882649  0.113406  2.437329  0.179
O  O233  1  0.19138943  0.01477104  0.64867275  1  -1.132454  0.112765  -0.30005  -0.533455  0.063205  2.558384  0.101
O  O234  1  0.19206294  0.89252620  0.66853067  1  -1.157077  0.066038  -0.29202  -0.523275  0.035733  2.359004  0.059
O  O235  1  0.50937157  0.91915186  0.53289722  1  -1.148115  0.072459  -0.30036  -0.53306  0.039383  2.308951  0.065
O  O236  1  0.39495011  0.01486860  0.55964619  1  -1.156157  0.109924  -0.302695  -0.573212  0.061205  2.513323  0.102
O  O237  1  0.20325524  0.17033403  0.67105294  1  -1.141775  0.10798  -0.300045  -0.545158  0.059932  2.502159  0.101
O  O238  1  0.03589004  0.13225227  0.61806679  1  -1.136464  0.071748  -0.298454  -0.52536  0.039207  2.318182  0.065
O  O239  1  0.12739361  0.19954834  0.82538626  1  -1.185993  0.064037  -0.337718  -0.579116  0.034525  2.270836  0.059
O  O240  1  0.95463076  0.20478651  0.88018007  1  -1.194442  0.015541  -0.36233  -0.581522  0.008118  2.038312  0.013
O  O241  1  0.97437918  0.97299451  0.60177066  1  -1.128997  0.199589  -0.564453  -0.882641  0.113404  2.437316  0.179
O  O242  1  0.94141133  0.85132522  0.51475317  1  -1.131857  0.112717  -0.300113  -0.533691  0.06318  2.558934  0.101
O  O243  1  0.94208560  0.83148047  0.39250540  1  -1.157039  0.066015  -0.29205  -0.523536  0.035721  2.359248  0.059
O  O244  1  0.25930012  0.96711644  0.41917589  1  -1.148468  0.072414  -0.300107  -0.532941  0.039361  2.309386  0.065
O  O245  1  0.14495490  0.94033582  0.51491169  1  -1.156595  0.109957  -0.302652  -0.573222  0.061232  2.513381  0.102
O  O246  1  0.95334044  0.82891790  0.67034023  1  -1.139907  0.107979  -0.300408  -0.545373  0.059938  2.502437  0.101
O  O247  1  0.78603258  0.88195195  0.63224766  1  -1.13505  0.071699  -0.29851  -0.525141  0.039188  2.318655  0.065
O  O248  1  0.87742232  0.67465986  0.69954768  1  -1.184806  0.064029  -0.337734  -0.57889  0.034518  2.271117  0.059
O  O249  1  0.70463550  0.61988009  0.70481357  1  -1.195668  0.015531  -0.362216  -0.581424  0.008112  2.038466  0.013
O  O250  1  0.72438559  0.89821468  0.47298726  1  -1.129385  0.199529  -0.564511  -0.882409  0.113366  2.437395  0.179
O  O251  1  0.44141126  0.14867567  0.48524565  1  -1.131977  0.112721  -0.300106  -0.533711  0.063181  2.559012  0.101
O  O252  1  0.44208469  0.16851988  0.60749397  1  -1.157014  0.066015  -0.29206  -0.523599  0.035722  2.359195  0.059
O  O253  1  0.75930004  0.03288334  0.58082402  1  -1.148321  0.072416  -0.300136  -0.53297  0.039362  2.309362  0.065
O  O254  1  0.64495396  0.05966450  0.48508877  1  -1.156565  0.109958  -0.302682  -0.573221  0.061232  2.513443  0.102
O  O255  1  0.45333951  0.17108189  0.32965969  1  -1.139878  0.107981  -0.300413  -0.54539  0.059939  2.502468  0.101
O  O256  1  0.28603165  0.11804839  0.36775225  1  -1.135095  0.071697  -0.298471  -0.525039  0.039186  2.318567  0.065
O  O257  1  0.37742227  0.32534048  0.30045169  1  -1.184797  0.064029  -0.337735  -0.578894  0.034518  2.271144  0.059
O  O258  1  0.20463461  0.38012024  0.29518634  1  -1.195685  0.015531  -0.362232  -0.581428  0.008112  2.038467  0.013
O  O259  1  0.22438466  0.10178620  0.52701265  1  -1.129211  0.199527  -0.564576  -0.882456  0.113366  2.437429  0.179
