# generated using pymatgen
data_CdH19C23(NO2)3
_symmetry_space_group_name_H-M   'P 1'
_cell_length_a   10.02782787
_cell_length_b   10.36332022
_cell_length_c   13.64800000
_cell_angle_alpha   100.96543887
_cell_angle_beta   92.78528647
_cell_angle_gamma   113.17256306
_symmetry_Int_Tables_number   1
_chemical_formula_structural   CdH19C23(NO2)3
_chemical_formula_sum   'Cd2 H38 C46 N6 O12'
_cell_volume   1268.06079903
_cell_formula_units_Z   2
loop_
 _symmetry_equiv_pos_site_id
 _symmetry_equiv_pos_as_xyz
  1  'x, y, z'
loop_
 _atom_site_type_symbol
 _atom_site_label
 _atom_site_symmetry_multiplicity
 _atom_site_fract_x
 _atom_site_fract_y
 _atom_site_fract_z
 _atom_site_occupancy
 _atom_site_hle17_bader_spin_density
 _atom_site_hle17_ddec_charge
 _atom_site_hle17_ddec_spin_density
 _atom_site_hle17_ddec_sum_bond_order
 _atom_site_hle17_magmom
 _atom_site_hse06_10hf_bader_spin_density
 _atom_site_hse06_10hf_ddec_charge
 _atom_site_hse06_10hf_ddec_spin_density
 _atom_site_hse06_10hf_ddec_sum_bond_order
 _atom_site_hse06_10hf_magmom
 _atom_site_hse06_bader_spin_density
 _atom_site_hse06_ddec_charge
 _atom_site_hse06_ddec_spin_density
 _atom_site_hse06_ddec_sum_bond_order
 _atom_site_hse06_magmom
 _atom_site_pbe_bader_charge
 _atom_site_pbe_bader_spin_density
 _atom_site_pbe_cm5_charge
 _atom_site_pbe_ddec_charge
 _atom_site_pbe_ddec_spin_density
 _atom_site_pbe_ddec_sum_bond_order
 _atom_site_pbe_magmom
Cd  Cd0  1  0.55537587  0.65282186  0.91533116  1  0  1.186692  0  1.679671  0  0  1.004454  0  2.139225  0  0  1.063845  0  2.079833  0  1.319282  0  0.774626  0.959102  0  2.181874  0
Cd  Cd1  1  0.44462665  0.34717932  0.08467005  1  0  1.186727  0  1.679629  0  0  1.004499  0  2.139175  0  0  1.06389  0  2.079782  0  1.319344  0  0.774648  0.959146  0  2.181826  0
H  H2  1  0.48581846  0.89219811  0.08918615  1  0  0.126406  0  0.958377  0  0  0.131947  0  1.028461  0  0  0.136406  0  1.024641  0  0.157208  0  0.107043  0.128756  0  1.031268  0
H  H3  1  0.51418061  0.10780199  0.91081552  1  0  0.126364  0  0.958395  0  0  0.131908  0  1.028476  0  0  0.136368  0  1.024656  0  0.157215  0  0.107023  0.128718  0  1.031283  0
H  H4  1  0.33914787  0.07972525  0.34736022  1  0  0.135097  0  0.969368  0  0  0.139516  0  1.03476  0  0  0.145157  0  1.028934  0  0.171615  0  0.108783  0.135449  0  1.038929  0
H  H5  1  0.66085175  0.92027378  0.65263984  1  0  0.135084  0  0.969368  0  0  0.139506  0  1.034756  0  0  0.145147  0  1.028932  0  0.171626  0  0.108772  0.13544  0  1.038925  0
H  H6  1  0.39015048  0.68157129  0.33650139  1  0  0.116314  0  0.930635  0  0  0.127566  0  0.987049  0  0  0.132052  0  0.983438  0  0.095607  0  0.110224  0.124391  0  0.989469  0
H  H7  1  0.60984959  0.31842881  0.66349811  1  0  0.116334  0  0.930587  0  0  0.127584  0  0.987002  0  0  0.132069  0  0.983392  0  0.095606  0  0.110238  0.124403  0  0.98943  0
H  H8  1  0.02438494  0.98676323  0.58186233  1  0  0.111635  0  0.974471  0  0  0.116602  0  1.041912  0  0  0.120744  0  1.038134  0  0.136076  0  0.10545  0.113547  0  1.044686  0
H  H9  1  0.97561613  0.01323687  0.41813721  1  0  0.111642  0  0.974472  0  0  0.116611  0  1.04191  0  0  0.120752  0  1.038133  0  0.136085  0  0.105454  0.113555  0  1.044684  0
H  H10  1  0.93518789  0.94182965  0.74216890  1  0  0.098091  0  0.952299  0  0  0.108002  0  1.015248  0  0  0.11081  0  1.01443  0  0.082222  0  0.104135  0.105945  0  1.016127  0
H  H11  1  0.06481308  0.05817261  0.25783095  1  0  0.098102  0  0.952297  0  0  0.108011  0  1.015254  0  0  0.11082  0  1.014433  0  0.082304  0  0.104119  0.105953  0  1.016133  0
H  H12  1  0.26499626  0.78505478  0.80000292  1  0  0.099471  0  0.959745  0  0  0.108927  0  1.023273  0  0  0.111547  0  1.022702  0  0.08357  0  0.101976  0.107199  0  1.023549  0
H  H13  1  0.73500336  0.21494425  0.19999641  1  0  0.099543  0  0.959689  0  0  0.108977  0  1.023235  0  0  0.111597  0  1.022664  0  0.083405  0  0.102005  0.107249  0  1.023511  0
H  H14  1  0.34849902  0.82221268  0.63800396  1  0  0.087979  0  0.964345  0  0  0.100168  0  1.023791  0  0  0.10274  0  1.022486  0  0.062813  0  0.10152  0.098226  0  1.024883  0
H  H15  1  0.65149915  0.17778527  0.36199516  1  0  0.087961  0  0.96436  0  0  0.100151  0  1.023807  0  0  0.102722  0  1.022503  0  0.062956  0  0.10152  0.098209  0  1.024899  0
H  H16  1  0.81144593  0.75075468  0.80640912  1  0  0.095284  0  0.956691  0  0  0.103225  0  1.020049  0  0  0.106404  0  1.016788  0  0.154855  0  0.119133  0.100747  0  1.022663  0
H  H17  1  0.18855314  0.24924542  0.19358962  1  0  0.095221  0  0.956681  0  0  0.103162  0  1.020059  0  0  0.106341  0  1.016798  0  0.154885  0  0.119104  0.100684  0  1.022673  0
H  H18  1  0.84065892  0.77276547  0.11224619  1  0  0.091267  0  0.926698  0  0  0.100294  0  0.986958  0  0  0.10307  0  0.984981  0  0.135034  0  0.11829  0.098179  0  0.988442  0
H  H19  1  0.15934115  0.22723463  0.88775258  1  0  0.09127  0  0.926747  0  0  0.100292  0  0.987011  0  0  0.103068  0  0.985032  0  0.134998  0  0.118297  0.098177  0  0.988493  0
H  H20  1  0.11684231  0.86890664  0.12939493  1  0  0.097313  0  0.964647  0  0  0.107336  0  1.026545  0  0  0.109644  0  1.027303  0  0.08579  0  0.103587  0.105411  0  1.026613  0
H  H21  1  0.88315721  0.13109454  0.87060471  1  0  0.097312  0  0.964621  0  0  0.107318  0  1.026544  0  0  0.109628  0  1.027301  0  0.085775  0  0.103583  0.105392  0  1.026614  0
H  H22  1  0.24167226  0.91222968  0.97720703  1  0  0.121524  0  0.933044  0  0  0.132081  0  0.992529  0  0  0.135076  0  0.99076  0  0.142109  0  0.114249  0.129982  0  0.993512  0
H  H23  1  0.75832726  0.08777151  0.02279334  1  0  0.121579  0  0.933026  0  0  0.132114  0  0.992526  0  0  0.135109  0  0.990758  0  0.14205  0  0.114262  0.130014  0  0.993511  0
H  H24  1  0.32848231  0.79496815  0.48117583  1  0  0.289075  0  0.880768  0  0  0.282162  0  0.927977  0  0  0.288462  0  0.923756  0  0.453126  0  0.323066  0.277684  0  0.931033  0
H  H25  1  0.67151776  0.20503195  0.51882441  1  0  0.289057  0  0.880784  0  0  0.282146  0  0.927999  0  0  0.288444  0  0.923778  0  0.453129  0  0.323056  0.277668  0  0.931055  0
H  H26  1  0.15215498  0.39963309  0.68982860  1  0  0.126722  0  0.921677  0  0  0.14698  0  0.976693  0  0  0.148896  0  0.975352  0  0.113231  0  0.120366  0.145465  0  0.977834  0
H  H27  1  0.84784509  0.60036702  0.31017237  1  0  0.126778  0  0.921632  0  0  0.147008  0  0.976678  0  0  0.148924  0  0.975338  0  0.113231  0  0.120373  0.145493  0  0.977819  0
H  H28  1  0.97220545  0.27338851  0.70009715  1  0  0.101237  0  0.929081  0  0  0.123197  0  0.988319  0  0  0.123059  0  0.989512  0  0.060485  0  0.105585  0.123175  0  0.987489  0
H  H29  1  0.02779417  0.72661051  0.29990438  1  0  0.10126  0  0.929087  0  0  0.123224  0  0.988311  0  0  0.123086  0  0.989505  0  0.060499  0  0.105593  0.123203  0  0.987482  0
H  H30  1  0.99481167  0.43395798  0.65967091  1  0  0.096278  0  0.919575  0  0  0.117698  0  0.978613  0  0  0.11808  0  0.978936  0  0.049024  0  0.105868  0.117325  0  0.978398  0
H  H31  1  0.00518984  0.56604320  0.34033100  1  0  0.096323  0  0.919563  0  0  0.117732  0  0.978603  0  0  0.118116  0  0.978925  0  0.049008  0  0.105876  0.11736  0  0.978388  0
H  H32  1  0.19041171  0.58795158  0.94702380  1  0  0.033517  0  0.92555  0  0  0.047615  0  0.990657  0  0  0.048856  0  0.986916  0  0.09353  0  0.119979  0.046546  0  0.993289  0
H  H33  1  0.80958881  0.41204960  0.05297734  1  0  0.03353  0  0.925552  0  0  0.047643  0  0.990644  0  0  0.048884  0  0.986904  0  0.093553  0  0.119991  0.046561  0  0.993291  0
H  H34  1  0.96000476  0.53766569  0.92905220  1  0  0.08855  0  0.972792  0  0  0.105818  0  1.046394  0  0  0.105586  0  1.048122  0  0.039756  0  0.101622  0.105783  0  1.04537  0
H  H35  1  0.03999730  0.46233441  0.07094957  1  0  0.088528  0  0.972769  0  0  0.105823  0  1.046348  0  0  0.105596  0  1.048068  0  0.039802  0  0.101629  0.105782  0  1.04533  0
H  H36  1  0.87032140  0.50503435  0.80553984  1  0  0.111297  0  0.93981  0  0  0.128764  0  1.003618  0  0  0.129738  0  1.003468  0  0.08614  0  0.105511  0.127969  0  1.00365  0
H  H37  1  0.12967758  0.49496790  0.19446067  1  0  0.111296  0  0.939817  0  0  0.128768  0  1.003618  0  0  0.129742  0  1.003468  0  0.086163  0  0.105517  0.127974  0  1.003649  0
H  H38  1  0.85542667  0.35658064  0.85808662  1  0  0.089619  0  0.962997  0  0  0.106194  0  1.035312  0  0  0.105609  0  1.03764  0  0.050625  0  0.096252  0.106143  0  1.034229  0
H  H39  1  0.14457575  0.64342270  0.14191710  1  0  0.089664  0  0.962932  0  0  0.106211  0  1.035301  0  0  0.105625  0  1.037632  0  0.050697  0  0.096256  0.106159  0  1.034221  0
C  C40  1  0.42614918  0.12338785  0.17065781  1  0  0.609808  0  3.956317  0  0  0.563808  0  4.244573  0  0  0.596889  0  4.241498  0  1.543829  0  0.183856  0.541371  0  4.245644  0
C  C41  1  0.57384944  0.87661117  0.82934295  1  0  0.609908  0  3.956278  0  0  0.563909  0  4.244521  0  0  0.596994  0  4.241445  0  1.543837  0  0.183948  0.541472  0  4.245592  0
C  C42  1  0.46742526  0.65002874  0.15160732  1  0  0.66495  0  3.914057  0  0  0.616581  0  4.197072  0  0  0.652374  0  4.18896  0  1.574869  0  0.207536  0.592084  0  4.20172  0
C  C43  1  0.53257481  0.34997136  0.84839292  1  0  0.664934  0  3.913973  0  0  0.616573  0  4.196982  0  0  0.652366  0  4.188867  0  1.574873  0  0.207513  0.592077  0  4.201629  0
C  C44  1  0.44054965  0.77482663  0.20816984  1  0  -0.049354  0  3.778577  0  0  -0.020785  0  4.008536  0  0  -0.028378  0  4.031663  0  -0.002185  0  -0.019191  -0.015973  0  3.99334  0
C  C45  1  0.55945042  0.22517347  0.79182967  1  0  -0.049458  0  3.778545  0  0  -0.020907  0  4.00854  0  0  -0.028498  0  4.031661  0  -0.002195  0  -0.019231  -0.016095  0  3.993341  0
C  C46  1  0.45018489  0.88824828  0.16318747  1  0  -0.097217  0  3.688296  0  0  -0.135779  0  3.937627  0  0  -0.135095  0  3.95716  0  -0.009296  0  -0.085154  -0.136382  0  3.925516  0
C  C47  1  0.54981518  0.11175182  0.83681350  1  0  -0.097152  0  3.688264  0  0  -0.135717  0  3.937592  0  0  -0.135029  0  3.957129  0  -0.009303  0  -0.085148  -0.136319  0  3.925479  0
C  C48  1  0.41312516  0.99706900  0.21450102  1  0  -0.048145  0  3.788844  0  0  -0.021204  0  4.024276  0  0  -0.028875  0  4.047878  0  -0.055288  0  -0.021218  -0.016369  0  4.00895  0
C  C49  1  0.58687491  0.00293111  0.78549922  1  0  -0.048212  0  3.788777  0  0  -0.021257  0  4.024201  0  0  -0.028942  0  4.047822  0  -0.055246  0  -0.02125  -0.016422  0  4.008875  0
C  C50  1  0.36750128  0.99386515  0.30965287  1  0  -0.17563  0  3.683961  0  0  -0.213519  0  3.942908  0  0  -0.214041  0  3.958192  0  -0.031555  0  -0.094494  -0.212337  0  3.932398  0
C  C51  1  0.63249934  0.00613387  0.69034650  1  0  -0.175586  0  3.68392  0  0  -0.213476  0  3.942858  0  0  -0.213993  0  3.958145  0  -0.031582  0  -0.094449  -0.212293  0  3.932347  0
C  C52  1  0.36005564  0.88113773  0.35532951  1  0  0.241968  0  3.81641  0  0  0.238241  0  4.078424  0  0  0.244214  0  4.100311  0  0.33524  0  0.090264  0.233896  0  4.063235  0
C  C53  1  0.63994543  0.11886237  0.64467076  1  0  0.241981  0  3.816424  0  0  0.238259  0  4.078443  0  0  0.244229  0  4.100329  0  0.335234  0  0.090269  0.233913  0  4.063254  0
C  C54  1  0.39715667  0.77200440  0.30388436  1  0  -0.166749  0  3.695579  0  0  -0.200171  0  3.947072  0  0  -0.200981  0  3.964329  0  -0.117154  0  -0.087395  -0.198659  0  3.934783  0
C  C55  1  0.60284295  0.22799462  0.69611497  1  0  -0.16668  0  3.695438  0  0  -0.20009  0  3.94692  0  0  -0.200899  0  3.964175  0  -0.117152  0  -0.08736  -0.198572  0  3.934634  0
C  C56  1  0.23805424  0.94292383  0.50032717  1  0  0.533924  0  3.840783  0  0  0.489291  0  4.129789  0  0  0.51827  0  4.129248  0  1.369841  0  0.237853  0.469729  0  4.129594  0
C  C57  1  0.76194538  0.05707519  0.49967216  1  0  0.533786  0  3.840956  0  0  0.489185  0  4.129914  0  0  0.518162  0  4.129371  0  1.369873  0  0.237856  0.469623  0  4.129718  0
C  C58  1  0.19166677  0.90740666  0.59778408  1  0  -0.074377  0  3.796613  0  0  -0.053606  0  4.032777  0  0  -0.061807  0  4.057905  0  -0.050651  0  -0.020713  -0.048405  0  4.016028  0
C  C59  1  0.80833184  0.09259236  0.40221448  1  0  -0.074339  0  3.796602  0  0  -0.053572  0  4.032758  0  0  -0.061775  0  4.057888  0  -0.050548  0  -0.020735  -0.048372  0  4.016009  0
C  C60  1  0.07648118  0.94215737  0.62960157  1  0  -0.05401  0  3.731255  0  0  -0.076165  0  3.972628  0  0  -0.075142  0  3.991728  0  -0.026263  0  -0.079636  -0.076573  0  3.959645  0
C  C61  1  0.92351934  0.05784382  0.37039884  1  0  -0.054032  0  3.731283  0  0  -0.076185  0  3.972653  0  0  -0.075161  0  3.991753  0  -0.026338  0  -0.079638  -0.076594  0  3.95967  0
C  C62  1  0.02678314  0.91672497  0.71990920  1  0  -0.111509  0  3.732774  0  0  -0.128301  0  3.97677  0  0  -0.132826  0  3.998171  0  -0.066428  0  -0.086388  -0.125269  0  3.96216  0
C  C63  1  0.97321783  0.08327729  0.28009065  1  0  -0.111479  0  3.732734  0  0  -0.128276  0  3.976725  0  0  -0.132801  0  3.998126  0  -0.066491  0  -0.086337  -0.125244  0  3.962115  0
C  C64  1  0.09396059  0.86054453  0.78310874  1  0  0.060982  0  3.789232  0  0  0.07346  0  4.019669  0  0  0.075265  0  4.044416  0  -0.067  0  -0.003551  0.072695  0  4.002907  0
C  C65  1  0.90603703  0.13945450  0.21689052  1  0  0.060882  0  3.789264  0  0  0.073379  0  4.019703  0  0  0.075183  0  4.044448  0  -0.066998  0  -0.003616  0.072616  0  4.00294  0
C  C66  1  0.21023458  0.82724914  0.75184365  1  0  -0.101949  0  3.714536  0  0  -0.119012  0  3.961598  0  0  -0.123371  0  3.983526  0  -0.032268  0  -0.086816  -0.116069  0  3.946398  0
C  C67  1  0.78976404  0.17274989  0.24815491  1  0  -0.102005  0  3.714541  0  0  -0.119054  0  3.961608  0  0  -0.123412  0  3.983536  0  -0.032102  0  -0.086852  -0.116111  0  3.946409  0
C  C68  1  0.25673515  0.84790595  0.65911060  1  0  -0.084283  0  3.764962  0  0  -0.109122  0  4.016518  0  0  -0.108884  0  4.038624  0  0.002956  0  -0.089901  -0.109081  0  4.001564  0
C  C69  1  0.74326392  0.15209416  0.34088886  1  0  -0.084243  0  3.764869  0  0  -0.109078  0  4.016417  0  0  -0.108841  0  4.038525  0  0.002765  0  -0.089874  -0.109036  0  4.001462  0
C  C70  1  0.03607013  0.83531911  0.87823143  1  0  0.003333  0  3.781693  0  0  0.022428  0  4.015323  0  0  0.017622  0  4.039771  0  0.038377  0  -0.002319  0.024773  0  3.99968  0
C  C71  1  0.96392939  0.16468207  0.12176747  1  0  0.003355  0  3.781699  0  0  0.022412  0  4.015369  0  0  0.01761  0  4.03981  0  0.038323  0  -0.002316  0.024756  0  3.999726  0
C  C72  1  0.88371610  0.77930576  0.87673138  1  0  0.073011  0  3.69605  0  0  0.036949  0  3.945373  0  0  0.043687  0  3.962365  0  0.423131  0  0.046382  0.032894  0  3.933824  0
C  C73  1  0.11628197  0.22069435  0.12326732  1  0  0.073091  0  3.695976  0  0  0.037041  0  3.945322  0  0  0.043768  0  3.962335  0  0.423132  0  0.046418  0.032986  0  3.933773  0
C  C74  1  0.89992203  0.78959320  0.04757079  1  0  0.115028  0  3.70975  0  0  0.082783  0  3.96678  0  0  0.089606  0  3.985316  0  0.518075  0  0.041715  0.078583  0  3.954027  0
C  C75  1  0.10007759  0.21040583  0.95242707  1  0  0.11496  0  3.709677  0  0  0.082725  0  3.966703  0  0  0.08955  0  3.985235  0  0.5181  0  0.041693  0.078525  0  3.95395  0
C  C76  1  0.05235983  0.84274659  0.05608236  1  0  -0.127796  0  3.754552  0  0  -0.139737  0  4.013312  0  0  -0.146775  0  4.036004  0  -0.160292  0  -0.090317  -0.135578  0  3.998921  0
C  C77  1  0.94763969  0.15725459  0.94391729  1  0  -0.127688  0  3.754516  0  0  -0.13962  0  4.013262  0  0  -0.14666  0  4.035957  0  -0.160318  0  -0.09028  -0.135461  0  3.998871  0
C  C78  1  0.12213973  0.86612322  0.97084895  1  0  -0.054819  0  3.660965  0  0  -0.080347  0  3.908508  0  0  -0.077932  0  3.926756  0  -0.037227  0  -0.064645  -0.081596  0  3.896337  0
C  C79  1  0.87785969  0.13388011  0.02914953  1  0  -0.054956  0  3.661043  0  0  -0.080445  0  3.908594  0  0  -0.078032  0  3.926842  0  -0.037118  0  -0.064691  -0.081693  0  3.89642  0
C  C80  1  0.04423320  0.38823422  0.70964696  1  0  -0.162653  0  3.642713  0  0  -0.260314  0  3.882902  0  0  -0.256624  0  3.892864  0  0.256886  0  -0.127857  -0.262455  0  3.876027  0
C  C81  1  0.95576687  0.61176588  0.29035547  1  0  -0.162757  0  3.642677  0  0  -0.260402  0  3.882867  0  0  -0.256708  0  3.892812  0  0.25686  0  -0.127882  -0.262544  0  3.875992  0
C  C82  1  0.19277076  0.53085699  0.87037595  1  0  0.388196  0  3.843362  0  0  0.312044  0  4.134893  0  0  0.340446  0  4.13605  0  1.366121  0  0.172919  0.293098  0  4.13357  0
C  C83  1  0.80723076  0.46914420  0.12962523  1  0  0.388231  0  3.843387  0  0  0.312055  0  4.134916  0  0  0.340457  0  4.136076  0  1.366132  0  0.17293  0.293119  0  4.133592  0
C  C84  1  0.92981269  0.46601366  0.85374167  1  0  -0.183096  0  3.684225  0  0  -0.289936  0  3.945074  0  0  -0.286847  0  3.957669  0  0.284344  0  -0.138166  -0.291556  0  3.936672  0
C  C85  1  0.07018872  0.53398968  0.14625835  1  0  -0.183062  0  3.68416  0  0  -0.289922  0  3.944988  0  0  -0.286834  0  3.957587  0  0.284221  0  -0.138174  -0.291533  0  3.936589  0
N  N86  1  0.31494232  0.87189704  0.45080071  1  0  -0.447809  0  3.348566  0  0  -0.399304  0  3.591456  0  0  -0.420338  0  3.600181  0  -1.239157  0  -0.399588  -0.3847  0  3.585021  0
N  N87  1  0.68505730  0.12810198  0.54919862  1  0  -0.447744  0  3.348534  0  0  -0.399281  0  3.591457  0  0  -0.420306  0  3.600174  0  -1.239146  0  -0.399584  -0.384677  0  3.585021  0
N  N88  1  0.81717539  0.75734671  0.95847877  1  0  -0.326162  0  3.263433  0  0  -0.251519  0  3.527977  0  0  -0.271266  0  3.547839  0  -1.242836  0  -0.325386  -0.237906  0  3.51376  0
N  N89  1  0.18282568  0.24265339  0.04152151  1  0  -0.326135  0  3.263267  0  0  -0.251502  0  3.527829  0  0  -0.271247  0  3.547687  0  -1.242813  0  -0.325372  -0.23789  0  3.513613  0
N  N90  1  0.06098108  0.46523318  0.81356309  1  0  -0.094935  0  3.515104  0  0  0.009471  0  3.750549  0  0  -0.011087  0  3.77645  0  -1.205976  0  -0.283992  0.022937  0  3.732852  0
N  N91  1  0.93902044  0.53476800  0.18643882  1  0  -0.09503  0  3.51508  0  0  0.009407  0  3.750493  0  0  -0.011153  0  3.776395  0  -1.205998  0  -0.284008  0.022874  0  3.732789  0
O  O92  1  0.39868594  0.22321258  0.22296950  1  0  -0.629506  0  1.927147  0  0  -0.572749  0  2.150223  0  0  -0.599216  0  2.140432  0  -1.158886  0  -0.336057  -0.553188  0  2.156994  0
O  O93  1  0.60131213  0.77678753  0.77703213  1  0  -0.629575  0  1.92718  0  0  -0.572821  0  2.150258  0  0  -0.599289  0  2.140465  0  -1.158862  0  -0.336105  -0.553261  0  2.15703  0
O  O94  1  0.46508616  0.12604945  0.08278488  1  0  -0.646961  0  1.948055  0  0  -0.588678  0  2.192837  0  0  -0.617587  0  2.183202  0  -1.162009  0  -0.334871  -0.567282  0  2.197662  0
O  O95  1  0.53491291  0.87395065  0.91721606  1  0  -0.646956  0  1.948059  0  0  -0.58868  0  2.192843  0  0  -0.617588  0  2.183207  0  -1.162052  0  -0.33488  -0.567284  0  2.19767  0
O  O96  1  0.54801400  0.66907177  0.08201462  1  0  -0.686733  0  2.072715  0  0  -0.620518  0  2.338768  0  0  -0.649157  0  2.322682  0  -1.199498  0  -0.343809  -0.59931  0  2.348538  0
O  O97  1  0.45198707  0.33092833  0.91798566  1  0  -0.686699  0  2.072615  0  0  -0.620482  0  2.338648  0  0  -0.649128  0  2.322579  0  -1.199552  0  -0.34379  -0.599276  0  2.348419  0
O  O98  1  0.40496376  0.53089795  0.17761285  1  0  -0.626659  0  2.006173  0  0  -0.560721  0  2.247453  0  0  -0.590151  0  2.236031  0  -1.147954  0  -0.321774  -0.53939  0  2.255283  0
O  O99  1  0.59503731  0.46910215  0.82238669  1  0  -0.626668  0  2.006163  0  0  -0.560726  0  2.247437  0  0  -0.590156  0  2.236016  0  -1.14796  0  -0.321778  -0.539397  0  2.25527  0
O  O100  1  0.20541726  0.03057773  0.46591984  1  0  -0.520608  0  1.928842  0  0  -0.477297  0  2.137111  0  0  -0.497366  0  2.131021  0  -1.126124  0  -0.284267  -0.463377  0  2.140894  0
O  O101  1  0.79458480  0.96942237  0.53407900  1  0  -0.520557  0  1.928996  0  0  -0.477249  0  2.137245  0  0  -0.497319  0  2.131155  0  -1.126159  0  -0.284273  -0.463329  0  2.141028  0
O  O102  1  0.30809626  0.52963129  0.84074818  1  0  -0.52364  0  2.093543  0  0  -0.464845  0  2.350282  0  0  -0.490432  0  2.341087  0  -1.147747  0  -0.300296  -0.447654  0  2.356789  0
O  O103  1  0.69190480  0.47036881  0.15925282  1  0  -0.52366  0  2.093542  0  0  -0.464864  0  2.350286  0  0  -0.490451  0  2.341092  0  -1.147726  0  -0.300309  -0.447672  0  2.356788  0
