# generated using pymatgen
data_CuH16C20(N3O2)2
_symmetry_space_group_name_H-M   'P 1'
_cell_length_a   7.95042830
_cell_length_b   11.40414726
_cell_length_c   11.40421501
_cell_angle_alpha   87.41543901
_cell_angle_beta   70.66365497
_cell_angle_gamma   70.66630673
_symmetry_Int_Tables_number   1
_chemical_formula_structural   CuH16C20(N3O2)2
_chemical_formula_sum   'Cu2 H32 C40 N12 O8'
_cell_volume   918.22679179
_cell_formula_units_Z   2
loop_
 _symmetry_equiv_pos_site_id
 _symmetry_equiv_pos_as_xyz
  1  'x, y, z'
loop_
 _atom_site_type_symbol
 _atom_site_label
 _atom_site_symmetry_multiplicity
 _atom_site_fract_x
 _atom_site_fract_y
 _atom_site_fract_z
 _atom_site_occupancy
 _atom_site_hle17_ddec_charge
 _atom_site_hle17_ddec_spin_density
 _atom_site_hle17_ddec_sum_bond_order
 _atom_site_hle17_magmom
 _atom_site_hse06_10hf_ddec_charge
 _atom_site_hse06_10hf_ddec_spin_density
 _atom_site_hse06_10hf_ddec_sum_bond_order
 _atom_site_hse06_10hf_magmom
 _atom_site_hse06_ddec_charge
 _atom_site_hse06_ddec_spin_density
 _atom_site_hse06_ddec_sum_bond_order
 _atom_site_hse06_magmom
 _atom_site_pbe_cm5_charge
 _atom_site_pbe_ddec_charge
 _atom_site_pbe_ddec_spin_density
 _atom_site_pbe_ddec_sum_bond_order
 _atom_site_pbe_magmom
Cu  Cu0  1  0.44237400  0.88824302  0.14884988  1  0.838356  -0.718377  1.844588  -0.505  0.820743  -0.809005  2.243368  -0.625  0.911562  -0.884516  2.172766  -0.713  0.761569  0.76384  -0.753788  2.294285  -0.567
Cu  Cu1  1  0.94237738  0.14884558  0.88824846  1  0.838479  0.718384  1.844603  0.505  0.820844  0.808999  2.2434  0.625  0.911585  0.884514  2.172924  0.713  0.76161  0.763934  0.753784  2.294356  0.567
H  H2  1  0.48239125  0.34672009  0.34287001  1  0.147854  -3.3e-05  0.933916  0.0  0.170416  -2.6e-05  0.98904  0.0  0.173133  -3.4e-05  0.987371  0.0  0.108865  0.16837  -2.3e-05  0.990387  0.0
H  H3  1  0.98239342  0.34287413  0.34672463  1  0.147817  3.5e-05  0.933974  0.0  0.170384  2.6e-05  0.989095  0.0  0.173053  3.4e-05  0.987502  0.0  0.108863  0.168337  2.3e-05  0.990444  0.0
H  H4  1  0.68771218  0.26312061  0.22132605  1  0.138872  -0.000178  0.960861  0.0  0.156096  -0.000161  1.021777  0.0  0.157914  -8.3e-05  1.022023  0.0  0.101795  0.15469  -0.000256  1.021777  0.0
H  H5  1  0.18771411  0.22133345  0.26311911  1  0.138899  0.00018  0.960841  0.0  0.156131  0.000161  1.021741  0.0  0.15792  8.3e-05  1.02202  0.0  0.101771  0.154726  0.000256  1.021739  0.0
H  H6  1  0.68215494  0.24941973  0.38001398  1  0.131233  -0.000205  0.943604  0.0  0.15153  -0.000145  1.004125  0.0  0.153648  -0.000101  1.003207  0.0  0.103726  0.149979  -0.000183  1.004848  0.0
H  H7  1  0.18215629  0.38002360  0.24942166  1  0.131229  0.000207  0.943668  0.0  0.151532  0.000145  1.004167  0.0  0.153611  0.000101  1.003296  0.0  0.103728  0.149977  0.000183  1.004891  0.0
H  H8  1  0.32206807  0.31801888  0.54494607  1  0.103314  3e-06  0.968084  0.0  0.115011  -8e-06  1.028574  0.0  0.117637  -5e-06  1.027999  0.0  0.109343  0.113176  -1.1e-05  1.028972  0.0
H  H9  1  0.82207795  0.54494547  0.31802304  1  0.103296  -0.0  0.968065  0.0  0.114991  8e-06  1.028553  0.0  0.117571  5e-06  1.028019  0.0  0.109354  0.113155  1.1e-05  1.028952  0.0
H  H10  1  0.30179526  0.36416670  0.75859910  1  0.08634  -4.3e-05  0.957513  0.0  0.097054  -4e-05  1.018693  0.0  0.099503  -2.4e-05  1.018583  0.0  0.100029  0.09535  -5.5e-05  1.018866  0.0
H  H11  1  0.80179835  0.75860117  0.36416580  1  0.086292  4.2e-05  0.957491  0.0  0.097031  4e-05  1.018639  0.0  0.099477  2.4e-05  1.018534  0.0  0.100012  0.095326  5.4e-05  1.018817  0.0
H  H12  1  0.41772367  0.18991425  0.88634928  1  0.100835  1.8e-05  0.952233  0.0  0.111813  -1.4e-05  1.011257  0.0  0.115027  -4e-06  1.01041  0.0  0.101839  0.109451  -2.8e-05  1.012067  0.0
H  H13  1  0.91772213  0.88635365  0.18990566  1  0.10079  -1.6e-05  0.952205  0.0  0.111792  1.4e-05  1.011203  0.0  0.114984  4e-06  1.01037  0.0  0.101837  0.109432  2.8e-05  1.012016  0.0
H  H14  1  0.53272192  0.97162431  0.80138827  1  0.104979  -1.8e-05  0.958876  0.0  0.10825  -3.1e-05  1.031062  0.0  0.112249  -8e-06  1.028335  0.0  0.103646  0.105393  -5.3e-05  1.033157  0.0
H  H15  1  0.03273570  0.80139160  0.97161587  1  0.104917  1.2e-05  0.958775  0.0  0.108155  3e-05  1.031006  0.0  0.112124  8e-06  1.028319  0.0  0.103612  0.105294  5.4e-05  1.033101  0.0
H  H16  1  0.55798259  0.92480354  0.58280328  1  0.102417  -1.5e-05  0.965987  0.0  0.111347  -4e-06  1.031698  0.0  0.114396  -1e-06  1.030419  0.0  0.106892  0.109257  -8e-06  1.032544  0.0
H  H17  1  0.05800026  0.58280822  0.92478961  1  0.10236  1.8e-05  0.966001  0.0  0.111318  4e-06  1.031703  0.0  0.114317  1e-06  1.030468  0.0  0.106869  0.109226  8e-06  1.032549  0.0
H  H18  1  0.60236921  0.38759280  0.92699788  1  0.145536  -0.000219  0.946528  0.0  0.161236  -0.000163  1.013506  0.0  0.163039  -0.000163  1.012497  0.0  0.105074  0.159682  -0.000156  1.014644  0.0
H  H19  1  0.10235899  0.92700084  0.38759691  1  0.14556  0.000227  0.946592  0.0  0.161235  0.000163  1.013601  0.0  0.163041  0.000163  1.012573  0.0  0.105045  0.159691  0.000156  1.014729  0.0
H  H20  1  0.36802439  0.44438517  0.92401161  1  0.117082  -0.000171  0.956325  0.0  0.135087  -0.000137  1.022434  0.0  0.136299  -9.5e-05  1.022533  0.0  0.095898  0.134247  -0.000178  1.022354  0.0
H  H21  1  0.86800845  0.92400233  0.44440458  1  0.117149  0.000174  0.956069  0.0  0.135084  0.000137  1.022274  0.0  0.136308  9.5e-05  1.022348  0.0  0.09592  0.134242  0.000178  1.022197  0.0
H  H22  1  0.41249500  0.43383465  0.06921798  1  0.139998  -0.000199  0.943495  0.0  0.157835  -0.000197  1.004324  0.0  0.160404  -9.5e-05  1.003301  0.0  0.101256  0.155895  -0.000327  1.005145  0.0
H  H23  1  0.91247852  0.06921586  0.43384516  1  0.140024  0.000205  0.943499  0.0  0.15788  0.000196  1.00428  0.0  0.160459  9.5e-05  1.003236  0.0  0.101282  0.15594  0.000327  1.005104  0.0
H  H24  1  0.62310572  0.43532448  0.74007591  1  0.1121  0.000108  0.977556  0.0  0.124265  0.000131  1.036283  0.0  0.127737  8.9e-05  1.034469  0.0  0.108798  0.1217  0.000164  1.037763  0.0
H  H25  1  0.12310987  0.74007943  0.43531630  1  0.112043  -0.000113  0.977554  0.0  0.124237  -0.000131  1.036274  0.0  0.127685  -8.9e-05  1.034491  0.0  0.108745  0.121673  -0.000164  1.037755  0.0
H  H26  1  0.62208917  0.40026362  0.53083924  1  0.086035  -7.9e-05  0.978482  0.0  0.094854  -6.9e-05  1.043688  0.0  0.097431  -4.7e-05  1.042989  0.0  0.096614  0.092878  -8.4e-05  1.044472  0.0
H  H27  1  0.12209228  0.53083611  0.40026649  1  0.08613  7.9e-05  0.978434  0.0  0.094894  6.9e-05  1.043699  0.0  0.097462  4.8e-05  1.043017  0.0  0.096626  0.092917  8.4e-05  1.044485  0.0
H  H28  1  0.49607915  0.58062222  0.41314556  1  0.099952  -4.4e-05  0.991693  0.0  0.106554  -8.1e-05  1.05733  0.0  0.111091  -5.7e-05  1.054049  0.0  0.098269  0.103214  -0.000106  1.059824  0.0
H  H29  1  0.99607818  0.41314318  0.58063813  1  0.099975  4.3e-05  0.991672  0.0  0.106602  8.1e-05  1.05729  0.0  0.111139  5.7e-05  1.054009  0.0  0.098286  0.103257  0.000106  1.059783  0.0
H  H30  1  0.38693887  0.79584409  0.50684579  1  0.090095  -1.5e-05  0.972175  0.0  0.09087  -3.5e-05  1.051401  0.0  0.094217  -1.5e-05  1.049067  0.0  0.096829  0.088472  -5.5e-05  1.053176  0.0
H  H31  1  0.88694163  0.50685016  0.79585829  1  0.090074  1.5e-05  0.972233  0.0  0.090881  3.5e-05  1.051432  0.0  0.094193  1.5e-05  1.049169  0.0  0.096841  0.08848  5.5e-05  1.053206  0.0
H  H32  1  0.36572201  0.83096738  0.72728673  1  0.105205  -2.7e-05  0.974024  0.0  0.1099  -1.3e-05  1.045503  0.0  0.112178  -8e-06  1.044798  0.0  0.10708  0.108206  -1.8e-05  1.046214  0.0
H  H33  1  0.86572561  0.72728947  0.83096739  1  0.105224  3.1e-05  0.974188  0.0  0.109963  1.3e-05  1.045592  0.0  0.11223  8e-06  1.044903  0.0  0.107113  0.108269  1.8e-05  1.046303  0.0
C  C34  1  0.57947814  0.08889134  0.08641700  1  0.643309  0.004108  3.930407  0.007  0.606115  -0.000338  4.226989  0.002  0.645413  -0.000235  4.219398  0.001  0.207937  0.57935  -0.000489  4.231154  0.002
C  C35  1  0.07948718  0.08641585  0.08888291  1  0.643366  -0.004108  3.930268  -0.007  0.606147  0.000341  4.226875  -0.002  0.645315  0.000234  4.219416  -0.001  0.207972  0.579382  0.000489  4.231046  -0.002
C  C36  1  0.53164377  0.08189609  0.22372849  1  -0.088134  0.00076  3.754961  0.0  -0.089821  -0.000243  4.016479  -0.001  -0.09538  0.000601  4.032712  0.0  0.081819  -0.086002  -0.000863  4.004215  -0.001
C  C37  1  0.03164763  0.22372270  0.08189580  1  -0.088213  -0.000768  3.755054  0.0  -0.089869  0.000243  4.016611  0.001  -0.095558  -0.000601  4.032407  0.0  0.081777  -0.086051  0.000864  4.004347  0.001
C  C38  1  0.53593858  0.14990972  0.32000020  1  0.21649  -0.000789  3.635116  0.0  0.192599  -0.000464  3.894497  0.0  0.208762  -0.000762  3.913109  -0.001  0.128039  0.186349  -0.000284  3.88402  0.0
C  C39  1  0.03594738  0.32000010  0.14990706  1  0.216629  0.000805  3.634921  0.0  0.192643  0.000463  3.894438  0.0  0.210471  0.00076  3.9117  0.001  0.12805  0.186396  0.000284  3.883957  0.0
C  C40  1  0.60059130  0.25803321  0.31704653  1  -0.363859  -0.000378  3.69855  0.0  -0.444447  -0.000409  3.937368  0.0  -0.447431  -0.000248  3.941674  0.0  -0.230638  -0.441827  -0.000578  3.933585  -0.001
C  C41  1  0.10059408  0.31705421  0.25803305  1  -0.36388  0.000368  3.698627  0.0  -0.444431  0.00041  3.937417  0.0  -0.447634  0.000248  3.941471  0.0  -0.230611  -0.441812  0.000578  3.933631  0.001
C  C42  1  0.44667721  0.11875400  0.55046901  1  0.147399  -0.001595  3.784376  -0.002  0.131458  -0.000949  4.032535  -0.001  0.14051  -0.00077  4.058728  -0.001  0.090531  0.129903  -0.001092  4.016621  -0.001
C  C43  1  0.94669633  0.55046659  0.11874682  1  0.14719  0.001634  3.784582  0.002  0.131276  0.000951  4.032712  0.001  0.142079  0.000772  4.057484  0.001  0.090472  0.129722  0.001092  4.016805  0.001
C  C44  1  0.37277601  0.24222040  0.59943806  1  -0.132508  -0.000148  3.732577  0.0  -0.152132  -0.00017  3.981183  0.0  -0.153859  -5.6e-05  3.999445  0.0  -0.08319  -0.150586  -0.000256  3.967438  0.0
C  C45  1  0.87279074  0.59943614  0.24221422  1  -0.132425  0.000103  3.732488  0.0  -0.152047  0.000169  3.9811  0.0  -0.153971  5.5e-05  3.998981  0.0  -0.083159  -0.150499  0.000256  3.967357  0.0
C  C46  1  0.36042403  0.26750254  0.72106026  1  -0.048334  -0.000343  3.757768  0.0  -0.06172  -0.000282  4.009283  0.0  -0.0637  -0.000279  4.031527  0.0  -0.085212  -0.060389  -0.00028  3.994514  0.0
C  C47  1  0.86042848  0.72106303  0.26749847  1  -0.048302  0.000386  3.757804  0.0  -0.061698  0.000282  4.009289  0.0  -0.0638  0.000277  4.031688  0.0  -0.085189  -0.060363  0.00028  3.994514  0.0
C  C48  1  0.42109281  0.17071505  0.79274829  1  -0.064592  -0.000296  3.730636  0.0  -0.085238  -0.000289  3.988218  0.0  -0.087999  -0.000181  4.009896  0.0  -0.087469  -0.08363  -0.000361  3.974352  0.0
C  C49  1  0.92109354  0.79275232  0.17070995  1  -0.06446  0.000241  3.730668  0.0  -0.085123  0.000291  3.988224  0.0  -0.087894  0.000183  4.009992  0.0  -0.087405  -0.08352  0.000361  3.974364  0.0
C  C50  1  0.48918857  0.04706672  0.74409537  1  -0.050805  -0.000394  3.742783  0.0  -0.066381  -0.000329  3.999305  0.0  -0.068724  -0.000321  4.021527  0.0  -0.086289  -0.064917  -0.000325  3.984882  0.0
C  C51  1  0.98918573  0.74409685  0.04706047  1  -0.050691  0.000461  3.742488  0.0  -0.066262  0.000329  3.999067  0.0  -0.068711  0.000319  4.021457  0.0  -0.086237  -0.064795  0.000325  3.984641  0.0
C  C52  1  0.50255440  0.02051538  0.62252813  1  -0.146087  0.000461  3.742945  0.0  -0.168038  0.000156  3.998534  0.0  -0.171196  0.000179  4.018662  0.0  -0.089198  -0.165515  0.000139  3.983667  0.0
C  C53  1  0.00256874  0.62252906  0.02050682  1  -0.146007  -0.000517  3.74306  -0.001  -0.16801  -0.000158  3.998635  0.0  -0.171377  -0.00018  4.018416  0.0  -0.089202  -0.165484  -0.000139  3.983765  0.0
C  C54  1  0.42214926  0.64884693  0.20092155  1  0.628638  0.005269  3.948186  0.008  0.589008  0.000337  4.249854  0.003  0.62555  0.000215  4.244988  0.002  0.205053  0.563961  0.00033  4.2525  0.003
C  C55  1  0.92215229  0.20092812  0.64885005  1  0.628743  -0.005261  3.948388  -0.008  0.589171  -0.000334  4.249999  -0.003  0.625724  -0.000217  4.245102  -0.002  0.205155  0.564115  -0.000329  4.25264  -0.003
C  C56  1  0.45375198  0.66013209  0.06631125  1  -0.085963  0.000725  3.78105  0.0  -0.092447  -0.000232  4.04804  -0.001  -0.09775  0.000628  4.065307  0.0  0.077609  -0.088622  -0.000852  4.034319  -0.001
C  C57  1  0.95376092  0.06631288  0.66013498  1  -0.0859  -0.000731  3.780981  0.0  -0.092425  0.000229  4.04802  0.001  -0.097708  -0.000629  4.065239  0.0  0.077594  -0.088583  0.000852  4.034276  0.001
C  C58  1  0.46570595  0.58459943  0.97004543  1  0.213062  -0.000577  3.647381  0.0  0.189041  -0.000408  3.908514  0.0  0.20659  -0.000749  3.92683  -0.001  0.127502  0.183616  -0.000196  3.897011  0.0
C  C59  1  0.96571245  0.97004508  0.58460355  1  0.212986  0.000598  3.647575  0.0  0.188901  0.000408  3.90873  0.0  0.206504  0.000748  3.927012  0.001  0.127509  0.183471  0.000196  3.89723  0.0
C  C60  1  0.46116182  0.45578212  0.97193985  1  -0.358985  -0.000678  3.707328  -0.001  -0.44115  -0.00059  3.952696  -0.001  -0.444034  -0.000359  3.957774  0.0  -0.234002  -0.438775  -0.000843  3.948154  -0.001
C  C61  1  0.96115397  0.97193867  0.45579202  1  -0.359045  0.000647  3.707248  0.001  -0.441129  0.000592  3.95258  0.001  -0.443974  0.000361  3.957587  0.0  -0.233983  -0.438761  0.000843  3.94803  0.001
C  C62  1  0.48647267  0.63554346  0.74780060  1  0.150963  -0.001694  3.780306  -0.002  0.136871  -0.000916  4.023557  -0.001  0.148273  -0.000765  4.048833  -0.001  0.090877  0.135641  -0.001031  4.00698  -0.001
C  C63  1  0.98647444  0.74780473  0.63554303  1  0.151039  0.001708  3.780397  0.002  0.136934  0.000916  4.023616  0.001  0.148375  0.000765  4.048885  0.001  0.090864  0.135705  0.001031  4.007041  0.001
C  C64  1  0.56055282  0.51417848  0.69311321  1  -0.140997  0.000168  3.737799  0.0  -0.160416  5e-05  3.984035  0.0  -0.163067  0.000127  4.00182  0.0  -0.088763  -0.158418  -1.1e-05  3.970236  0.0
C  C65  1  0.06055172  0.69311792  0.51417391  1  -0.140963  -0.000161  3.737679  0.0  -0.160436  -5e-05  3.98392  0.0  -0.163072  -0.000128  4.001716  0.0  -0.088712  -0.15844  1e-05  3.970126  0.0
C  C66  1  0.56339287  0.49531765  0.57243214  1  -0.057823  -0.000396  3.764765  0.0  -0.06964  -0.000187  4.010796  0.0  -0.072095  -0.000194  4.033167  0.0  -0.090961  -0.068114  -0.000178  3.996136  0.0
C  C67  1  0.06339026  0.57243312  0.49531744  1  -0.057887  0.0004  3.764676  0.0  -0.069647  0.000187  4.010719  0.0  -0.072106  0.000194  4.033093  0.0  -0.090953  -0.068122  0.000177  3.99606  0.0
C  C68  1  0.49899299  0.59572126  0.50599421  1  -0.069313  0.000165  3.743969  0.0  -0.08098  9.5e-05  3.984417  0.0  -0.083191  0.000157  4.00549  0.0  -0.09234  -0.079525  5.1e-05  3.970582  0.0
C  C69  1  0.99899222  0.50599449  0.59572535  1  -0.069366  -0.000173  3.743894  0.0  -0.081072  -9.6e-05  3.984341  0.0  -0.083279  -0.000157  4.005397  0.0  -0.092419  -0.07961  -5.2e-05  3.970499  0.0
C  C70  1  0.43317317  0.71714264  0.56005853  1  -0.060679  -0.000244  3.76679  0.0  -0.07286  -0.000103  4.019888  0.0  -0.075011  -0.000126  4.041819  0.0  -0.093975  -0.071314  -9.1e-05  4.005053  0.0
C  C71  1  0.93316724  0.56006298  0.71714624  1  -0.06073  0.000261  3.766854  0.0  -0.07295  0.000103  4.019998  0.0  -0.07511  0.000126  4.041958  0.0  -0.094051  -0.071405  9.1e-05  4.005157  0.0
C  C72  1  0.42308262  0.73767470  0.68186353  1  -0.145168  0.000443  3.743908  0.0  -0.172237  0.000205  4.004882  0.0  -0.175136  0.000248  4.02418  0.0  -0.092581  -0.170004  0.000163  3.989984  0.0
C  C73  1  0.92308058  0.68186782  0.73767711  1  -0.145196  -0.000476  3.74423  0.0  -0.172292  -0.000205  4.005157  0.0  -0.1752  -0.000247  4.024459  0.0  -0.092521  -0.170061  -0.000163  3.990258  0.0
N  N74  1  0.46300814  0.98976205  0.27483318  1  -0.203367  -0.058341  3.381661  -0.071  -0.181319  -0.044511  3.719477  -0.057  -0.19944  -0.037965  3.73192  -0.051  -0.237001  -0.170417  -0.047599  3.711381  -0.059
N  N75  1  0.96301475  0.27482818  0.98976364  1  -0.203465  0.058347  3.381615  0.071  -0.181414  0.044513  3.719416  0.057  -0.19975  0.037968  3.73143  0.051  -0.237021  -0.17051  0.0476  3.711328  0.059
N  N76  1  0.42324451  0.99358591  0.39554433  1  -0.045847  0.00216  2.804211  0.003  -0.055998  -0.000732  3.079767  0.0  -0.042243  0.000429  3.094851  0.001  -0.065888  -0.060289  -0.001621  3.073652  -0.001
N  N77  1  0.92325606  0.39553950  0.99358497  1  -0.045711  -0.002161  2.804058  -0.003  -0.055814  0.000729  3.079555  0.0  -0.040563  -0.000431  3.093871  -0.001  -0.06581  -0.060107  0.001621  3.073442  0.001
N  N78  1  0.46756099  0.09168959  0.42417692  1  -0.021769  -0.002177  3.50853  -0.003  0.083353  -0.002387  3.695292  -0.004  0.050805  -0.001581  3.748258  -0.003  -0.099641  0.088624  -0.002932  3.6825  -0.004
N  N79  1  0.96757128  0.42417400  0.09168650  1  -0.021819  0.002175  3.508537  0.003  0.083273  0.00239  3.69536  0.004  0.048093  0.001584  3.748374  0.003  -0.099668  0.088547  0.002932  3.682566  0.004
N  N80  1  0.46287929  0.77103676  0.02094380  1  -0.20372  -0.062902  3.382209  -0.076  -0.182979  -0.047142  3.723597  -0.061  -0.202238  -0.039985  3.734461  -0.054  -0.238996  -0.171716  -0.050485  3.716169  -0.063
N  N81  1  0.96288182  0.02094278  0.77104224  1  -0.203781  0.062906  3.382317  0.076  -0.183017  0.047144  3.723732  0.061  -0.202283  0.039989  3.734613  0.054  -0.239058  -0.171754  0.050485  3.716302  0.063
N  N82  1  0.47901201  0.77262810  0.90345140  1  -0.030441  0.001988  2.81041  0.003  -0.04089  -0.000984  3.088535  0.0  -0.025518  0.000292  3.103217  0.001  -0.060932  -0.044718  -0.00199  3.082131  -0.001
N  N83  1  0.97901495  0.90344938  0.77263030  1  -0.030454  -0.001989  2.810483  -0.003  -0.040946  0.000985  3.088606  0.0  -0.02554  -0.000294  3.103306  -0.001  -0.060922  -0.044773  0.00199  3.082203  0.001
N  N84  1  0.47931147  0.65893096  0.87136552  1  -0.020783  -0.00275  3.506481  -0.004  0.086407  -0.002686  3.685544  -0.004  0.048718  -0.001791  3.742446  -0.003  -0.098235  0.091903  -0.00328  3.671604  -0.005
N  N85  1  0.97931925  0.87136541  0.65893172  1  -0.020767  0.002744  3.506617  0.004  0.086535  0.002683  3.685558  0.004  0.048748  0.001791  3.742562  0.003  -0.098233  0.092029  0.00328  3.671624  0.005
O  O86  1  0.55136073  0.00327916  0.03237348  1  -0.566962  -0.100131  1.972379  -0.13  -0.550279  -0.06348  2.246829  -0.091  -0.593853  -0.047786  2.239821  -0.072  -0.317303  -0.52118  -0.073485  2.251951  -0.101
O  O87  1  0.05136303  0.03237179  0.00328004  1  -0.567047  0.10011  1.97258  0.13  -0.550348  0.063475  2.247054  0.091  -0.59397  0.047783  2.240141  0.072  -0.317341  -0.521252  0.073476  2.252185  0.101
O  O88  1  0.63790654  0.17337997  0.03314362  1  -0.59922  -0.018104  1.973795  -0.021  -0.572337  -0.009018  2.223585  -0.011  -0.602769  -0.004694  2.21266  -0.006  -0.316709  -0.550032  -0.014068  2.230316  -0.017
O  O89  1  0.13792389  0.03313900  0.17337452  1  -0.599244  0.018115  1.97339  0.021  -0.572359  0.009018  2.223185  0.011  -0.602801  0.004693  2.212282  0.006  -0.316761  -0.550047  0.014072  2.229906  0.017
O  O90  1  0.39651438  0.75227618  0.26008554  1  -0.583599  -0.110695  1.972855  -0.144  -0.569145  -0.06952  2.258009  -0.1  -0.614542  -0.052646  2.251446  -0.08  -0.323857  -0.53946  -0.079486  2.263261  -0.109
O  O91  1  0.89652345  0.26008591  0.75228325  1  -0.583806  0.110705  1.972852  0.144  -0.569381  0.069529  2.257998  0.1  -0.614805  0.052654  2.251483  0.08  -0.323999  -0.539693  0.0795  2.263255  0.109
O  O92  1  0.41945394  0.54923401  0.24962852  1  -0.561114  -0.021255  1.898127  -0.026  -0.527233  -0.010002  2.113257  -0.013  -0.553159  -0.004819  2.107477  -0.007  -0.303703  -0.507666  -0.01602  2.115932  -0.021
O  O93  1  0.91945949  0.24962807  0.54924376  1  -0.561045  0.021242  1.898583  0.026  -0.527193  0.009998  2.113706  0.013  -0.553115  0.004818  2.107913  0.007  -0.303659  -0.50763  0.016015  2.116383  0.021
