# generated using pymatgen
data_MnCrH12C17N9O
_symmetry_space_group_name_H-M   'P 1'
_cell_length_a   7.85044711
_cell_length_b   10.10492840
_cell_length_c   13.46937293
_cell_angle_alpha   70.12504892
_cell_angle_beta   79.45519915
_cell_angle_gamma   73.44035002
_symmetry_Int_Tables_number   1
_chemical_formula_structural   MnCrH12C17N9O
_chemical_formula_sum   'Mn2 Cr2 H24 C34 N18 O2'
_cell_volume   958.77538585
_cell_formula_units_Z   2
loop_
 _symmetry_equiv_pos_site_id
 _symmetry_equiv_pos_as_xyz
  1  'x, y, z'
loop_
 _atom_site_type_symbol
 _atom_site_label
 _atom_site_symmetry_multiplicity
 _atom_site_fract_x
 _atom_site_fract_y
 _atom_site_fract_z
 _atom_site_occupancy
 _atom_site_hle17_ddec_charge
 _atom_site_hle17_ddec_spin_density
 _atom_site_hle17_ddec_sum_bond_order
 _atom_site_hle17_magmom
 _atom_site_hse06_10hf_ddec_charge
 _atom_site_hse06_10hf_ddec_spin_density
 _atom_site_hse06_10hf_ddec_sum_bond_order
 _atom_site_hse06_10hf_magmom
 _atom_site_hse06_ddec_charge
 _atom_site_hse06_ddec_spin_density
 _atom_site_hse06_ddec_sum_bond_order
 _atom_site_hse06_magmom
 _atom_site_pbe_cm5_charge
 _atom_site_pbe_ddec_charge
 _atom_site_pbe_ddec_spin_density
 _atom_site_pbe_ddec_sum_bond_order
 _atom_site_pbe_magmom
Mn  Mn0  1  0.62522591  0.83170096  0.49229660  1  1.081314  -4.793297  2.113593  -4.6  0.938635  -4.644111  2.645865  -4.414  0.980507  -4.73143  2.581941  -4.514  0.714516  0.922073  -4.497967  2.689803  -4.262
Mn  Mn1  1  0.37291017  0.16459934  0.51694110  1  1.083018  -4.804966  2.081369  -4.607  0.93715  -4.657094  2.612633  -4.42  0.98139  -4.741286  2.547458  -4.517  0.704266  0.909832  -4.542478  2.660928  -4.3
Cr  Cr2  1  0.75387127  0.30540991  0.72913871  1  0.821336  3.212742  3.248648  2.9  0.832705  2.854456  3.663644  2.647  0.877686  3.001976  3.620973  2.783  0.841912  0.782028  2.606387  3.724157  2.416
Cr  Cr3  1  0.24430344  0.69757251  0.26836812  1  0.829546  -3.143497  3.186853  -2.948  0.844741  -2.860331  3.587645  -2.725  0.885135  -2.952966  3.556842  -2.82  0.854431  0.81967  -2.769393  3.609508  -2.633
H  H4  1  0.39957373  0.54973967  0.75396789  1  0.095194  -0.001846  0.94642  -0.002  0.100061  -0.001424  1.010668  -0.001  0.102259  -0.001337  1.008533  -0.001  0.125273  0.096949  -0.001331  1.01344  -0.001
H  H5  1  0.59363754  0.44803690  0.24490680  1  0.096298  0.001085  0.945658  0.002  0.100719  -0.000118  1.010504  0.001  0.103221  9.2e-05  1.008118  0.001  0.125517  0.097596  -0.000136  1.013039  0.001
H  H6  1  0.17813189  0.58921042  0.90249374  1  0.10905  -4.7e-05  0.962296  0.0  0.117396  -0.000299  1.025925  0.0  0.12099  -0.000248  1.023726  0.0  0.10983  0.1137  -0.000334  1.02902  0.0
H  H7  1  0.81550990  0.40711530  0.09695068  1  0.108963  1.2e-05  0.961711  0.0  0.116743  0.000135  1.025809  0.0  0.120257  0.000117  1.023787  0.0  0.110777  0.113811  0.000141  1.027701  0.0
H  H8  1  0.20500934  0.40564099  0.08449074  1  0.117127  -0.00096  0.963191  -0.001  0.12492  -0.000328  1.025091  0.0  0.128497  -0.000319  1.022322  0.0  0.108561  0.121241  -0.000357  1.028608  0.0
H  H9  1  0.79364822  0.59219538  0.91540580  1  0.115879  0.001068  0.96595  0.001  0.124331  0.000363  1.02735  0.0  0.127414  0.000374  1.025157  0.0  0.109997  0.122874  0.000327  1.028132  0.0
H  H10  1  0.02541720  0.99327777  0.78591188  1  0.085426  -0.002083  0.974957  -0.002  0.089721  -0.001588  1.044245  -0.001  0.091886  -0.001545  1.042414  -0.001  0.119419  0.08638  -0.001425  1.047245  -0.001
H  H11  1  0.97428075  0.01058325  0.21141309  1  0.086647  0.000929  0.971753  0.002  0.090458  -0.000383  1.041886  0.001  0.092954  -0.000146  1.039681  0.001  0.12037  0.087005  -0.00042  1.044376  0.001
H  H12  1  0.06130423  0.77701477  0.94379428  1  0.111434  9.7e-05  0.950632  0.0  0.121956  -0.000216  1.009061  0.0  0.125034  -0.00016  1.008312  0.0  0.111611  0.118399  -0.000232  1.011471  0.0
H  H13  1  0.93965722  0.22576649  0.05198243  1  0.111037  -0.000112  0.949173  0.0  0.122423  0.000105  1.005952  0.0  0.125217  7.6e-05  1.00562  0.0  0.113196  0.120221  9.6e-05  1.006392  0.0
H  H14  1  0.85720532  0.78077190  0.11058592  1  0.115731  -0.000351  0.930955  -0.001  0.127306  0.000248  0.987891  0.0  0.129841  0.000295  0.986532  0.0  0.113088  0.123936  0.000175  0.991302  0.0
H  H15  1  0.14516031  0.22009620  0.88659004  1  0.114525  0.000439  0.930692  0.001  0.12789  -0.000217  0.985685  0.0  0.129784  -0.000241  0.985193  0.0  0.115621  0.127584  -0.000188  0.984613  0.0
H  H16  1  0.60143520  0.92934637  0.20442727  1  0.116377  2e-05  0.959884  0.0  0.126937  -4e-06  1.0178  0.0  0.129621  0.000112  1.017563  0.0  0.109631  0.123444  -7.2e-05  1.019777  0.0
H  H17  1  0.40239108  0.07053688  0.79427801  1  0.113256  0.000672  0.967413  0.0  0.12503  0.000431  1.024486  0.0  0.127105  0.000457  1.02482  0.0  0.111185  0.124131  0.000386  1.023676  0.0
H  H18  1  0.37100781  0.15623782  0.19704739  1  0.118454  0.000135  0.943463  0.0  0.127871  8.3e-05  1.002453  0.0  0.131577  0.000145  1.000767  0.0  0.111462  0.123475  4.9e-05  1.00576  0.0
H  H19  1  0.63174380  0.84296938  0.80259629  1  0.118212  0.000367  0.942496  0.0  0.128583  0.000375  1.000449  0.0  0.132024  0.000394  0.999115  0.0  0.11332  0.125819  0.00033  1.001572  0.0
H  H20  1  0.02382902  0.85123630  0.56056804  1  0.077912  0.000312  0.940357  0.0  0.096365  0.000296  1.001954  0.0  0.096886  0.00036  1.002404  0.0  0.095136  0.095155  0.000153  1.002494  0.0
H  H21  1  0.98158855  0.15114976  0.43813215  1  0.076067  0.000351  0.943004  0.0  0.095301  0.000255  1.004295  0.0  0.095218  0.000321  1.00522  0.0  0.095205  0.095802  0.000181  1.003531  0.0
H  H22  1  0.96617997  0.85544267  0.69441769  1  0.063999  -0.000493  0.980416  0.0  0.077945  -0.000858  1.05523  -0.001  0.077558  -0.000655  1.055961  0.0  0.087861  0.07949  -0.001154  1.053102  -0.001
H  H23  1  0.03887340  0.15064677  0.30348882  1  0.064714  -0.000488  0.978538  0.0  0.078069  -0.000836  1.054418  -0.001  0.078021  -0.000627  1.054631  0.0  0.086669  0.078196  -0.00108  1.054053  -0.001
H  H24  1  0.84201452  0.99075272  0.59037763  1  0.084008  0.000407  0.961566  0.0  0.100621  0.000351  1.030113  0.0  0.099932  0.000368  1.032235  0.0  0.099028  0.101532  0.000306  1.028136  0.0
H  H25  1  0.15927409  0.01005909  0.40696548  1  0.08474  0.000653  0.962732  0.0  0.10214  0.000582  1.029595  0.0  0.101735  0.000686  1.031402  0.0  0.098733  0.102171  0.000467  1.028607  0.0
H  H26  1  0.84042397  0.69027622  0.67216713  1  0.364044  0.000825  0.882353  0.0  0.347821  0.000233  0.942163  -0.001  0.354299  0.000354  0.936106  -0.001  0.308308  0.345241  6e-05  0.944479  -0.001
H  H27  1  0.17100764  0.30791379  0.33211097  1  0.365628  -0.000388  0.872713  0.0  0.349598  -0.000862  0.932057  -0.001  0.356105  -0.000552  0.92612  -0.001  0.310976  0.345964  -0.001133  0.935004  -0.001
C  C28  1  0.67510766  0.49639343  0.62272783  1  -0.03559  -0.154812  3.317487  -0.152  -0.074992  -0.092173  3.647501  -0.102  -0.072333  -0.101632  3.654013  -0.109  0.008854  -0.07147  -0.078726  3.649698  -0.091
C  C29  1  0.32481299  0.50583737  0.37787665  1  -0.037679  0.090013  3.322816  0.089  -0.072936  0.016141  3.640911  0.035  -0.071778  0.031598  3.654196  0.045  0.015901  -0.073758  0.002409  3.630363  0.026
C  C30  1  0.88838528  0.41942169  0.77209171  1  -0.119108  -0.093445  3.378036  -0.096  -0.157858  -0.037986  3.723946  -0.053  -0.157784  -0.048997  3.730891  -0.061  -0.033617  -0.159424  -0.027857  3.733321  -0.044
C  C31  1  0.10860323  0.58286274  0.22634119  1  -0.127846  0.098625  3.384161  0.098  -0.16536  0.038976  3.724982  0.054  -0.165481  0.051089  3.736652  0.062  -0.032054  -0.164959  0.029083  3.715039  0.048
C  C32  1  0.01700521  0.75727649  0.35801967  1  -0.054341  0.085051  3.30014  0.087  -0.091859  0.011787  3.620814  0.034  -0.090715  0.027109  3.633244  0.044  0.013909  -0.08856  -0.001795  3.608017  0.026
C  C33  1  0.97934113  0.24391448  0.64179147  1  -0.046441  -0.139375  3.298252  -0.141  -0.087958  -0.08067  3.627398  -0.096  -0.084396  -0.090679  3.633085  -0.102  0.008331  -0.087067  -0.068518  3.630359  -0.087
C  C34  1  0.38549443  0.78022878  0.33567985  1  -0.075418  0.073105  3.286958  0.076  -0.120479  0.010798  3.617355  0.031  -0.117701  0.025561  3.627143  0.041  0.001742  -0.118848  -0.001747  3.607965  0.023
C  C35  1  0.61187773  0.22392839  0.66349768  1  -0.054497  -0.11932  3.272111  -0.123  -0.1023  -0.070988  3.606993  -0.087  -0.09743  -0.080695  3.611337  -0.093  0.003304  -0.103831  -0.060233  3.613896  -0.078
C  C36  1  0.40936356  0.46963552  0.83196653  1  0.173163  0.022629  3.623113  0.02  0.141702  0.01617  3.882948  0.014  0.154121  0.016469  3.895135  0.015  0.069706  0.13108  0.015144  3.878439  0.014
C  C37  1  0.58623437  0.52903400  0.16715889  1  0.172042  -0.023596  3.623994  -0.021  0.140282  -0.019472  3.883499  -0.017  0.152396  -0.018366  3.895394  -0.016  0.071968  0.131572  -0.020576  3.877915  -0.018
C  C38  1  0.28515803  0.49124401  0.91779566  1  -0.095599  -0.013004  3.70401  -0.012  -0.114503  -0.005777  3.965947  -0.005  -0.12147  -0.007239  3.983817  -0.006  -0.075219  -0.111527  -0.004879  3.960174  -0.004
C  C39  1  0.71055874  0.50648043  0.08161868  1  -0.094848  0.014062  3.705991  0.012  -0.112703  0.006202  3.965897  0.006  -0.119601  0.007578  3.984773  0.007  -0.073103  -0.108651  0.005121  3.953543  0.005
C  C40  1  0.29962437  0.38927604  0.01687681  1  -0.039569  0.021354  3.64275  0.016  -0.06481  0.014793  3.888135  0.01  -0.060435  0.015336  3.904039  0.011  -0.062078  -0.071705  0.012137  3.884062  0.008
C  C41  1  0.69895856  0.60933275  0.98284741  1  -0.039766  -0.021628  3.643643  -0.017  -0.062644  -0.017059  3.885348  -0.012  -0.059823  -0.016001  3.903342  -0.012  -0.055857  -0.062055  -0.018449  3.869982  -0.013
C  C42  1  0.43770297  0.26110573  0.02935970  1  0.029662  -0.006017  3.789881  -0.006  0.046768  -0.00283  4.020308  -0.003  0.044017  -0.003591  4.044221  -0.003  0.000149  0.047805  -0.002205  4.008982  -0.002
C  C43  1  0.56314979  0.73898300  0.97008116  1  0.031062  0.006501  3.791411  0.006  0.048023  0.002851  4.02093  0.003  0.045284  0.003681  4.045442  0.003  0.003831  0.050092  0.002301  4.004246  0.003
C  C44  1  0.55700818  0.24733652  0.93884415  1  0.124021  0.006209  3.74655  0.006  0.118741  0.006739  3.987027  0.007  0.12333  0.006146  4.007996  0.006  0.110767  0.114527  0.004828  3.974789  0.005
C  C45  1  0.44376927  0.75374344  0.06031030  1  0.125927  -0.006764  3.743516  -0.007  0.120662  -0.007531  3.98308  -0.007  0.125249  -0.006723  4.003882  -0.007  0.113089  0.117801  -0.008544  3.96916  -0.008
C  C46  1  0.69502188  0.11915476  0.94469608  1  0.125223  0.009324  3.762952  0.009  0.119283  0.008556  4.006206  0.008  0.124956  0.008562  4.026763  0.008  0.109586  0.11369  0.005173  3.9944  0.006
C  C47  1  0.30673923  0.88289689  0.05396756  1  0.12458  -0.009404  3.760118  -0.01  0.119379  -0.009548  4.002905  -0.009  0.124786  -0.008741  4.023439  -0.009  0.112701  0.116213  -0.010533  3.988432  -0.01
C  C48  1  0.93493803  0.99377053  0.85738425  1  0.149798  0.025836  3.662539  0.023  0.119567  0.019236  3.924759  0.017  0.131201  0.018971  3.938005  0.017  0.057621  0.10781  0.015727  3.922084  0.014
C  C49  1  0.06539205  0.00928209  0.14017505  1  0.14989  -0.026658  3.659972  -0.024  0.119269  -0.021862  3.923122  -0.019  0.130704  -0.020655  3.936  -0.018  0.061262  0.111094  -0.023122  3.917157  -0.02
C  C50  1  0.95434075  0.87159456  0.94771708  1  -0.109583  -0.015361  3.711452  -0.014  -0.125099  -0.007104  3.970105  -0.006  -0.1326  -0.008649  3.988978  -0.008  -0.081208  -0.122116  -0.005901  3.964876  -0.005
C  C51  1  0.04676349  0.13080671  0.04926746  1  -0.108441  0.016268  3.714628  0.014  -0.122704  0.00735  3.970419  0.007  -0.130473  0.008894  3.990673  0.008  -0.077113  -0.117423  0.006118  3.955789  0.006
C  C52  1  0.84237099  0.87458262  0.03943221  1  -0.028658  0.026275  3.65204  0.021  -0.057568  0.019325  3.903677  0.014  -0.051553  0.019171  3.918298  0.014  -0.060784  -0.067508  0.013903  3.902241  0.01
C  C53  1  0.15979638  0.12686787  0.95816693  1  -0.032193  -0.025608  3.6571  -0.021  -0.059385  -0.020013  3.905439  -0.015  -0.054972  -0.018839  3.922705  -0.014  -0.053923  -0.059298  -0.021673  3.888983  -0.016
C  C54  1  0.70824250  0.00179865  0.03990429  1  0.025288  -0.008377  3.798291  -0.008  0.043603  -0.004142  4.029663  -0.004  0.040671  -0.005041  4.052664  -0.005  -1.8e-05  0.04544  -0.00305  4.018042  -0.003
C  C55  1  0.29443228  0.99951610  0.95847439  1  0.02747  0.008818  3.795978  0.008  0.044696  0.004174  4.027615  0.004  0.041697  0.005137  4.051514  0.005  0.002118  0.047277  0.003274  4.009686  0.004
C  C56  1  0.58775798  0.01840359  0.13065379  1  -0.091728  0.000147  3.703198  0.0  -0.120059  -0.000875  3.964782  0.0  -0.122669  -0.000623  3.985937  0.0  -0.083416  -0.120395  -0.000944  3.956254  0.0
C  C57  1  0.41523067  0.98189836  0.86819451  1  -0.09246  -2.6e-05  3.707238  0.0  -0.119384  0.000136  3.966586  0.0  -0.122793  0.000301  3.989498  0.0  -0.080876  -0.116031  6e-06  3.94947  0.0
C  C58  1  0.45919581  0.14392506  0.12631495  1  -0.075477  -0.003415  3.689751  -0.003  -0.100388  -0.002633  3.94976  -0.002  -0.102653  -0.002658  3.97015  -0.002  -0.075903  -0.101774  -0.001801  3.942519  -0.001
C  C59  1  0.54321190  0.85598218  0.87304795  1  -0.077329  0.002716  3.691838  0.002  -0.102031  0.001018  3.950186  0.001  -0.104776  0.001502  3.971698  0.001  -0.074659  -0.100633  0.000793  3.935681  0.001
C  C60  1  0.91276365  0.87666901  0.61923935  1  -0.031836  -0.000888  3.640619  -0.001  -0.126884  -0.002303  3.909357  -0.002  -0.120492  -0.001695  3.914706  -0.001  -0.153991  -0.131152  -0.002972  3.90482  -0.002
C  C61  1  0.09229089  0.12522130  0.37940828  1  -0.033615  -0.000745  3.645045  -0.001  -0.128965  -0.002299  3.913054  -0.002  -0.122535  -0.001558  3.918495  -0.001  -0.154679  -0.133419  -0.00289  3.908897  -0.002
N  N62  1  0.61813681  0.61558906  0.56986996  1  -0.359088  0.101544  3.00646  0.115  -0.301718  0.059072  3.310278  0.08  -0.31484  0.065218  3.317446  0.085  -0.355143  -0.303428  0.050757  3.310934  0.071
N  N63  1  0.37049146  0.38642881  0.43250545  1  -0.365352  -0.109567  3.015758  -0.089  -0.300224  -0.092452  3.30848  -0.066  -0.318395  -0.088027  3.320782  -0.063  -0.339244  -0.286046  -0.096978  3.298385  -0.07
N  N64  1  0.95394249  0.50253558  0.78559363  1  -0.373802  0.083648  2.777954  0.078  -0.328245  0.060201  3.029257  0.055  -0.336644  0.061524  3.041497  0.056  -0.359684  -0.331522  0.054619  3.029732  0.049
N  N65  1  0.04243843  0.50050363  0.21245813  1  -0.373282  -0.083281  2.772601  -0.081  -0.323907  -0.064632  3.019583  -0.061  -0.335364  -0.063242  3.034812  -0.06  -0.351111  -0.314398  -0.067296  3.007181  -0.063
N  N66  1  0.87908962  0.79156099  0.40480513  1  -0.362178  -0.10938  3.033305  -0.088  -0.296068  -0.091852  3.333776  -0.064  -0.312882  -0.087929  3.344968  -0.061  -0.337971  -0.285108  -0.093397  3.323384  -0.066
N  N67  1  0.11601191  0.20107943  0.59669807  1  -0.364749  0.095402  3.028328  0.11  -0.302412  0.058391  3.339256  0.081  -0.316186  0.063153  3.345295  0.084  -0.350774  -0.301527  0.053551  3.340231  0.076
N  N68  1  0.47036960  0.82243509  0.37610088  1  -0.360862  -0.104898  3.01391  -0.088  -0.294153  -0.093459  3.315106  -0.07  -0.309597  -0.087972  3.32405  -0.066  -0.331545  -0.285762  -0.099833  3.30849  -0.077
N  N69  1  0.52588385  0.17823547  0.62615558  1  -0.37033  0.079912  3.033518  0.094  -0.305087  0.047276  3.345967  0.068  -0.318958  0.052377  3.350717  0.073  -0.349256  -0.30508  0.038263  3.350154  0.059
N  N70  1  0.54413391  0.35152412  0.84200327  1  -0.326419  -0.037115  3.323465  -0.06  -0.283346  -0.015606  3.600588  -0.038  -0.305764  -0.018493  3.619464  -0.041  -0.344836  -0.266678  -0.014292  3.590061  -0.036
N  N71  1  0.45460656  0.64909756  0.15687149  1  -0.325444  0.039334  3.328285  0.06  -0.282648  0.015787  3.604911  0.038  -0.303892  0.019613  3.623831  0.041  -0.344988  -0.269314  0.012077  3.592968  0.034
N  N72  1  0.80843145  0.11548206  0.85505248  1  -0.339266  -0.034754  3.352892  -0.06  -0.300217  -0.013233  3.639424  -0.039  -0.322221  -0.016665  3.657628  -0.042  -0.351204  -0.285009  -0.011781  3.633301  -0.035
N  N73  1  0.19219421  0.88779377  0.14292493  1  -0.33718  0.036953  3.358356  0.06  -0.299656  0.013354  3.645253  0.039  -0.320424  0.017608  3.66376  0.042  -0.352273  -0.287126  0.009314  3.634108  0.035
N  N74  1  0.39474777  0.92624997  0.58127009  1  -0.602229  -0.016558  2.813821  0.013  -0.57238  -0.03465  3.152614  0.003  -0.601288  -0.020061  3.154697  0.016  -0.298271  -0.545648  -0.044219  3.144624  -0.007
N  N75  1  0.60611065  0.06506362  0.42697598  1  -0.603258  -0.018553  2.811507  0.011  -0.572673  -0.036352  3.149231  0.001  -0.601718  -0.02153  3.151093  0.015  -0.297718  -0.54431  -0.044596  3.140755  -0.007
N  N76  1  0.33104206  0.86418904  0.66716399  1  0.413194  -0.003642  4.198244  -0.004  0.448837  -0.019846  4.474828  -0.02  0.465287  -0.012573  4.509723  -0.013  0.106405  0.438223  -0.023164  4.437798  -0.023
N  N77  1  0.66915426  0.12764180  0.34097333  1  0.417694  -0.003614  4.195848  -0.003  0.453191  -0.01916  4.47233  -0.019  0.470022  -0.012479  4.506506  -0.012  0.108318  0.441762  -0.022207  4.436265  -0.022
N  N78  1  0.26835533  0.80578030  0.75034154  1  -0.407098  -0.091539  2.452815  -0.089  -0.400525  -0.088999  2.686196  -0.08  -0.416108  -0.087815  2.701499  -0.08  -0.168788  -0.370078  -0.084583  2.663092  -0.075
N  N79  1  0.73032619  0.18804426  0.25797665  1  -0.407268  -0.08877  2.444622  -0.086  -0.401463  -0.087955  2.676172  -0.079  -0.416517  -0.085169  2.691084  -0.078  -0.170507  -0.371974  -0.081543  2.653836  -0.073
O  O80  1  0.78482040  0.79190040  0.63482840  1  -0.520722  -0.022657  2.184529  -0.014  -0.451301  -0.032238  2.4258  -0.023  -0.470761  -0.028569  2.416614  -0.019  -0.387162  -0.437577  -0.036753  2.430309  -0.028
O  O81  1  0.22445768  0.20514956  0.36669052  1  -0.518401  -0.022542  2.173063  -0.015  -0.450546  -0.031883  2.4138  -0.024  -0.469852  -0.028312  2.404593  -0.021  -0.386489  -0.435914  -0.035123  2.418715  -0.027
