# generated using pymatgen
data_CdH12C12Br2(NO)2
_symmetry_space_group_name_H-M   'P 1'
_cell_length_a   4.06914195
_cell_length_b   8.12132640
_cell_length_c   9.96910115
_cell_angle_alpha   84.46688181
_cell_angle_beta   82.78712400
_cell_angle_gamma   84.89483942
_symmetry_Int_Tables_number   1
_chemical_formula_structural   CdH12C12Br2(NO)2
_chemical_formula_sum   'Cd1 H12 C12 Br2 N2 O2'
_cell_volume   324.32983937
_cell_formula_units_Z   1
loop_
 _symmetry_equiv_pos_site_id
 _symmetry_equiv_pos_as_xyz
  1  'x, y, z'
loop_
 _atom_site_type_symbol
 _atom_site_label
 _atom_site_symmetry_multiplicity
 _atom_site_fract_x
 _atom_site_fract_y
 _atom_site_fract_z
 _atom_site_occupancy
 _atom_site_hle17_bader_spin_density
 _atom_site_hle17_ddec_charge
 _atom_site_hle17_ddec_spin_density
 _atom_site_hle17_ddec_sum_bond_order
 _atom_site_hle17_magmom
 _atom_site_hse06_10hf_bader_spin_density
 _atom_site_hse06_10hf_ddec_charge
 _atom_site_hse06_10hf_ddec_spin_density
 _atom_site_hse06_10hf_ddec_sum_bond_order
 _atom_site_hse06_10hf_magmom
 _atom_site_hse06_bader_spin_density
 _atom_site_hse06_ddec_charge
 _atom_site_hse06_ddec_spin_density
 _atom_site_hse06_ddec_sum_bond_order
 _atom_site_hse06_magmom
 _atom_site_pbe_bader_spin_density
 _atom_site_pbe_cm5_charge
 _atom_site_pbe_ddec_charge
 _atom_site_pbe_ddec_spin_density
 _atom_site_pbe_ddec_sum_bond_order
 _atom_site_pbe_magmom
Cd  Cd0  1  0.50000054  0.00000058  0.99999992  1  0  0.898692  0  1.913114  0  0  0.736841  0  2.362999  0  0  0.789732  0  2.322081  0  0  0.543165  0.699412  0  2.391327  0
H  H1  1  0.87558147  0.61731715  0.13832573  1  0  0.07748  0  0.945189  0  0  0.093345  0  1.006702  0  0  0.093573  0  1.007343  0  0  0.094484  0.093111  0  1.00641  0
H  H2  1  0.12441772  0.38268612  0.86167184  1  0  0.077481  0  0.945204  0  0  0.093306  0  1.006746  0  0  0.093534  0  1.007387  0  0  0.094474  0.093075  0  1.006451  0
H  H3  1  0.51550004  0.60415990  0.05985641  1  0  0.065492  0  0.962574  0  0  0.079203  0  1.032242  0  0  0.080019  0  1.031323  0  0  0.089269  0.078768  0  1.032686  0
H  H4  1  0.48449709  0.39584088  0.94014347  1  0  0.065512  0  0.962556  0  0  0.079212  0  1.03222  0  0  0.080026  0  1.031304  0  0  0.089282  0.078777  0  1.032664  0
H  H5  1  0.30456096  0.41376669  0.24376560  1  0  0.064418  0  0.943748  0  0  0.07517  0  1.014157  0  0  0.075746  0  1.013547  0  0  0.09436  0.074658  0  1.014735  0
H  H6  1  0.69544381  0.58623284  0.75623497  1  0  0.064434  0  0.943717  0  0  0.075183  0  1.014129  0  0  0.075766  0  1.013516  0  0  0.094351  0.074673  0  1.01471  0
H  H7  1  0.66982817  0.42550507  0.32424167  1  0  0.073876  0  0.93123  0  0  0.083125  0  1.000208  0  0  0.084051  0  0.999148  0  0  0.100156  0.082685  0  1.000499  0
H  H8  1  0.33017869  0.57449695  0.67575859  1  0  0.073877  0  0.931321  0  0  0.083129  0  1.000295  0  0  0.084054  0  0.999237  0  0  0.100156  0.082693  0  1.000581  0
H  H9  1  0.43117577  0.08861468  0.31303150  1  0  0.093841  0  0.982132  0  0  0.100551  0  1.052061  0  0  0.103491  0  1.050779  0  0  0.089668  0.098362  0  1.053164  0
H  H10  1  0.56882197  0.91138237  0.68697065  1  0  0.093851  0  0.9821  0  0  0.100571  0  1.052031  0  0  0.103523  0  1.050721  0  0  0.089674  0.098383  0  1.053139  0
H  H11  1  0.83946907  0.71022183  0.52635651  1  0  0.103163  0  0.962253  0  0  0.109014  0  1.030846  0  0  0.112812  0  1.028016  0  0  0.10532  0.106395  0  1.032935  0
H  H12  1  0.16053341  0.28977646  0.47364428  1  0  0.103121  0  0.962295  0  0  0.108971  0  1.030893  0  0  0.11277  0  1.028061  0  0  0.105315  0.10635  0  1.032979  0
C  C13  1  0.60370667  0.62195786  0.15677393  1  0  -0.013949  0  3.66888  0  0  -0.068071  0  3.928741  0  0  -0.063833  0  3.939283  0  0  -0.086042  -0.070912  0  3.921511  0
C  C14  1  0.39629292  0.37804292  0.84322482  1  0  -0.01401  0  3.66904  0  0  -0.068069  0  3.928858  0  0  -0.063831  0  3.939402  0  0  -0.086068  -0.070911  0  3.921631  0
C  C15  1  0.47395572  0.49808081  0.27336422  1  0  0.069764  0  3.521385  0  0  0.011275  0  3.788264  0  0  0.0196  0  3.790846  0  0  -0.070089  0.005712  0  3.786472  0
C  C16  1  0.52604907  0.50191873  0.72663735  1  0  0.069776  0  3.521536  0  0  0.011275  0  3.788397  0  0  0.019591  0  3.790991  0  0  -0.070083  0.005712  0  3.786615  0
C  C17  1  0.30848153  0.76379183  0.31835081  1  0  0.438045  0  3.745867  0  0  0.397845  0  4.021531  0  0  0.422358  0  4.026562  0  0  0.234365  0.380907  0  4.017961  0
C  C18  1  0.69151826  0.23620771  0.68164902  1  0  0.438068  0  3.745697  0  0  0.397911  0  4.021378  0  0  0.422426  0  4.026409  0  0  0.23436  0.380973  0  4.017812  0
C  C19  1  0.14722182  0.88720936  0.40835572  1  0  -0.021365  0  3.775546  0  0  -0.001917  0  4.008917  0  0  -0.006492  0  4.030684  0  0  -0.006474  0.001949  0  3.994029  0
C  C20  1  0.85277568  0.11278894  0.59164333  1  0  -0.021258  0  3.775545  0  0  -0.001944  0  4.009107  0  0  -0.00653  0  4.030889  0  0  -0.006453  0.001922  0  3.99422  0
C  C21  1  0.23764807  0.05107489  0.39302938  1  0  -0.062904  0  3.736066  0  0  -0.08292  0  3.979941  0  0  -0.084001  0  4.000984  0  0  -0.082843  -0.081065  0  3.964853  0
C  C22  1  0.76235381  0.94892713  0.60696914  1  0  -0.063029  0  3.736198  0  0  -0.083035  0  3.980147  0  0  -0.084111  0  4.001199  0  0  -0.082888  -0.081183  0  3.96507  0
C  C23  1  0.90990609  0.83737296  0.51606415  1  0  -0.082166  0  3.709156  0  0  -0.109109  0  3.966415  0  0  -0.110083  0  3.985484  0  0  -0.084426  -0.109841  0  3.953591  0
C  C24  1  0.09008666  0.16262410  0.48393625  1  0  -0.082179  0  3.709176  0  0  -0.109098  0  3.966485  0  0  -0.110067  0  3.985555  0  0  -0.084457  -0.109822  0  3.953643  0
Br  Br25  1  0.92232770  0.18374471  0.10673594  1  0  -0.4976  0  1.118327  0  0  -0.432457  0  1.442018  0  0  -0.455867  0  1.422022  0  0  -0.219208  -0.416477  0  1.455629  0
Br  Br26  1  0.07767190  0.81625607  0.89326381  1  0  -0.497599  0  1.118324  0  0  -0.432462  0  1.442025  0  0  -0.455877  0  1.422031  0  0  -0.219209  -0.416478  0  1.455639  0
N  N27  1  0.47302181  0.78678763  0.19926843  1  0  -0.456136  0  3.022183  0  0  -0.392188  0  3.298021  0  0  -0.416161  0  3.31268  0  0  -0.358411  -0.375756  0  3.287871  0
N  N28  1  0.52697532  0.21321315  0.80073145  1  0  -0.456145  0  3.022177  0  0  -0.39218  0  3.297928  0  0  -0.416153  0  3.312586  0  0  -0.35841  -0.37575  0  3.287785  0
O  O29  1  0.28604100  0.60359179  0.37197844  1  0  -0.301267  0  2.19385  0  0  -0.231234  0  2.429617  0  0  -0.250029  0  2.427884  0  0  -0.171687  -0.218156  0  2.430589  0
O  O30  1  0.71396377  0.39640775  0.62802213  1  0  -0.301281  0  2.19381  0  0  -0.231243  0  2.42956  0  0  -0.250038  0  2.427829  0  0  -0.171651  -0.218166  0  2.430531  0
