# generated using pymatgen
data_LiBH8C4OF4
_symmetry_space_group_name_H-M   'P 1'
_cell_length_a   8.81240012
_cell_length_b   9.25493062
_cell_length_c   9.59651384
_cell_angle_alpha   90.00494506
_cell_angle_beta   110.96706766
_cell_angle_gamma   89.99428503
_symmetry_Int_Tables_number   1
_chemical_formula_structural   LiBH8C4OF4
_chemical_formula_sum   'Li4 B4 H32 C16 O4 F16'
_cell_volume   730.85015441
_cell_formula_units_Z   4
loop_
 _symmetry_equiv_pos_site_id
 _symmetry_equiv_pos_as_xyz
  1  'x, y, z'
loop_
 _atom_site_type_symbol
 _atom_site_label
 _atom_site_symmetry_multiplicity
 _atom_site_fract_x
 _atom_site_fract_y
 _atom_site_fract_z
 _atom_site_occupancy
 _atom_site_pbe_bader_spin_density
 _atom_site_pbe_cm5_charge
 _atom_site_pbe_ddec_charge
 _atom_site_pbe_ddec_spin_density
 _atom_site_pbe_ddec_sum_bond_order
 _atom_site_pbe_magmom
Li  Li0  1  0.96038517  0.34460673  0.14849174  1  0  0.537099  0.810151  0  0.512771  0
Li  Li1  1  0.03960599  0.84458315  0.35151055  1  0  0.537013  0.810115  0  0.512785  0
Li  Li2  1  0.03967745  0.65538966  0.85153041  1  0  0.537218  0.810159  0  0.512811  0
Li  Li3  1  0.96036552  0.15540460  0.64846694  1  0  0.536914  0.810126  0  0.512698  0
B  B4  1  0.14643138  0.17276795  0.43271438  1  0  0.070211  1.088757  0  3.204303  0
B  B5  1  0.85359600  0.67272622  0.06728869  1  0  0.070154  1.088865  0  3.204343  0
B  B6  1  0.85358626  0.82720468  0.56730334  1  0  0.070179  1.088889  0  3.203711  0
B  B7  1  0.14639734  0.32726046  0.93271893  1  0  0.070223  1.08892  0  3.203693  0
H  H8  1  0.74459694  0.32775008  0.81959389  1  0  0.103143  0.049595  0  1.020191  0
H  H9  1  0.25536360  0.82772965  0.68038017  1  0  0.103111  0.049642  0  1.020511  0
H  H10  1  0.25541698  0.67227010  0.18046220  1  0  0.103098  0.04955  0  1.02029  0
H  H11  1  0.74459704  0.17231753  0.31955622  1  0  0.103084  0.049654  0  1.020321  0
H  H12  1  0.60144913  0.38504246  0.90260928  1  0  0.109978  0.080847  0  0.977234  0
H  H13  1  0.39853328  0.88503456  0.59741948  1  0  0.109947  0.080866  0  0.977394  0
H  H14  1  0.39858416  0.61496042  0.09748759  1  0  0.109919  0.08074  0  0.977533  0
H  H15  1  0.60142617  0.11498345  0.40250818  1  0  0.109935  0.080843  0  0.977599  0
H  H16  1  0.45556326  0.15996880  0.84249809  1  0  0.090834  0.097611  0  1.016792  0
H  H17  1  0.54449259  0.65999139  0.65756015  1  0  0.090848  0.097597  0  1.016503  0
H  H18  1  0.54443977  0.84001788  0.15752835  1  0  0.090958  0.097842  0  1.01646  0
H  H19  1  0.45547649  0.34003418  0.34241446  1  0  0.090841  0.09771  0  1.016823  0
H  H20  1  0.51730320  0.17238900  0.68591895  1  0  0.096876  0.106971  0  1.011592  0
H  H21  1  0.48267630  0.67238068  0.81410158  1  0  0.096873  0.107099  0  1.011393  0
H  H22  1  0.48271562  0.82765927  0.31411480  1  0  0.096936  0.10712  0  1.011569  0
H  H23  1  0.51727941  0.32766110  0.18586966  1  0  0.096864  0.107083  0  1.011417  0
H  H24  1  0.75196400  0.01719773  0.80221962  1  0  0.097139  0.089937  0  1.020266  0
H  H25  1  0.24804314  0.51724439  0.69774397  1  0  0.097123  0.089885  0  1.020379  0
H  H26  1  0.24803423  0.98282893  0.19777086  1  0  0.0971  0.089953  0  1.02027  0
H  H27  1  0.75191744  0.48278443  0.30222366  1  0  0.097012  0.089819  0  1.020185  0
H  H28  1  0.60915022  0.93432071  0.86759017  1  0  0.09909  0.104949  0  0.996606  0
H  H29  1  0.39090588  0.43430270  0.63244827  1  0  0.099015  0.104853  0  0.996981  0
H  H30  1  0.39086382  0.06566812  0.13240240  1  0  0.09911  0.10496  0  0.996966  0
H  H31  1  0.60906680  0.56571964  0.36754733  1  0  0.099035  0.104872  0  0.997331  0
H  H32  1  0.72425531  0.04349664  0.10903838  1  0  0.102236  0.060453  0  0.994087  0
H  H33  1  0.27578659  0.54344994  0.39092226  1  0  0.102228  0.060462  0  0.99416  0
H  H34  1  0.27579520  0.95646410  0.89096101  1  0  0.102174  0.060339  0  0.994025  0
H  H35  1  0.72422016  0.45655294  0.60906478  1  0  0.102145  0.060274  0  0.994104  0
H  H36  1  0.90300282  0.04516844  0.06237472  1  0  0.107092  0.06049  0  1.020188  0
H  H37  1  0.09707898  0.54513635  0.43763257  1  0  0.107112  0.060622  0  1.020155  0
H  H38  1  0.09702824  0.95480419  0.93762034  1  0  0.107199  0.060635  0  1.020341  0
H  H39  1  0.90290716  0.45484817  0.56232474  1  0  0.107107  0.060705  0  1.020306  0
C  C40  1  0.66847905  0.29217115  0.88270721  1  0  -0.061335  0.046838  0  3.863551  0
C  C41  1  0.33150020  0.79214976  0.61730445  1  0  -0.061342  0.046499  0  3.864216  0
C  C42  1  0.33152999  0.70784254  0.11735353  1  0  -0.06121  0.046952  0  3.863841  0
C  C43  1  0.66844583  0.20787582  0.38264691  1  0  -0.061335  0.046547  0  3.863877  0
C  C44  1  0.56133043  0.16469811  0.80790958  1  0  -0.168635  -0.195874  0  3.930638  0
C  C45  1  0.43868135  0.66469382  0.69210012  1  0  -0.168576  -0.195755  0  3.93031  0
C  C46  1  0.43868719  0.83531342  0.19212064  1  0  -0.168785  -0.196194  0  3.930464  0
C  C47  1  0.56126586  0.33533392  0.30786518  1  0  -0.16848  -0.195991  0  3.930815  0
C  C48  1  0.67464166  0.03517530  0.86825138  1  0  -0.162751  -0.183729  0  3.91789  0
C  C49  1  0.32540769  0.53516551  0.63174744  1  0  -0.162576  -0.183603  0  3.918672  0
C  C50  1  0.32536993  0.96484271  0.13174976  1  0  -0.162723  -0.183816  0  3.91815  0
C  C51  1  0.67454676  0.46485790  0.36824526  1  0  -0.16253  -0.183415  0  3.918658  0
C  C52  1  0.77623827  0.08134492  0.02690297  1  0  -0.060871  0.041966  0  3.869566  0
C  C53  1  0.22383081  0.58131482  0.47309063  1  0  -0.060938  0.041789  0  3.870286  0
C  C54  1  0.22378910  0.91863096  0.97311588  1  0  -0.060849  0.041948  0  3.869974  0
C  C55  1  0.77616990  0.41869022  0.52687462  1  0  -0.060914  0.04173  0  3.869932  0
O  O56  1  0.77455260  0.23905882  0.02804030  1  0  -0.321528  -0.365857  0  2.463028  0
O  O57  1  0.22547535  0.73903062  0.47195285  1  0  -0.321502  -0.365716  0  2.463231  0
O  O58  1  0.22548202  0.76092138  0.97199970  1  0  -0.321632  -0.365804  0  2.463214  0
O  O59  1  0.77447186  0.26096254  0.52801350  1  0  -0.321428  -0.365638  0  2.462673  0
F  F60  1  0.04269314  0.28556842  0.34864012  1  0  -0.172819  -0.480319  0  1.225121  0
F  F61  1  0.95729198  0.78553738  0.15137298  1  0  -0.172774  -0.480224  0  1.225002  0
F  F62  1  0.95728796  0.71440961  0.65140722  1  0  -0.172834  -0.480336  0  1.225209  0
F  F63  1  0.04269046  0.21448387  0.84860916  1  0  -0.172671  -0.480264  0  1.225297  0
F  F64  1  0.13113837  0.16630716  0.57522506  1  0  -0.174976  -0.487778  0  1.216115  0
F  F65  1  0.86896682  0.66617392  0.92483019  1  0  -0.174988  -0.487723  0  1.216418  0
F  F66  1  0.86890477  0.83364494  0.42481254  1  0  -0.174934  -0.487704  0  1.216209  0
F  F67  1  0.13110673  0.33374360  0.07519869  1  0  -0.174874  -0.487652  0  1.216401  0
F  F68  1  0.08820181  0.04029191  0.35535717  1  0  -0.175286  -0.498826  0  1.251125  0
F  F69  1  0.91175504  0.54028402  0.14470227  1  0  -0.175257  -0.49881  0  1.251525  0
F  F70  1  0.91178424  0.95969045  0.64464284  1  0  -0.17518  -0.498809  0  1.251252  0
F  F71  1  0.08829288  0.45972643  0.85537859  1  0  -0.175292  -0.498796  0  1.251658  0
F  F72  1  0.30608651  0.19641006  0.44685647  1  0  -0.115444  -0.426262  0  1.221892  0
F  F73  1  0.69387099  0.69640916  0.05304632  1  0  -0.115553  -0.426509  0  1.22158  0
F  F74  1  0.69388137  0.80357554  0.55310940  1  0  -0.115573  -0.426288  0  1.221526  0
F  F75  1  0.30616864  0.30354726  0.94691822  1  0  -0.115779  -0.426537  0  1.220531  0
