# generated using pymatgen
data_ZnH8C10(N3O2)2
_symmetry_space_group_name_H-M   'P 1'
_cell_length_a   7.91522557
_cell_length_b   7.91520813
_cell_length_c   10.59936952
_cell_angle_alpha   89.11601974
_cell_angle_beta   89.11661652
_cell_angle_gamma   73.94834821
_symmetry_Int_Tables_number   1
_chemical_formula_structural   ZnH8C10(N3O2)2
_chemical_formula_sum   'Zn2 H16 C20 N12 O8'
_cell_volume   638.04882140
_cell_formula_units_Z   2
loop_
 _symmetry_equiv_pos_site_id
 _symmetry_equiv_pos_as_xyz
  1  'x, y, z'
loop_
 _atom_site_type_symbol
 _atom_site_label
 _atom_site_symmetry_multiplicity
 _atom_site_fract_x
 _atom_site_fract_y
 _atom_site_fract_z
 _atom_site_occupancy
 _atom_site_pbe_bader_spin_density
 _atom_site_pbe_cm5_charge
 _atom_site_pbe_ddec_charge
 _atom_site_pbe_ddec_spin_density
 _atom_site_pbe_ddec_sum_bond_order
 _atom_site_pbe_magmom
Zn  Zn0  1  0.38430639  0.61568854  0.24999970  1  0  0.691898  0.777843  0  2.307388  0
Zn  Zn1  1  0.61569297  0.38430929  0.74999891  1  0  0.691897  0.777829  0  2.307368  0
H  H2  1  0.26407032  0.81865586  0.62570614  1  0  0.322776  0.33333  0  0.914521  0
H  H3  1  0.18134377  0.73593047  0.87428871  1  0  0.322804  0.33343  0  0.914339  0
H  H4  1  0.73592496  0.18134864  0.37429147  1  0  0.322796  0.333373  0  0.914451  0
H  H5  1  0.81866264  0.26406959  0.12570784  1  0  0.322806  0.333382  0  0.914483  0
H  H6  1  0.39758806  0.73513333  0.49680842  1  0  0.308931  0.332884  0  0.974415  0
H  H7  1  0.26486529  0.60241153  0.00318663  1  0  0.308957  0.332914  0  0.974385  0
H  H8  1  0.60240745  0.26486467  0.50318930  1  0  0.308913  0.332861  0  0.974386  0
H  H9  1  0.73513888  0.39758735  0.99681092  1  0  0.30895  0.33293  0  0.974378  0
H  H10  1  0.72112452  0.77966620  0.54480882  1  0  0.116229  0.096339  0  1.013321  0
H  H11  1  0.22033313  0.27887539  0.95519174  1  0  0.116215  0.096327  0  1.013351  0
H  H12  1  0.27886766  0.22034626  0.45518965  1  0  0.116228  0.096366  0  1.013247  0
H  H13  1  0.77968285  0.72112162  0.04480563  1  0  0.116174  0.096332  0  1.013499  0
H  H14  1  0.04000332  0.57226482  0.21956566  1  0  0.123687  0.097068  0  0.997223  0
H  H15  1  0.42774233  0.95998194  0.28043064  1  0  0.123673  0.097029  0  0.997212  0
H  H16  1  0.95998717  0.42773864  0.78043489  1  0  0.123692  0.097061  0  0.99713  0
H  H17  1  0.57226180  0.04001178  0.71956984  1  0  0.123665  0.097014  0  0.997224  0
C  C18  1  0.71051923  0.62197563  0.30992484  1  0  0.201379  0.578182  0  4.238155  0
C  C19  1  0.37803047  0.28946939  0.19007476  1  0  0.201323  0.578146  0  4.238188  0
C  C20  1  0.28947190  0.37802523  0.69007857  1  0  0.20139  0.578168  0  4.238267  0
C  C21  1  0.62197046  0.71052192  0.80992960  1  0  0.201398  0.578195  0  4.238134  0
C  C22  1  0.85719461  0.66813389  0.37266179  1  0  -0.040135  -0.185833  0  4.023017  0
C  C23  1  0.33187615  0.14280010  0.12733707  1  0  -0.040198  -0.185855  0  4.022964  0
C  C24  1  0.14280130  0.33186801  0.62733869  1  0  -0.04024  -0.185898  0  4.023095  0
C  C25  1  0.66812011  0.85720053  0.87266814  1  0  -0.040148  -0.185791  0  4.022927  0
C  C26  1  0.84506888  0.74804445  0.49147383  1  0  0.071206  0.1508  0  3.941022  0
C  C27  1  0.25195688  0.15493068  0.00852380  1  0  0.071185  0.150795  0  3.940918  0
C  C28  1  0.15492452  0.25196275  0.50852471  1  0  0.071199  0.150773  0  3.940829  0
C  C29  1  0.74805019  0.84506680  0.99147750  1  0  0.071205  0.150775  0  3.941232  0
C  C30  1  0.13595257  0.74401279  0.48129345  1  0  0.350364  0.578504  0  4.067102  0
C  C31  1  0.25598838  0.86404493  0.01870339  1  0  0.350345  0.578472  0  4.066926  0
C  C32  1  0.86404142  0.25599176  0.51870325  1  0  0.350285  0.578372  0  4.067025  0
C  C33  1  0.74401963  0.13595378  0.98129504  1  0  0.350423  0.578653  0  4.066826  0
C  C34  1  0.02026509  0.63302387  0.31235682  1  0  0.071357  0.145401  0  3.932665  0
C  C35  1  0.36698203  0.97972446  0.18763911  1  0  0.071404  0.145431  0  3.932772  0
C  C36  1  0.97972855  0.36697682  0.68764183  1  0  0.071409  0.145426  0  3.932617  0
C  C37  1  0.63301766  0.02027208  0.81236234  1  0  0.071394  0.145419  0  3.932748  0
N  N38  1  0.15914294  0.66969938  0.36366662  1  0  -0.33844  -0.378367  0  3.442126  0
N  N39  1  0.33030260  0.84085339  0.13632965  1  0  -0.338419  -0.37828  0  3.442321  0
N  N40  1  0.84085008  0.33030393  0.63633105  1  0  -0.338425  -0.378292  0  3.442134  0
N  N41  1  0.66970219  0.15914288  0.86366983  1  0  -0.338476  -0.378341  0  3.442197  0
N  N42  1  0.98054305  0.78519826  0.54569433  1  0  -0.336235  -0.407034  0  3.220819  0
N  N43  1  0.21479994  0.01945846  0.95430249  1  0  -0.336185  -0.407023  0  3.220645  0
N  N44  1  0.01945100  0.21481149  0.45430227  1  0  -0.336159  -0.406966  0  3.220623  0
N  N45  1  0.78521348  0.98053867  0.04569399  1  0  -0.336208  -0.407082  0  3.220705  0
N  N46  1  0.27400380  0.77753251  0.53527924  1  0  -0.554934  -0.618273  0  3.321293  0
N  N47  1  0.22246697  0.72599769  0.96471485  1  0  -0.55496  -0.618372  0  3.321061  0
N  N48  1  0.72599397  0.22246668  0.46471843  1  0  -0.554906  -0.618237  0  3.321158  0
N  N49  1  0.77754043  0.27400363  0.03528260  1  0  -0.554966  -0.618414  0  3.321203  0
O  O50  1  0.55827940  0.66364219  0.36795017  1  0  -0.327493  -0.558314  0  2.34412  0
O  O51  1  0.33635855  0.44171580  0.13204866  1  0  -0.327521  -0.558313  0  2.344034  0
O  O52  1  0.44171462  0.33636241  0.63205030  1  0  -0.327529  -0.558301  0  2.344012  0
O  O53  1  0.66364402  0.55827932  0.86795465  1  0  -0.327518  -0.558348  0  2.344145  0
O  O54  1  0.73291498  0.54861813  0.20466073  1  0  -0.314629  -0.55361  0  2.177884  0
O  O55  1  0.45138764  0.26707631  0.29534014  1  0  -0.314585  -0.553634  0  2.177902  0
O  O56  1  0.26707993  0.45137737  0.79534460  1  0  -0.3146  -0.553602  0  2.178024  0
O  O57  1  0.54861651  0.73291743  0.70466223  1  0  -0.314646  -0.553645  0  2.177841  0
