# generated using pymatgen
data_AlH27C45(SO4)6
_symmetry_space_group_name_H-M   'P 1'
_cell_length_a   4.30924073
_cell_length_b   23.33920225
_cell_length_c   23.31129989
_cell_angle_alpha   60.13697365
_cell_angle_beta   88.64894270
_cell_angle_gamma   88.33813282
_symmetry_Int_Tables_number   1
_chemical_formula_structural   AlH27C45(SO4)6
_chemical_formula_sum   'Al1 H27 C45 S6 O24'
_cell_volume   2032.23918837
_cell_formula_units_Z   1
loop_
 _symmetry_equiv_pos_site_id
 _symmetry_equiv_pos_as_xyz
  1  'x, y, z'
loop_
 _atom_site_type_symbol
 _atom_site_label
 _atom_site_symmetry_multiplicity
 _atom_site_fract_x
 _atom_site_fract_y
 _atom_site_fract_z
 _atom_site_occupancy
 _atom_site_pbe_bader_charge
 _atom_site_pbe_bader_spin_density
 _atom_site_pbe_cm5_charge
 _atom_site_pbe_ddec_charge
 _atom_site_pbe_ddec_spin_density
 _atom_site_pbe_ddec_sum_bond_order
 _atom_site_pbe_magmom
Al  Al0  1  0.15172236  0.49926515  0.49969469  1  2.520379  0  0.463347  1.654375  0  2.469768  0
H  H1  1  0.50429940  0.32969657  0.66454065  1  0.106972  0  0.119726  0.132247  0  0.961464  0
H  H2  1  0.42026318  0.25747234  0.78367432  1  0.105083  0  0.113165  0.125512  0  1.010487  0
H  H3  1  0.72286046  0.15198442  0.02275676  1  0.103094  0  0.109641  0.117914  0  1.013193  0
H  H4  1  0.63668986  0.81453059  0.26335214  1  0.104792  0  0.11109  0.118352  0  1.009484  0
H  H5  1  0.22773592  0.88475598  0.24612303  1  0.098764  0  0.112423  0.120005  0  0.983813  0
H  H6  1  0.18344078  0.00525838  0.17897465  1  0.091216  0  0.109255  0.110732  0  0.987261  0
H  H7  1  0.42871186  0.09838010  0.11183856  1  0.055865  0  0.103861  0.106283  0  1.015576  0
H  H8  1  0.49082587  0.66499735  0.50439976  1  0.091037  0  0.119645  0.132637  0  0.962059  0
H  H9  1  0.41077675  0.78429266  0.45793178  1  0.159076  0  0.112974  0.12457  0  1.010692  0
H  H10  1  0.71357012  0.02231803  0.32391211  1  0.095211  0  0.109868  0.117464  0  1.016127  0
H  H11  1  0.69066897  0.26429210  0.41780800  1  0.112072  0  0.111033  0.117853  0  1.010349  0
H  H12  1  0.25747918  0.24706145  0.37093724  1  0.099522  0  0.112487  0.120672  0  0.985866  0
H  H13  1  0.20311491  0.17992921  0.31774926  1  0.10566  0  0.109338  0.110812  0  0.985992  0
H  H14  1  0.45176789  0.11226615  0.28892376  1  0.027204  0  0.103904  0.10598  0  1.016883  0
H  H15  1  0.49258180  0.50370684  0.33098045  1  0.087859  0  0.119559  0.132126  0  0.963229  0
H  H16  1  0.41341931  0.45665484  0.25885149  1  0.124752  0  0.113737  0.126941  0  1.005115  0
H  H17  1  0.73664059  0.32178205  0.15106499  1  0.099189  0  0.109433  0.116342  0  1.011522  0
H  H18  1  0.61330056  0.42002887  0.81558745  1  0.117128  0  0.111447  0.118451  0  1.009256  0
H  H19  1  0.20641858  0.36867918  0.88472821  1  0.085814  0  0.112487  0.119971  0  0.984039  0
H  H20  1  0.16247635  0.31547173  0.00551722  1  0.062854  0  0.109227  0.111182  0  0.986083  0
H  H21  1  0.44186571  0.28888754  0.09836453  1  0.023478  0  0.104084  0.107115  0  1.014058  0
H  H22  1  0.22621860  0.30617312  0.54884319  1  0.681922  0  0.315128  0.391698  0  0.95563  0
H  H23  1  0.15241356  0.55060172  0.64135003  1  0.675607  0  0.315604  0.392661  0  0.954412  0
H  H24  1  0.18403109  0.63977026  0.30723665  1  0.667988  0  0.315576  0.392631  0  0.954564  0
H  H25  1  0.37272680  0.44450505  0.13151957  1  0.674264  0  0.312977  0.384942  0  0.952719  0
H  H26  1  0.36071430  0.13315778  0.91850270  1  0.677692  0  0.312307  0.38507  0  0.953997  0
H  H27  1  0.32701703  0.91873597  0.44690378  1  0.674892  0  0.312863  0.385985  0  0.95298  0
C  C28  1  0.63983045  0.45760905  0.59824781  1  1.647081  0  0.280962  0.676446  0  4.076063  0
C  C29  1  0.66191197  0.44277946  0.45744727  1  1.629182  0  0.281363  0.6758  0  4.074041  0
C  C30  1  0.63947488  0.59776870  0.44276835  1  1.645571  0  0.280521  0.6753  0  4.076163  0
C  C31  1  0.52426011  0.34960521  0.69781024  1  -0.001599  0  -0.068501  -0.074195  0  3.902132  0
C  C32  1  0.48188797  0.30841130  0.76549654  1  0.035703  0  -0.067356  -0.066452  0  3.911839  0
C  C33  1  0.61881915  0.22854835  0.92430247  1  -0.219647  0  -0.017948  -0.157051  0  3.959179  0
C  C34  1  0.60076171  0.19894668  0.99312122  1  0.033714  0  -0.082051  -0.130777  0  3.974247  0
C  C35  1  0.62681920  0.71445920  0.34236280  1  -0.134261  0  -0.019752  -0.134788  0  3.987842  0
C  C36  1  0.59371994  0.78256690  0.31612352  1  -0.054979  0  -0.078956  -0.132711  0  3.968971  0
C  C37  1  0.33612882  0.91506168  0.26328840  1  0.022554  0  -0.080414  -0.117174  0  3.956212  0
C  C38  1  0.31260471  0.98336540  0.22504436  1  -0.139169  0  -0.079526  -0.105152  0  3.965412  0
C  C39  1  0.59331489  0.41632962  0.67163869  1  -0.000999  0  0.004804  -0.021082  0  3.935413  0
C  C40  1  0.51503182  0.33235256  0.80954342  1  -0.056135  0  -0.007359  0.057242  0  3.985895  0
C  C41  1  0.48478483  0.29180931  0.88256700  1  -0.017096  0  0.009583  0.076695  0  3.94536  0
C  C42  1  0.44165244  0.22933148  0.02412632  1  -0.012927  0  -0.004417  0.072486  0  4.001457  0
C  C43  1  0.43418654  0.19720272  0.09696669  1  0.111187  0  -0.006765  0.0803  0  4.032799  0
C  C44  1  0.43219954  0.12814953  0.13594941  1  -0.127891  0  -0.086491  -0.178078  0  3.926398  0
C  C45  1  0.51819474  0.69796706  0.45125932  1  0.046756  0  -0.068264  -0.074965  0  3.901183  0
C  C46  1  0.47808052  0.76577200  0.42496626  1  -0.033461  0  -0.067569  -0.064637  0  3.910279  0
C  C47  1  0.61418845  0.92422254  0.34586514  1  -0.201285  0  -0.01727  -0.157145  0  3.9607  0
C  C48  1  0.59791233  0.99295472  0.30664907  1  0.001871  0  -0.082516  -0.130173  0  3.974134  0
C  C49  1  0.67294106  0.34310779  0.43968031  1  -0.203312  0  -0.019753  -0.135406  0  3.99225  0
C  C50  1  0.63963939  0.31673980  0.39813255  1  -0.010505  0  -0.07987  -0.134778  0  3.975591  0
C  C51  1  0.36319473  0.26357364  0.32237783  1  -0.052441  0  -0.081315  -0.118918  0  3.956064  0
C  C52  1  0.33443014  0.22539393  0.29245685  1  -0.045021  0  -0.077954  -0.103342  0  3.964348  0
C  C53  1  0.59446325  0.67125871  0.41059866  1  -0.04419  0  0.004847  -0.020333  0  3.935871  0
C  C54  1  0.52022159  0.80942165  0.35702577  1  0.059743  0  -0.007728  0.056557  0  3.987254  0
C  C55  1  0.48979697  0.88244086  0.32461429  1  0.01353  0  0.00995  0.075767  0  3.947799  0
C  C56  1  0.44808721  0.02404498  0.24562010  1  0.017439  0  -0.004675  0.071831  0  3.999363  0
C  C57  1  0.43873753  0.09683317  0.20513042  1  -0.014784  0  -0.006904  0.079935  0  4.031318  0
C  C58  1  0.44537844  0.13600562  0.23514735  1  -0.079463  0  -0.085768  -0.176103  0  3.924511  0
C  C59  1  0.53370200  0.45097238  0.35008217  1  0.015749  0  -0.067844  -0.073244  0  3.900429  0
C  C60  1  0.49342747  0.42449109  0.30895339  1  -0.010433  0  -0.067722  -0.068969  0  3.908286  0
C  C61  1  0.64375913  0.34453897  0.22821593  1  -0.211826  0  -0.018173  -0.159434  0  3.964463  0
C  C62  1  0.62221458  0.30537821  0.19872447  1  -0.039899  0  -0.080699  -0.126482  0  3.971626  0
C  C63  1  0.61406063  0.44110504  0.71522348  1  -0.245755  0  -0.019119  -0.13303  0  3.986639  0
C  C64  1  0.57936912  0.39953871  0.78324686  1  0.086074  0  -0.079768  -0.134036  0  3.969405  0
C  C65  1  0.32144494  0.32090540  0.91512363  1  0.077597  0  -0.080571  -0.117503  0  3.955611  0
C  C66  1  0.29773741  0.29096431  0.98348883  1  -0.132661  0  -0.078784  -0.105572  0  3.966832  0
C  C67  1  0.62529907  0.41091515  0.41583788  1  0.030497  0  0.005124  -0.02132  0  3.934246  0
C  C68  1  0.55132304  0.35706714  0.33204470  1  0.041739  0  -0.006501  0.059042  0  3.989115  0
C  C69  1  0.51903396  0.32422128  0.29203318  1  0.039815  0  0.010334  0.07856  0  3.948439  0
C  C70  1  0.46693525  0.24537015  0.22985290  1  -0.000222  0  -0.005418  0.069643  0  3.99978  0
C  C71  1  0.44791137  0.20507762  0.19741787  1  0.090617  0  -0.006501  0.080732  0  4.030638  0
C  C72  1  0.43996106  0.23512015  0.12828784  1  0.000123  0  -0.086276  -0.178023  0  3.924116  0
S  S73  1  0.78281323  0.28580715  0.52241589  1  3.126161  0  0.557079  1.193343  0  5.981274  0
S  S74  1  0.70288697  0.52482633  0.68873756  1  3.123436  0  0.556679  1.190951  0  5.982123  0
S  S75  1  0.73294624  0.68733477  0.28525442  1  3.143699  0  0.556718  1.192726  0  5.98412  0
S  S76  1  0.83232567  0.42109630  0.17747143  1  3.084353  0  0.558372  1.187094  0  5.937801  0
S  S77  1  0.81990709  0.17877227  0.89644643  1  3.100844  0  0.558205  1.185305  0  5.938974  0
S  S78  1  0.79763352  0.89651984  0.42347775  1  3.097604  0  0.558328  1.184825  0  5.940811  0
O  O79  1  0.42368854  0.56606207  0.43511515  1  -1.255134  0  -0.23908  -0.604453  0  2.354084  0
O  O80  1  0.41769596  0.49726639  0.56618516  1  -1.256155  0  -0.239448  -0.606681  0  2.357355  0
O  O81  1  0.43905588  0.43529079  0.49733590  1  -1.256768  0  -0.239  -0.604009  0  2.3583  0
O  O82  1  0.88451887  0.57434304  0.47653532  1  -1.248972  0  -0.224138  -0.587649  0  2.368319  0
O  O83  1  0.90611747  0.47573096  0.44729438  1  -1.24183  0  -0.22316  -0.584718  0  2.36422  0
O  O84  1  0.89136806  0.44719510  0.57521050  1  -1.241867  0  -0.224213  -0.586298  0  2.36188  0
O  O85  1  0.51210197  0.27138642  0.56623681  1  -1.307356  0  -0.312085  -0.542356  0  2.260294  0
O  O86  1  0.93842855  0.23035245  0.52285027  1  -1.284898  0  -0.310292  -0.523406  0  2.107389  0
O  O87  1  0.99841892  0.32627759  0.54024709  1  -1.292532  0  -0.338468  -0.533351  0  2.306704  0
O  O88  1  0.42822983  0.56719965  0.65993413  1  -1.3104  0  -0.311508  -0.542437  0  2.271561  0
O  O89  1  0.84326666  0.52699272  0.74284450  1  -1.285057  0  -0.309127  -0.520997  0  2.108716  0
O  O90  1  0.92782324  0.54313646  0.62968459  1  -1.273534  0  -0.338356  -0.533096  0  2.302251  0
O  O91  1  0.46619084  0.65868581  0.27188271  1  -1.309469  0  -0.311198  -0.543288  0  2.278423  0
O  O92  1  0.88016632  0.74095975  0.22900282  1  -1.290295  0  -0.308792  -0.520925  0  2.10893  0
O  O93  1  0.95588459  0.62809155  0.32595340  1  -1.278742  0  -0.339108  -0.533717  0  2.301137  0
O  O94  1  0.56535624  0.46808032  0.13363192  1  -1.262  0  -0.344951  -0.510051  0  2.215698  0
O  O95  1  0.95892655  0.44826159  0.21489003  1  -1.293824  0  -0.286549  -0.515952  0  2.227133  0
O  O96  1  0.05324711  0.41089040  0.13418419  1  -1.310661  0  -0.321642  -0.56973  0  2.189286  0
O  O97  1  0.56157417  0.13532592  0.89287372  1  -1.266544  0  -0.343754  -0.509943  0  2.219495  0
O  O98  1  0.95548109  0.21695222  0.83187180  1  -1.301227  0  -0.285888  -0.516131  0  2.231998  0
O  O99  1  0.03617552  0.13507122  0.94902174  1  -1.315657  0  -0.320918  -0.567597  0  2.193379  0
O  O100  1  0.52617272  0.89314392  0.47030956  1  -1.269281  0  -0.343962  -0.510436  0  2.219567  0
O  O101  1  0.93740225  0.83196390  0.44972240  1  -1.298109  0  -0.285682  -0.515848  0  2.235029  0
O  O102  1  0.00676260  0.94903268  0.41488191  1  -1.311753  0  -0.32124  -0.567162  0  2.194544  0
