# generated using pymatgen
data_CuH10C13(NO3)2
_symmetry_space_group_name_H-M   'P 1'
_cell_length_a   8.79383161
_cell_length_b   9.65064740
_cell_length_c   9.85856484
_cell_angle_alpha   100.56521493
_cell_angle_beta   115.22433335
_cell_angle_gamma   102.50900743
_symmetry_Int_Tables_number   1
_chemical_formula_structural   CuH10C13(NO3)2
_chemical_formula_sum   'Cu2 H20 C26 N4 O12'
_cell_volume   701.99818246
_cell_formula_units_Z   2
loop_
 _symmetry_equiv_pos_site_id
 _symmetry_equiv_pos_as_xyz
  1  'x, y, z'
loop_
 _atom_site_type_symbol
 _atom_site_label
 _atom_site_symmetry_multiplicity
 _atom_site_fract_x
 _atom_site_fract_y
 _atom_site_fract_z
 _atom_site_occupancy
 _atom_site_hle17_ddec_charge
 _atom_site_hle17_ddec_spin_density
 _atom_site_hle17_ddec_sum_bond_order
 _atom_site_hle17_magmom
 _atom_site_hse06_10hf_ddec_charge
 _atom_site_hse06_10hf_ddec_spin_density
 _atom_site_hse06_10hf_ddec_sum_bond_order
 _atom_site_hse06_10hf_magmom
 _atom_site_hse06_ddec_charge
 _atom_site_hse06_ddec_spin_density
 _atom_site_hse06_ddec_sum_bond_order
 _atom_site_hse06_magmom
 _atom_site_pbe_cm5_charge
 _atom_site_pbe_ddec_charge
 _atom_site_pbe_ddec_spin_density
 _atom_site_pbe_ddec_sum_bond_order
 _atom_site_pbe_magmom
Cu  Cu0  1  0.16918733  0.24562631  0.35956612  1  0.893606  -0.732435  1.808419  -0.511  0.882952  -0.814552  2.208452  -0.632  0.988641  -0.893057  2.111796  -0.72  0.724649  0.825958  -0.750408  2.25896  -0.568
Cu  Cu1  1  0.83080495  0.75437313  0.64042187  1  0.893655  0.732435  1.808399  0.511  0.882947  0.814555  2.208534  0.632  0.988685  0.893057  2.111805  0.72  0.724683  0.825958  0.750404  2.259043  0.568
H  H2  1  0.31567262  0.98650424  0.93833040  1  0.12028  -0.000196  0.958534  0.0  0.12674  -3.4e-05  1.020519  0.0  0.129762  -1.5e-05  1.020056  0.0  0.113953  0.124476  -2.2e-05  1.021147  0.0
H  H3  1  0.68433073  0.01348508  0.06167487  1  0.120321  0.000195  0.95837  0.0  0.126758  3.4e-05  1.020374  0.0  0.12978  1.5e-05  1.019912  0.0  0.113934  0.124495  2.2e-05  1.021004  0.0
H  H4  1  0.53053419  0.18068728  0.90399234  1  0.120447  0.000447  0.938191  0.0  0.129212  9.4e-05  0.998127  0.0  0.132483  6.8e-05  0.995814  0.0  0.114266  0.126615  7.8e-05  1.000311  0.0
H  H5  1  0.46948026  0.81929304  0.09601215  1  0.120465  -0.000446  0.938215  0.0  0.129192  -9.3e-05  0.99818  0.0  0.132465  -6.8e-05  0.99586  0.0  0.114268  0.126581  -7.8e-05  1.00041  0.0
H  H6  1  0.65704950  0.44217993  0.08626704  1  0.128818  -0.00045  0.913263  -0.001  0.138588  -0.000155  0.96721  0.0  0.142211  -0.000112  0.96559  0.0  0.12036  0.135777  -0.000197  0.968843  0.0
H  H7  1  0.34296777  0.55780159  0.91373662  1  0.128815  0.00045  0.913318  0.001  0.138593  0.000155  0.967261  0.0  0.142216  0.000113  0.965642  0.0  0.120408  0.135791  0.000197  0.968884  0.0
H  H8  1  0.97220827  0.39752778  0.45799633  1  0.08885  -0.000889  0.970852  -0.002  0.096993  -0.000737  1.033792  -0.001  0.099247  -0.000531  1.030921  -0.001  0.119805  0.095224  -0.000895  1.035855  -0.002
H  H9  1  0.02781501  0.60247261  0.54203443  1  0.088919  0.000891  0.970752  0.002  0.097041  0.000737  1.033752  0.001  0.099294  0.000531  1.030885  0.001  0.119768  0.095278  0.000895  1.035816  0.002
H  H10  1  0.73520985  0.34118827  0.53398806  1  0.134221  -0.000422  0.938775  0.0  0.142946  -0.000489  0.996581  0.0  0.147392  -0.000353  0.994714  0.0  0.115111  0.139762  -0.000594  0.997845  -0.001
H  H11  1  0.26482705  0.65882097  0.46604829  1  0.134129  0.000422  0.938663  0.0  0.142936  0.000489  0.996362  0.0  0.14738  0.000353  0.994504  0.0  0.115141  0.139715  0.000594  0.997674  0.001
H  H12  1  0.67435679  0.87282594  0.37467322  1  0.111289  -0.000668  0.987791  0.0  0.111985  -0.000758  1.066894  0.0  0.116374  -0.000627  1.063537  0.0  0.105896  0.108519  -0.000811  1.070438  -0.001
H  H13  1  0.32561572  0.12718412  0.62530707  1  0.111219  0.000672  0.987875  0.0  0.111925  0.000758  1.066994  0.0  0.116314  0.000628  1.063631  0.0  0.105863  0.108457  0.000812  1.070539  0.001
H  H14  1  0.91728051  0.95231014  0.30891443  1  0.09434  -0.000889  0.936126  -0.002  0.10483  -0.000719  0.992221  -0.002  0.107105  -0.000506  0.990701  -0.001  0.120411  0.102999  -0.000915  0.993358  -0.002
H  H15  1  0.08268659  0.04769688  0.69105928  1  0.094234  0.000889  0.936195  0.002  0.104761  0.000718  0.992265  0.002  0.107043  0.000506  0.990746  0.001  0.120388  0.102932  0.000915  0.993407  0.002
H  H16  1  0.53140992  0.16780681  0.56955811  1  0.108675  0.000405  0.969101  0.001  0.11599  0.000111  1.037131  0.0  0.119871  0.000105  1.034503  0.0  0.1052  0.112854  0.000104  1.039835  0.0
H  H17  1  0.46860084  0.83222728  0.43046091  1  0.108551  -0.000405  0.969418  -0.001  0.11605  -0.000111  1.037283  0.0  0.119936  -0.000105  1.034643  0.0  0.105246  0.112918  -0.000104  1.039988  0.0
H  H18  1  0.11378678  0.43217008  0.15884308  1  0.415729  0.0  0.837032  0.0  0.403246  9e-06  0.888198  0.0  0.412896  5e-06  0.8741  0.0  0.310885  0.396523  2.2e-05  0.898096  0.0
H  H19  1  0.88620844  0.56781954  0.84113826  1  0.415604  0.0  0.837146  0.0  0.403138  -9e-06  0.888329  0.0  0.412782  -5e-06  0.874239  0.0  0.310851  0.396416  -2.2e-05  0.898209  0.0
H  H20  1  0.95422628  0.27970797  0.06753539  1  0.42773  -3.1e-05  0.872013  0.0  0.400286  1.2e-05  0.930815  0.0  0.411856  1.2e-05  0.913737  0.0  0.285656  0.392092  2.2e-05  0.942951  0.0
H  H21  1  0.04576551  0.72028842  0.93244658  1  0.427647  3.1e-05  0.872106  0.0  0.40025  -1.2e-05  0.93082  0.0  0.41181  -1.2e-05  0.913764  0.0  0.285658  0.392057  -2.2e-05  0.942956  0.0
C  C22  1  0.20609170  0.01442399  0.14967388  1  0.640559  0.003695  3.923182  0.006  0.596414  -0.000411  4.228833  0.002  0.633702  -0.000265  4.220881  0.001  0.213828  0.57068  -0.000438  4.234044  0.002
C  C23  1  0.79389421  0.98557566  0.85031009  1  0.640505  -0.003697  3.923223  -0.006  0.596447  0.000409  4.228751  -0.002  0.633742  0.000269  4.220797  -0.001  0.213843  0.570713  0.000438  4.233965  -0.002
C  C24  1  0.33410442  0.13592922  0.13420626  1  0.001102  -0.003807  3.612509  -0.004  -0.006936  -0.002539  3.864663  -0.003  -0.005039  -0.002002  3.879312  -0.003  0.106229  -0.009351  -0.003926  3.856495  -0.004
C  C25  1  0.66589384  0.86406728  0.86579309  1  0.001184  0.003817  3.612465  0.004  -0.006937  0.00254  3.864655  0.003  -0.005054  0.002003  3.879326  0.003  0.106221  -0.00935  0.003927  3.856485  0.004
C  C26  1  0.37703550  0.10168422  0.01452744  1  -0.096918  0.004806  3.731866  0.005  -0.120774  0.001715  3.991626  0.002  -0.12475  0.001843  4.010195  0.002  -0.073053  -0.118446  0.002206  3.979927  0.002
C  C27  1  0.62297736  0.89830385  0.98548055  1  -0.096991  -0.00481  3.731593  -0.005  -0.120784  -0.001715  3.991346  -0.002  -0.124757  -0.001845  4.009914  -0.002  -0.07299  -0.11846  -0.002207  3.979654  -0.002
C  C28  1  0.49377881  0.20891234  0.99526894  1  -0.007441  -0.010602  3.687198  -0.01  -0.035913  -0.004548  3.953094  -0.004  -0.030772  -0.003508  3.967448  -0.004  -0.068321  -0.039534  -0.005441  3.944326  -0.005
C  C29  1  0.50622314  0.79107520  0.00472828  1  -0.007314  0.010611  3.687121  0.01  -0.035756  0.004547  3.953015  0.004  -0.030609  0.003511  3.967364  0.004  -0.068275  -0.039387  0.005443  3.944248  0.005
C  C30  1  0.56534897  0.35457331  0.09695741  1  -0.09095  0.007073  3.701278  0.007  -0.114865  0.001992  3.960581  0.002  -0.118977  0.002002  3.977073  0.002  -0.066512  -0.11227  0.001802  3.950734  0.002
C  C31  1  0.43466894  0.64541462  0.90305318  1  -0.091068  -0.007086  3.701561  -0.007  -0.114973  -0.001992  3.96091  -0.002  -0.119086  -0.002005  3.977404  -0.002  -0.066608  -0.112383  -0.001802  3.951057  -0.002
C  C32  1  0.52076864  0.38901346  0.21504234  1  0.037768  -0.00506  3.610839  -0.004  0.028691  -0.001742  3.862733  -0.001  0.033003  -0.001796  3.873452  -0.002  0.118958  0.02467  -0.001196  3.85629  -0.001
C  C33  1  0.47923685  0.61097265  0.78495974  1  0.037767  0.005082  3.610859  0.004  0.02861  0.001745  3.862847  0.001  0.032923  0.001797  3.873564  0.002  0.118954  0.024592  0.001199  3.856393  0.001
C  C34  1  0.58676689  0.54481824  0.32870500  1  0.640833  -0.002532  3.947943  -0.005  0.595848  0.000434  4.254584  -0.001  0.634937  4.5e-05  4.242717  -0.001  0.211198  0.569325  0.000917  4.26263  -0.001
C  C35  1  0.41324052  0.45517383  0.67129309  1  0.640744  0.002528  3.947841  0.005  0.595744  -0.000432  4.254562  0.001  0.634828  -4.5e-05  4.242694  0.001  0.211103  0.569217  -0.000917  4.262607  0.001
C  C36  1  0.90356610  0.28378454  0.44399553  1  0.134102  0.007646  3.704745  0.008  0.106549  0.000738  3.956757  0.001  0.116717  0.001856  3.976338  0.003  0.042328  0.099704  -0.000179  3.944204  0.0
C  C37  1  0.09644934  0.71623029  0.55602213  1  0.133961  -0.007654  3.704552  -0.008  0.106372  -0.000735  3.956722  -0.001  0.116538  -0.001857  3.97631  -0.003  0.042338  0.09952  0.00018  3.944162  0.0
C  C38  1  0.77221985  0.25088794  0.48652560  1  -0.161055  -0.012516  3.670851  -0.013  -0.17729  -0.004403  3.910805  -0.005  -0.1857  -0.00413  3.928351  -0.005  -0.080726  -0.171072  -0.004491  3.898244  -0.005
C  C39  1  0.22779657  0.74913804  0.51349624  1  -0.160785  0.01252  3.670772  0.013  -0.177097  0.004401  3.91074  0.005  -0.185514  0.00413  3.928292  0.005  -0.080692  -0.170848  0.00449  3.898193  0.005
C  C40  1  0.68601987  0.10144367  0.46508967  1  0.151619  0.009202  3.776347  0.01  0.167272  0.002512  4.003604  0.003  0.175356  0.002847  4.024048  0.003  0.011272  0.161896  0.002214  3.989919  0.002
C  C41  1  0.31398462  0.89857262  0.53492181  1  0.151451  -0.009197  3.777057  -0.01  0.167258  -0.002511  4.004182  -0.003  0.175349  -0.002845  4.024617  -0.003  0.011266  0.161885  -0.002213  3.990486  -0.002
C  C42  1  0.73735386  0.99127840  0.39724026  1  -0.169024  -0.013289  3.687695  -0.013  -0.185783  -0.005011  3.93605  -0.006  -0.196637  -0.004632  3.957716  -0.005  -0.082395  -0.180262  -0.005118  3.923325  -0.006
C  C43  1  0.26264101  0.00873883  0.60275513  1  -0.168974  0.013282  3.687545  0.013  -0.185797  0.00501  3.935854  0.006  -0.196649  0.004634  3.957516  0.005  -0.082397  -0.180275  0.005119  3.92313  0.006
C  C44  1  0.87201848  0.03351212  0.35997375  1  0.110626  0.006431  3.734941  0.007  0.087431  -5.5e-05  3.985342  0.001  0.096229  0.001216  4.007022  0.002  0.040572  0.081798  -0.001071  3.971762  0.0
C  C45  1  0.12796244  0.96649502  0.64001766  1  0.110728  -0.006428  3.734753  -0.007  0.087502  5.8e-05  3.985186  -0.001  0.096289  -0.001218  4.006877  -0.002  0.040553  0.081858  0.001072  3.971622  0.0
C  C46  1  0.55005144  0.06957779  0.51209711  1  -0.088634  -0.01321  3.674195  -0.012  -0.110083  -0.002948  3.924716  -0.003  -0.11367  -0.003366  3.944087  -0.004  -0.077258  -0.107931  -0.002417  3.912376  -0.002
C  C47  1  0.44993001  0.93040785  0.48791039  1  -0.088354  0.013208  3.674772  0.012  -0.110039  0.002948  3.925181  0.003  -0.11363  0.003365  3.944549  0.004  -0.077296  -0.107891  0.002416  3.912848  0.002
N  N48  1  0.41011145  0.27988376  0.23370588  1  0.218467  0.004033  3.650975  0.008  0.26762  0.000592  3.912152  0.003  0.269446  0.001049  3.936626  0.003  -0.10265  0.26587  0.000229  3.89662  0.003
N  N49  1  0.58988582  0.72011406  0.76629043  1  0.218511  -0.004047  3.650981  -0.008  0.267705  -0.000594  3.912164  -0.003  0.269535  -0.001047  3.936644  -0.003  -0.102656  0.265953  -0.000231  3.896625  -0.003
N  N50  1  0.95623744  0.17785997  0.38480538  1  -0.31567  -0.07752  3.339779  -0.094  -0.26737  -0.053567  3.635994  -0.07  -0.301691  -0.044932  3.657041  -0.061  -0.359485  -0.247574  -0.057842  3.623612  -0.072
N  N51  1  0.04375528  0.82214689  0.61521011  1  -0.315622  0.077519  3.339891  0.094  -0.267295  0.053563  3.63618  0.069  -0.301622  0.044935  3.657226  0.061  -0.35941  -0.247501  0.05784  3.623811  0.072
O  O52  1  0.11689192  0.04926494  0.21751141  1  -0.602346  -0.082449  2.091573  -0.107  -0.585163  -0.0538  2.386994  -0.077  -0.629921  -0.040766  2.374661  -0.062  -0.326947  -0.555965  -0.062858  2.393807  -0.087
O  O53  1  0.88309959  0.95073912  0.78247548  1  -0.602326  0.082449  2.091593  0.107  -0.585147  0.053802  2.38697  0.077  -0.629916  0.04077  2.374628  0.062  -0.326931  -0.555951  0.062862  2.393788  0.087
O  O54  1  0.19071208  0.88332753  0.08796349  1  -0.583355  -0.012011  1.94323  -0.015  -0.539539  -0.006491  2.158291  -0.009  -0.565344  -0.003359  2.14867  -0.005  -0.304515  -0.52014  -0.009708  2.164163  -0.013
O  O55  1  0.80926401  0.11667058  0.91202611  1  -0.583396  0.012009  1.943245  0.015  -0.539585  0.006493  2.158299  0.009  -0.565396  0.003354  2.148669  0.005  -0.304529  -0.520189  0.009708  2.164171  0.013
O  O56  1  0.39238311  0.32209297  0.36071575  1  -0.465188  -0.088583  1.947902  -0.113  -0.461589  -0.053279  2.246681  -0.075  -0.50367  -0.041125  2.247081  -0.061  -0.227943  -0.435395  -0.058994  2.246103  -0.08
O  O57  1  0.60760505  0.67790728  0.63927724  1  -0.465212  0.08858  1.948077  0.113  -0.461607  0.053271  2.246834  0.075  -0.503697  0.041118  2.247224  0.061  -0.227939  -0.435418  0.05899  2.246258  0.08
O  O58  1  0.49869186  0.62848960  0.28562006  1  -0.576087  0.000349  1.894682  0.001  -0.538319  0.000666  2.109554  0.001  -0.564595  -7.1e-05  2.100355  0.0  -0.306403  -0.520144  0.001465  2.116265  0.002
O  O59  1  0.50131827  0.37151426  0.71437173  1  -0.57601  -0.000348  1.894848  -0.001  -0.538196  -0.000667  2.109711  -0.001  -0.564466  7.2e-05  2.100511  0.0  -0.306343  -0.520038  -0.001465  2.116445  -0.002
O  O60  1  0.73310464  0.57222152  0.45546211  1  -0.590263  0.074839  2.091001  0.097  -0.562816  0.048875  2.371961  0.07  -0.607766  0.038372  2.361162  0.058  -0.313145  -0.533441  0.053486  2.377819  0.073
O  O61  1  0.26689418  0.42777054  0.54453527  1  -0.59025  -0.07484  2.090747  -0.097  -0.562812  -0.048878  2.371721  -0.07  -0.60775  -0.038375  2.360921  -0.058  -0.313147  -0.533432  -0.053489  2.377571  -0.073
O  O62  1  0.02608054  0.36109451  0.16992906  1  -0.832216  0.000502  1.797228  0.0  -0.797263  0.000296  1.95512  0.0  -0.818813  0.000574  1.918928  0.0  -0.591267  -0.783299  7e-05  1.979148  -0.001
O  O63  1  0.97391576  0.63890070  0.83005405  1  -0.832018  -0.000501  1.797486  0.0  -0.797096  -0.000295  1.955403  0.0  -0.818644  -0.000572  1.919227  0.0  -0.591231  -0.783128  -6.9e-05  1.979413  0.001
