# generated using pymatgen
data_Tb2Cu3P6H24C30(NO3)6
_symmetry_space_group_name_H-M   'P 1'
_cell_length_a   10.17121886
_cell_length_b   11.33552041
_cell_length_c   11.33562532
_cell_angle_alpha   111.45913646
_cell_angle_beta   107.39518068
_cell_angle_gamma   107.40467709
_symmetry_Int_Tables_number   1
_chemical_formula_structural   Tb2Cu3P6H24C30(NO3)6
_chemical_formula_sum   'Tb2 Cu3 P6 H24 C30 N6 O18'
_cell_volume   1030.65787609
_cell_formula_units_Z   1
loop_
 _symmetry_equiv_pos_site_id
 _symmetry_equiv_pos_as_xyz
  1  'x, y, z'
loop_
 _atom_site_type_symbol
 _atom_site_label
 _atom_site_symmetry_multiplicity
 _atom_site_fract_x
 _atom_site_fract_y
 _atom_site_fract_z
 _atom_site_occupancy
 _atom_site_pbe_cm5_charge
 _atom_site_pbe_ddec_charge
 _atom_site_pbe_ddec_spin_density
 _atom_site_pbe_ddec_sum_bond_order
 _atom_site_pbe_magmom
Tb  Tb0  1  0.99999701  0.99999985  0.99999838  1  1.577052  2.251019  0.000525  2.25934  0.0
Tb  Tb1  1  0.50000191  0.00000105  0.99999947  1  1.577246  2.266489  0.001434  2.218759  0.002
Cu  Cu2  1  0.99999587  0.99999732  0.50000175  1  0.769059  0.759024  0.72371  2.295009  0.564
Cu  Cu3  1  0.99999898  0.50000352  0.00000113  1  0.76882  0.759119  0.723741  2.296088  0.564
Cu  Cu4  1  0.49999408  0.49999726  0.49999658  1  0.769732  0.760232  0.723721  2.295979  0.564
P  P5  1  0.17273234  0.01475778  0.76708479  1  0.345806  1.283444  0.006247  5.523657  0.004
P  P6  1  0.15796015  0.75225214  0.98517145  1  0.346232  1.285558  0.006241  5.520886  0.004
P  P7  1  0.40557088  0.23289655  0.24766957  1  0.345723  1.28474  0.006252  5.521387  0.004
P  P8  1  0.82726829  0.98524314  0.23291760  1  0.345776  1.283406  0.006247  5.523672  0.004
P  P9  1  0.84203899  0.24775198  0.01482818  1  0.346333  1.285759  0.006241  5.520615  0.004
P  P10  1  0.59442503  0.76709903  0.75232518  1  0.345661  1.284519  0.006253  5.521701  0.004
H  H11  1  0.33570992  0.31491189  0.02417407  1  0.120503  0.133962  0.000827  1.00041  0.001
H  H12  1  0.02082399  0.70925047  0.68509331  1  0.120362  0.134252  0.000827  0.999903  0.001
H  H13  1  0.31146759  0.97584329  0.29071781  1  0.12039  0.133732  0.000826  1.000313  0.001
H  H14  1  0.66429228  0.68509010  0.97582825  1  0.120497  0.133932  0.000827  1.000465  0.001
H  H15  1  0.97917562  0.29075045  0.31490350  1  0.120386  0.134236  0.000827  0.999899  0.001
H  H16  1  0.68853198  0.02415549  0.70928175  1  0.120401  0.133769  0.000827  1.000244  0.001
H  H17  1  0.37397283  0.54835339  0.02968481  1  0.11231  0.112801  -3.5e-05  0.997053  0.0
H  H18  1  0.82566862  0.48138626  0.45164549  1  0.112278  0.112443  -3.6e-05  0.996778  0.0
H  H19  1  0.34432419  0.97028538  0.51864983  1  0.112176  0.112201  -3.6e-05  0.996925  0.0
H  H20  1  0.62602983  0.45164539  0.97031205  1  0.112347  0.112866  -3.5e-05  0.997047  0.0
H  H21  1  0.17433301  0.51861253  0.54835285  1  0.112279  0.112459  -3.6e-05  0.996802  0.0
H  H22  1  0.65567535  0.02971127  0.48134805  1  0.112171  0.112187  -3.6e-05  0.996996  0.0
H  H23  1  0.26072541  0.54557929  0.80069053  1  0.117875  0.131768  0.000709  0.99041  0.001
H  H24  1  0.71502766  0.25509190  0.45431196  1  0.117993  0.131893  0.000709  0.990029  0.001
H  H25  1  0.46008113  0.19932107  0.74487592  1  0.117976  0.132189  0.000707  0.98984  0.001
H  H26  1  0.73926947  0.45441630  0.19930747  1  0.117892  0.131789  0.000709  0.990352  0.001
H  H27  1  0.28496989  0.74490902  0.54569224  1  0.117978  0.13188  0.000709  0.989968  0.001
H  H28  1  0.53991741  0.80067772  0.25512159  1  0.11797  0.13219  0.000707  0.989843  0.001
H  H29  1  0.08842462  0.30506972  0.57257675  1  0.120819  0.102057  0.000838  1.004997  0.002
H  H30  1  0.78324851  0.26742137  0.69485683  1  0.120564  0.101446  0.00084  1.004683  0.002
H  H31  1  0.51581201  0.42741834  0.73247211  1  0.12091  0.101935  0.00084  1.005705  0.002
H  H32  1  0.91156770  0.69492692  0.42742361  1  0.120817  0.102086  0.000838  1.005013  0.002
H  H33  1  0.21674807  0.73258382  0.30514868  1  0.120573  0.101422  0.00084  1.00475  0.002
H  H34  1  0.48418188  0.57257937  0.26752288  1  0.120955  0.102022  0.00084  1.005626  0.002
C  C35  1  0.19713307  0.19152968  0.79598939  1  0.111954  -0.028822  -0.002408  3.925048  -0.001
C  C36  1  0.00561252  0.60438740  0.80841773  1  0.112175  -0.028313  -0.002415  3.923346  -0.001
C  C37  1  0.40104832  0.20401384  0.39552146  1  0.112205  -0.029984  -0.002414  3.924858  -0.001
C  C38  1  0.80286650  0.80846910  0.20401105  1  0.11194  -0.028845  -0.002408  3.924996  -0.001
C  C39  1  0.99438868  0.39561672  0.19158246  1  0.112174  -0.02836  -0.002415  3.923414  -0.001
C  C40  1  0.59894915  0.79598280  0.60447411  1  0.112212  -0.029884  -0.002414  3.924777  -0.001
C  C41  1  0.28530360  0.31865842  0.92700828  1  -0.063719  -0.096627  0.002845  3.923165  0.003
C  C42  1  0.96663785  0.60830485  0.68129710  1  -0.063448  -0.096935  0.002844  3.922134  0.003
C  C43  1  0.35819538  0.07299146  0.39163962  1  -0.063641  -0.096122  0.002844  3.921182  0.003
C  C44  1  0.71469960  0.68134143  0.07299264  1  -0.063715  -0.096587  0.002845  3.923305  0.003
C  C45  1  0.03336485  0.39169607  0.31870055  1  -0.063471  -0.096892  0.002844  3.922146  0.003
C  C46  1  0.64180312  0.92700519  0.60835799  1  -0.063628  -0.096124  0.002844  3.921161  0.003
C  C47  1  0.30656281  0.44710981  0.92955988  1  -0.060719  -0.033157  -0.004675  3.953925  -0.002
C  C48  1  0.85940199  0.48244595  0.55285855  1  -0.061452  -0.03385  -0.004681  3.953001  -0.002
C  C49  1  0.37703050  0.07042350  0.51753900  1  -0.06085  -0.032309  -0.004675  3.951866  -0.002
C  C50  1  0.69343985  0.55288898  0.07043875  1  -0.060764  -0.033239  -0.004676  3.954007  -0.002
C  C51  1  0.14059864  0.51755496  0.44714207  1  -0.061455  -0.033935  -0.004682  3.953035  -0.002
C  C52  1  0.62297113  0.92957528  0.48246023  1  -0.060896  -0.032434  -0.004676  3.952077  -0.002
C  C53  1  0.24095430  0.44612650  0.80174074  1  -0.075873  -0.115653  0.004111  3.940957  0.005
C  C54  1  0.79465432  0.35556728  0.55378888  1  -0.075883  -0.114313  0.004112  3.940222  0.005
C  C55  1  0.43926848  0.19825668  0.64437984  1  -0.075735  -0.115531  0.004115  3.941564  0.005
C  C56  1  0.75904527  0.55387228  0.19825881  1  -0.075894  -0.115696  0.004111  3.941037  0.005
C  C57  1  0.20534273  0.64443471  0.44621205  1  -0.075879  -0.114234  0.004112  3.940069  0.005
C  C58  1  0.56073159  0.80174104  0.35561682  1  -0.075689  -0.115457  0.004115  3.94153  0.005
C  C59  1  0.14849808  0.31544819  0.67574479  1  0.048101  0.096442  -0.000471  3.913912  0.0
C  C60  1  0.83292751  0.36022692  0.68445901  1  0.048411  0.096115  -0.00046  3.91399  0.0
C  C61  1  0.47271577  0.32423863  0.63966758  1  0.048336  0.095508  -0.000468  3.916379  0.0
C  C62  1  0.85149474  0.68454739  0.32425266  1  0.048067  0.09642  -0.000471  3.914092  0.0
C  C63  1  0.16706855  0.63977720  0.31554420  1  0.048378  0.096073  -0.00046  3.913997  0.0
C  C64  1  0.52727911  0.67575695  0.36032690  1  0.048274  0.095432  -0.000468  3.916319  0.0
N  N65  1  0.12722891  0.19176123  0.67422355  1  -0.344885  -0.235783  0.060572  3.672313  0.079
N  N66  1  0.93541441  0.48236569  0.80815418  1  -0.344876  -0.236281  0.060604  3.670896  0.079
N  N67  1  0.45295070  0.32578915  0.51753431  1  -0.34569  -0.235615  0.060547  3.673157  0.079
N  N68  1  0.87276448  0.80823756  0.32577699  1  -0.344852  -0.235757  0.060572  3.672304  0.079
N  N69  1  0.06458165  0.51763843  0.19184639  1  -0.344868  -0.236257  0.060603  3.670963  0.079
N  N70  1  0.54704315  0.67420643  0.48245989  1  -0.345687  -0.23564  0.060548  3.673133  0.079
O  O71  1  0.10936277  0.92726549  0.60315552  1  -0.391764  -0.73308  0.059732  2.316499  0.082
O  O72  1  0.18208545  0.67582835  0.07268610  1  -0.391615  -0.733381  0.059731  2.316437  0.082
O  O73  1  0.50612388  0.39683514  0.32404361  1  -0.392007  -0.733797  0.059764  2.315494  0.082
O  O74  1  0.89063992  0.07273542  0.39684654  1  -0.391764  -0.733031  0.059731  2.316429  0.082
O  O75  1  0.81791423  0.32417684  0.92731583  1  -0.391649  -0.733452  0.059726  2.316379  0.082
O  O76  1  0.49387360  0.60316151  0.67595196  1  -0.39203  -0.733787  0.059761  2.315613  0.082
O  O77  1  0.05466500  0.95838939  0.81463766  1  -0.477465  -0.880175  0.001896  2.287739  0.003
O  O78  1  0.09622803  0.85614732  0.04152389  1  -0.477945  -0.881544  0.001888  2.286475  0.003
O  O79  1  0.23997642  0.18534210  0.14378060  1  -0.477743  -0.880812  0.001897  2.285965  0.003
O  O80  1  0.94533357  0.04161153  0.18536153  1  -0.477477  -0.880178  0.001896  2.287727  0.003
O  O81  1  0.90376746  0.14385360  0.95847358  1  -0.477948  -0.881601  0.001889  2.28643  0.003
O  O82  1  0.76001949  0.81465348  0.85621504  1  -0.477719  -0.880748  0.001897  2.286045  0.003
O  O83  1  0.33346125  0.03328220  0.84764364  1  -0.47312  -0.869516  0.00762  2.262799  0.01
O  O84  1  0.30017580  0.81432255  0.96665578  1  -0.472897  -0.869562  0.007616  2.263779  0.01
O  O85  1  0.48572541  0.15227578  0.18566598  1  -0.472713  -0.869246  0.007611  2.263499  0.01
O  O86  1  0.66654045  0.96672086  0.15235981  1  -0.473085  -0.869515  0.00762  2.262823  0.01
O  O87  1  0.69982491  0.18568264  0.03334643  1  -0.472928  -0.869618  0.007615  2.263758  0.01
O  O88  1  0.51426840  0.84771767  0.81432743  1  -0.472652  -0.869135  0.007611  2.263622  0.01
