# generated using pymatgen
data_MgHC6O7
_symmetry_space_group_name_H-M   'P 1'
_cell_length_a   7.04137574
_cell_length_b   15.11275906
_cell_length_c   15.11011537
_cell_angle_alpha   117.60181249
_cell_angle_beta   98.94033842
_cell_angle_gamma   98.92785764
_symmetry_Int_Tables_number   1
_chemical_formula_structural   MgHC6O7
_chemical_formula_sum   'Mg6 H6 C36 O42'
_cell_volume   1359.39377930
_cell_formula_units_Z   6
loop_
 _symmetry_equiv_pos_site_id
 _symmetry_equiv_pos_as_xyz
  1  'x, y, z'
loop_
 _atom_site_type_symbol
 _atom_site_label
 _atom_site_symmetry_multiplicity
 _atom_site_fract_x
 _atom_site_fract_y
 _atom_site_fract_z
 _atom_site_occupancy
 _atom_site_pbe_bader_charge
 _atom_site_pbe_bader_spin_density
 _atom_site_pbe_cm5_charge
 _atom_site_pbe_ddec_charge
 _atom_site_pbe_ddec_spin_density
 _atom_site_pbe_ddec_sum_bond_order
 _atom_site_pbe_magmom
Mg  Mg0  1  0.47836461  0.58934235  0.26455089  1  1.688846  0  0.839543  1.393964  0  1.385179  0
Mg  Mg1  1  0.21378343  0.73551801  0.32460945  1  1.691231  0  0.839312  1.3933  0  1.386437  0
Mg  Mg2  1  0.88914099  0.67539808  0.41076038  1  1.690527  0  0.838842  1.393199  0  1.387004  0
Mg  Mg3  1  0.52163464  0.41065914  0.73544894  1  1.688879  0  0.839524  1.393969  0  1.385166  0
Mg  Mg4  1  0.78621545  0.26448270  0.67539132  1  1.691183  0  0.839288  1.393262  0  1.386494  0
Mg  Mg5  1  0.11085894  0.32460186  0.58924077  1  1.690488  0  0.838828  1.393141  0  1.387096  0
H  H6  1  0.81441371  0.47325097  0.45236033  1  0.094016  0  0.104302  0.125408  0  1.023884  0
H  H7  1  0.36200645  0.54773633  0.02080237  1  0.125185  0  0.103883  0.125175  0  1.023567  0
H  H8  1  0.34110374  0.97903075  0.52678316  1  0.116663  0  0.104277  0.125437  0  1.023537  0
H  H9  1  0.18558246  0.52674433  0.54763707  1  0.094014  0  0.104303  0.125418  0  1.023925  0
H  H10  1  0.63799376  0.45226128  0.97919904  1  0.125188  0  0.103901  0.125223  0  1.023439  0
H  H11  1  0.65889265  0.02097073  0.47321911  1  0.11663  0  0.104275  0.125417  0  1.023498  0
C  C12  1  0.25919051  0.60751904  0.43234395  1  1.512354  0  0.22813  0.65568  0  4.138927  0
C  C13  1  0.82690513  0.56774538  0.17514270  1  1.553434  0  0.228547  0.656148  0  4.141425  0
C  C14  1  0.65171540  0.82493582  0.39245992  1  1.552179  0  0.228802  0.658823  0  4.133452  0
C  C15  1  0.74080720  0.39247935  0.56765499  1  1.512415  0  0.228164  0.65573  0  4.138865  0
C  C16  1  0.17309336  0.43225456  0.82485834  1  1.553315  0  0.228541  0.656149  0  4.141555  0
C  C17  1  0.34828244  0.17506567  0.60754312  1  1.55221  0  0.22878  0.658781  0  4.133299  0
C  C18  1  0.56643253  0.53440619  0.43300534  1  0.582399  0  0.069807  0.321139  0  4.132483  0
C  C19  1  0.13343281  0.56709853  0.10133359  1  0.584653  0  0.069418  0.319716  0  4.132179  0
C  C20  1  0.03201967  0.89864665  0.46560775  1  0.563132  0  0.067948  0.31659  0  4.134374  0
C  C21  1  0.43356624  0.46559143  0.56699333  1  0.582488  0  0.069724  0.321106  0  4.132475  0
C  C22  1  0.86657116  0.43290372  0.89866825  1  0.584376  0  0.069463  0.319823  0  4.132084  0
C  C23  1  0.96797414  0.10135251  0.53439458  1  0.563022  0  0.067932  0.316624  0  4.134445  0
C  C24  1  0.22931325  0.34934117  0.20282738  1  2.150897  0  0.381929  0.749642  0  4.113837  0
C  C25  1  0.02557777  0.79714599  0.14590297  1  2.148891  0  0.382794  0.75082  0  4.111701  0
C  C26  1  0.87926509  0.85345283  0.65073101  1  2.168683  0  0.381144  0.747663  0  4.116829  0
C  C27  1  0.77069715  0.65068273  0.79717505  1  2.150641  0  0.381672  0.749463  0  4.113721  0
C  C28  1  0.97440385  0.20285472  0.85409591  1  2.148604  0  0.382781  0.750916  0  4.111673  0
C  C29  1  0.12075936  0.14656180  0.34926811  1  2.168297  0  0.381217  0.747935  0  4.116492  0
C  C30  1  0.38517197  0.55054290  0.46257340  1  0.00174  0  -0.039422  -0.16748  0  3.969046  0
C  C31  1  0.92264182  0.53746742  0.08794825  1  0.055257  0  -0.038695  -0.164213  0  3.967953  0
C  C32  1  0.83464060  0.91207268  0.44943424  1  -0.037862  0  -0.039778  -0.167565  0  3.968729  0
C  C33  1  0.61482573  0.44945549  0.53742422  1  0.001641  0  -0.03946  -0.16752  0  3.969045  0
C  C34  1  0.07736320  0.46253406  0.91205398  1  0.055218  0  -0.038677  -0.164153  0  3.967999  0
C  C35  1  0.16535724  0.08792880  0.55056946  1  -0.037722  0  -0.039793  -0.167544  0  3.968649  0
C  C36  1  0.67491728  0.48471844  0.47274749  1  -0.045439  0  -0.111174  -0.216803  0  3.977163  0
C  C37  1  0.20213781  0.52731289  0.01192422  1  -0.154009  0  -0.111093  -0.21818  0  3.975307  0
C  C38  1  0.19018223  0.98802084  0.51533119  1  -0.047836  0  -0.110673  -0.215523  0  3.977397  0
C  C39  1  0.32508148  0.51527918  0.52725118  1  -0.045516  0  -0.11121  -0.216895  0  3.977234  0
C  C40  1  0.79786173  0.47268627  0.98807588  1  -0.153532  0  -0.111122  -0.218269  0  3.97503  0
C  C41  1  0.80981993  0.01198064  0.48467348  1  -0.047834  0  -0.110644  -0.21544  0  3.977487  0
C  C42  1  0.73959117  0.35231942  0.21856532  1  2.148713  0  0.378456  0.734368  0  4.090976  0
C  C43  1  0.52041003  0.78161903  0.13371091  1  2.125531  0  0.379326  0.735424  0  4.092445  0
C  C44  1  0.38620526  0.86630893  0.64799003  1  2.140621  0  0.378627  0.733899  0  4.094938  0
C  C45  1  0.26038618  0.64766428  0.78141345  1  2.149164  0  0.378493  0.734508  0  4.090797  0
C  C46  1  0.47957701  0.21836931  0.86629717  1  2.126418  0  0.379368  0.735678  0  4.09249  0
C  C47  1  0.61382457  0.13368172  0.35201422  1  2.140304  0  0.378774  0.734302  0  4.094577  0
O  O48  1  0.31121553  0.63936473  0.37198329  1  -1.273453  0  -0.386801  -0.733198  0  2.446363  0
O  O49  1  0.93928064  0.62809781  0.26728183  1  -1.282429  0  -0.387327  -0.734414  0  2.44778  0
O  O50  1  0.67192771  0.73277699  0.36060479  1  -1.274905  0  -0.387064  -0.735257  0  2.444063  0
O  O51  1  0.68878623  0.36063598  0.62801901  1  -1.273417  0  -0.386799  -0.733204  0  2.446374  0
O  O52  1  0.06072035  0.37190135  0.73272036  1  -1.282347  0  -0.387318  -0.734364  0  2.447802  0
O  O53  1  0.32807051  0.26722526  0.63939930  1  -1.274959  0  -0.387082  -0.735213  0  2.443907  0
O  O54  1  0.63833878  0.56311019  0.37019416  1  -1.304517  0  -0.456593  -0.79322  0  2.387174  0
O  O55  1  0.26812156  0.62995134  0.19277551  1  -1.309602  0  -0.456906  -0.792971  0  2.386605  0
O  O56  1  0.07529568  0.80717229  0.43691536  1  -1.302079  0  -0.455739  -0.790993  0  2.386886  0
O  O57  1  0.36166182  0.43688820  0.62980632  1  -1.304481  0  -0.456558  -0.793198  0  2.387135  0
O  O58  1  0.73187781  0.37005323  0.80722709  1  -1.309762  0  -0.45693  -0.793056  0  2.386684  0
O  O59  1  0.92470358  0.19282919  0.56308514  1  -1.302051  0  -0.455752  -0.791033  0  2.386903  0
O  O60  1  0.28470887  0.41836909  0.18881515  1  -1.115462  0  -0.160031  -0.385176  0  2.289248  0
O  O61  1  0.09533552  0.81108145  0.22888225  1  -1.111834  0  -0.160188  -0.385606  0  2.28878  0
O  O62  1  0.86593126  0.77053839  0.58164327  1  -1.123546  0  -0.160069  -0.384365  0  2.291464  0
O  O63  1  0.71528978  0.58164863  0.81117828  1  -1.114829  0  -0.159788  -0.385098  0  2.289322  0
O  O64  1  0.90464389  0.18891772  0.77111509  1  -1.111664  0  -0.160249  -0.38571  0  2.288679  0
O  O65  1  0.13409022  0.22947315  0.41835553  1  -1.123425  0  -0.160067  -0.38452  0  2.291412  0
O  O66  1  0.64038128  0.53335011  0.15826228  1  -1.242015  0  -0.353728  -0.64378  0  2.197425  0
O  O67  1  0.48204735  0.84184246  0.37497849  1  -1.240415  0  -0.354018  -0.644712  0  2.19426  0
O  O68  1  0.10704756  0.62500309  0.46675584  1  -1.235711  0  -0.354338  -0.644668  0  2.196886  0
O  O69  1  0.35961719  0.46664983  0.84173612  1  -1.24193  0  -0.353738  -0.643839  0  2.197474  0
O  O70  1  0.51795258  0.15815748  0.62502332  1  -1.240385  0  -0.353945  -0.644657  0  2.194187  0
O  O71  1  0.89295082  0.37499376  0.53324310  1  -1.235638  0  -0.354338  -0.644623  0  2.196765  0
O  O72  1  0.17221833  0.27966584  0.21477449  1  -1.049849  0  -0.164405  -0.339116  0  2.155198  0
O  O73  1  0.95618096  0.78526040  0.06434401  1  -1.051263  0  -0.165281  -0.340005  0  2.152229  0
O  O74  1  0.89155225  0.93492730  0.72044978  1  -1.057223  0  -0.163573  -0.337608  0  2.155511  0
O  O75  1  0.82780440  0.72035961  0.78523747  1  -1.050243  0  -0.164378  -0.339025  0  2.155016  0
O  O76  1  0.04379999  0.21474186  0.93565488  1  -1.051179  0  -0.165201  -0.339977  0  2.152301  0
O  O77  1  0.10847976  0.06508811  0.27954759  1  -1.056973  0  -0.163629  -0.337711  0  2.155249  0
O  O78  1  0.89326270  0.41186182  0.24376885  1  -1.076521  0  -0.152626  -0.338451  0  2.260306  0
O  O79  1  0.64890187  0.75631358  0.16796384  1  -1.068834  0  -0.152902  -0.338369  0  2.260828  0
O  O80  1  0.48026382  0.83198801  0.58838817  1  -1.077605  0  -0.152907  -0.338611  0  2.259938  0
O  O81  1  0.10670831  0.58811493  0.75620822  1  -1.076681  0  -0.152706  -0.338628  0  2.259864  0
O  O82  1  0.35109672  0.24368635  0.83205177  1  -1.068648  0  -0.152937  -0.338494  0  2.260748  0
O  O83  1  0.51977044  0.16800574  0.41161783  1  -1.077135  0  -0.152947  -0.338698  0  2.259809  0
O  O84  1  0.58724432  0.29124998  0.19261502  1  -1.078673  0  -0.176431  -0.361784  0  2.17853  0
O  O85  1  0.39404182  0.80767625  0.09866654  1  -1.062584  0  -0.17689  -0.362947  0  2.1796  0
O  O86  1  0.29500950  0.90140265  0.70911613  1  -1.071348  0  -0.176396  -0.361374  0  2.18231  0
O  O87  1  0.41271657  0.70873528  0.80736595  1  -1.078961  0  -0.176389  -0.36177  0  2.178845  0
O  O88  1  0.60593768  0.19230281  0.90133405  1  -1.063628  0  -0.176891  -0.363092  0  2.179797  0
O  O89  1  0.70501486  0.09858569  0.29088600  1  -1.071492  0  -0.176519  -0.361719  0  2.182126  0
