# generated using pymatgen
data_ZnH8C6(NO2)2
_symmetry_space_group_name_H-M   'P 1'
_cell_length_a   9.76293279
_cell_length_b   9.72896448
_cell_length_c   16.16390000
_cell_angle_alpha   77.59291103
_cell_angle_beta   77.63676314
_cell_angle_gamma   64.50808841
_symmetry_Int_Tables_number   1
_chemical_formula_structural   ZnH8C6(NO2)2
_chemical_formula_sum   'Zn6 H48 C36 N12 O24'
_cell_volume   1340.52097272
_cell_formula_units_Z   6
loop_
 _symmetry_equiv_pos_site_id
 _symmetry_equiv_pos_as_xyz
  1  'x, y, z'
loop_
 _atom_site_type_symbol
 _atom_site_label
 _atom_site_symmetry_multiplicity
 _atom_site_fract_x
 _atom_site_fract_y
 _atom_site_fract_z
 _atom_site_occupancy
 _atom_site_hle17_bader_spin_density
 _atom_site_hle17_ddec_charge
 _atom_site_hle17_ddec_spin_density
 _atom_site_hle17_ddec_sum_bond_order
 _atom_site_hle17_magmom
 _atom_site_hse06_10hf_bader_spin_density
 _atom_site_hse06_10hf_ddec_charge
 _atom_site_hse06_10hf_ddec_spin_density
 _atom_site_hse06_10hf_ddec_sum_bond_order
 _atom_site_hse06_10hf_magmom
 _atom_site_hse06_bader_spin_density
 _atom_site_hse06_ddec_charge
 _atom_site_hse06_ddec_spin_density
 _atom_site_hse06_ddec_sum_bond_order
 _atom_site_hse06_magmom
 _atom_site_pbe_bader_charge
 _atom_site_pbe_bader_spin_density
 _atom_site_pbe_cm5_charge
 _atom_site_pbe_ddec_charge
 _atom_site_pbe_ddec_spin_density
 _atom_site_pbe_ddec_sum_bond_order
 _atom_site_pbe_magmom
Zn  Zn0  1  0.00000105  0.00000000  0.00000048  1  0  1.175142  0  1.816074  0  0  1.024391  0  2.271514  0  0  1.067804  0  2.214813  0  1.408619  0  0.69178  0.992621  0  2.311525  0
Zn  Zn1  1  0.99999906  0.00000000  0.50000025  1  0  1.173192  0  1.817513  0  0  1.022884  0  2.2729  0  0  1.066116  0  2.216297  0  1.406068  0  0.691243  0.991246  0  2.312834  0
Zn  Zn2  1  0.06890814  0.55931957  0.82087665  1  0  1.040622  0  1.865594  0  0  0.85835  0  2.333918  0  0  0.902324  0  2.280807  0  1.284246  0  0.696797  0.827038  0  2.370804  0
Zn  Zn3  1  0.44155471  0.93057408  0.67936827  1  0  1.041004  0  1.860978  0  0  0.85832  0  2.329066  0  0  0.90238  0  2.276013  0  1.285127  0  0.696697  0.826928  0  2.365904  0
Zn  Zn4  1  0.93109039  0.44068132  0.17912306  1  0  1.040647  0  1.865565  0  0  0.858366  0  2.333891  0  0  0.902343  0  2.280782  0  1.284259  0  0.696801  0.827053  0  2.370779  0
Zn  Zn5  1  0.55844335  0.06942796  0.32063073  1  0  1.040983  0  1.860982  0  0  0.858297  0  2.329098  0  0  0.902362  0  2.276041  0  1.285162  0  0.696673  0.826904  0  2.365939  0
H  H6  1  0.66765007  0.21667361  0.99758372  1  0  0.048215  0  0.922919  0  0  0.057305  0  0.989634  0  0  0.059515  0  0.98418  0  0.100748  0  0.124691  0.055403  0  0.993878  0
H  H7  1  0.78379107  0.33247043  0.50227342  1  0  0.047306  0  0.925425  0  0  0.056792  0  0.991671  0  0  0.058827  0  0.986377  0  0.113209  0  0.124759  0.054995  0  0.995809  0
H  H8  1  0.33235508  0.78332383  0.00241558  1  0  0.048189  0  0.922884  0  0  0.057254  0  0.989629  0  0  0.059462  0  0.984183  0  0.100744  0  0.124667  0.055354  0  0.993872  0
H  H9  1  0.21620955  0.66753046  0.49772540  1  0  0.047272  0  0.925462  0  0  0.056807  0  0.991672  0  0  0.058801  0  0.986415  0  0.113216  0  0.124759  0.055004  0  0.995811  0
H  H10  1  0.33689691  0.46731203  0.66486489  1  0  0.142203  0  0.960017  0  0  0.159269  0  1.021924  0  0  0.162145  0  1.020092  0  0.064436  0  0.099325  0.157263  0  1.023157  0
H  H11  1  0.53384679  0.66277214  0.83520276  1  0  0.142916  0  0.960328  0  0  0.159471  0  1.022751  0  0  0.162322  0  1.020971  0  0.130286  0  0.09949  0.157468  0  1.02397  0
H  H12  1  0.66310115  0.53269001  0.33513473  1  0  0.142203  0  0.96004  0  0  0.159276  0  1.021944  0  0  0.162147  0  1.020115  0  0.064447  0  0.09934  0.15727  0  1.023176  0
H  H13  1  0.46614964  0.33722875  0.16479845  1  0  0.142917  0  0.960289  0  0  0.159466  0  1.022726  0  0  0.162317  0  1.020947  0  0.130332  0  0.099464  0.157463  0  1.023946  0
H  H14  1  0.37145771  0.33243364  0.59442685  1  0  0.127743  0  0.947675  0  0  0.14724  0  1.009585  0  0  0.149129  0  1.009074  0  0.051576  0  0.097846  0.14596  0  1.010004  0
H  H15  1  0.66809492  0.62825882  0.90575390  1  0  0.128688  0  0.94685  0  0  0.147873  0  1.008885  0  0  0.149745  0  1.0084  0  0.043853  0  0.097922  0.146603  0  1.009296  0
H  H16  1  0.62854187  0.66756725  0.40557210  1  0  0.127772  0  0.947669  0  0  0.147284  0  1.009564  0  0  0.149175  0  1.009047  0  0.051589  0  0.097857  0.146003  0  1.009982  0
H  H17  1  0.33190360  0.37174207  0.09424642  1  0  0.128652  0  0.946873  0  0  0.147833  0  1.008912  0  0  0.149707  0  1.008424  0  0.044023  0  0.097914  0.146562  0  1.009324  0
H  H18  1  0.50103713  0.28821740  0.66623520  1  0  0.127632  0  0.933482  0  0  0.147357  0  0.992453  0  0  0.149274  0  0.991849  0  0.057585  0  0.096838  0.146077  0  0.992819  0
H  H19  1  0.71224397  0.49801455  0.83412003  1  0  0.127458  0  0.933209  0  0  0.147014  0  0.992221  0  0  0.148991  0  0.991543  0  0.034403  0  0.096566  0.145696  0  0.992634  0
H  H20  1  0.49896139  0.71178349  0.33376512  1  0  0.127623  0  0.933474  0  0  0.147353  0  0.992447  0  0  0.14927  0  0.991843  0  0.057572  0  0.096832  0.146074  0  0.992812  0
H  H21  1  0.28775304  0.50198748  0.16588034  1  0  0.127491  0  0.933163  0  0  0.147051  0  0.992163  0  0  0.149026  0  0.991488  0  0.034631  0  0.096591  0.145735  0  0.992573  0
H  H22  1  0.33349663  0.29399913  0.93867309  1  0  0.110884  0  0.925014  0  0  0.130558  0  0.987086  0  0  0.131295  0  0.987199  0  0.076014  0  0.107849  0.129729  0  0.987514  0
H  H23  1  0.70548219  0.66757415  0.56149889  1  0  0.109904  0  0.925852  0  0  0.130224  0  0.987173  0  0  0.130915  0  0.987347  0  0.079043  0  0.10754  0.129376  0  0.987633  0
H  H24  1  0.66650491  0.70599946  0.06132714  1  0  0.110897  0  0.925026  0  0  0.130555  0  0.987108  0  0  0.131291  0  0.987221  0  0.075978  0  0.10784  0.129727  0  0.987538  0
H  H25  1  0.29452007  0.33242789  0.43850018  1  0  0.109884  0  0.925933  0  0  0.130218  0  0.987239  0  0  0.130915  0  0.987403  0  0.079039  0  0.107533  0.129371  0  0.987699  0
H  H26  1  0.44105116  0.35542488  0.84653851  1  0  0.105973  0  0.924609  0  0  0.129345  0  0.981319  0  0  0.129647  0  0.981869  0  0.076312  0  0.108022  0.128935  0  0.981143  0
H  H27  1  0.64508297  0.55890215  0.65363719  1  0  0.105704  0  0.924397  0  0  0.129248  0  0.9811  0  0  0.129562  0  0.9816  0  0.077155  0  0.108327  0.128846  0  0.980905  0
H  H28  1  0.55894887  0.64457485  0.15346177  1  0  0.105983  0  0.924565  0  0  0.129343  0  0.981285  0  0  0.129645  0  0.981834  0  0.076303  0  0.108034  0.128934  0  0.981109  0
H  H29  1  0.35491870  0.44109874  0.34636211  1  0  0.105664  0  0.924447  0  0  0.129232  0  0.981117  0  0  0.129546  0  0.98162  0  0.077185  0  0.108331  0.12883  0  0.980927  0
H  H30  1  0.45854662  0.37769629  0.94975025  1  0  0.101599  0  0.939475  0  0  0.12326  0  1.001494  0  0  0.12388  0  1.001047  0  0.069254  0  0.110598  0.12273  0  1.001854  0
H  H31  1  0.62290066  0.54137066  0.55040560  1  0  0.101905  0  0.939423  0  0  0.123505  0  1.001277  0  0  0.124146  0  1.000795  0  0.076003  0  0.11078  0.122962  0  1.001655  0
H  H32  1  0.54145493  0.62230230  0.05025060  1  0  0.101616  0  0.939439  0  0  0.123277  0  1.001458  0  0  0.123897  0  1.00101  0  0.069263  0  0.110598  0.122746  0  1.001821  0
H  H33  1  0.37709950  0.45863137  0.44959437  1  0  0.101895  0  0.93943  0  0  0.123486  0  1.001297  0  0  0.124129  0  1.000813  0  0.075986  0  0.110775  0.122944  0  1.001674  0
H  H34  1  0.59181463  0.07426907  0.80513902  1  0  0.096559  0  0.934032  0  0  0.117007  0  0.99766  0  0  0.116433  0  0.999302  0  0.038046  0  0.103418  0.117152  0  0.996863  0
H  H35  1  0.92557621  0.40839537  0.69490543  1  0  0.097125  0  0.933775  0  0  0.117736  0  0.99698  0  0  0.117216  0  0.998556  0  0.080712  0  0.10341  0.117843  0  0.996233  0
H  H36  1  0.40818435  0.92573067  0.19486139  1  0  0.096548  0  0.934038  0  0  0.116995  0  0.997667  0  0  0.116422  0  0.999308  0  0.038048  0  0.103412  0.11714  0  0.996869  0
H  H37  1  0.07442487  0.59160437  0.30509409  1  0  0.097146  0  0.933749  0  0  0.117767  0  0.996943  0  0  0.117246  0  0.998519  0  0.080709  0  0.10342  0.117873  0  0.996197  0
H  H38  1  0.46226820  0.02671235  0.88977476  1  0  0.098044  0  0.941677  0  0  0.117799  0  1.00756  0  0  0.117358  0  1.009349  0  0.078669  0  0.103076  0.118058  0  1.006275  0
H  H39  1  0.97263926  0.53864308  0.61025954  1  0  0.099363  0  0.943  0  0  0.118765  0  1.008996  0  0  0.118274  0  1.010872  0  0.093113  0  0.10321  0.119067  0  1.007636  0
H  H40  1  0.53773032  0.97328854  0.11022618  1  0  0.097997  0  0.941743  0  0  0.117781  0  1.007595  0  0  0.117335  0  1.009391  0  0.078671  0  0.103064  0.118039  0  1.00631  0
H  H41  1  0.02736228  0.46135551  0.38974131  1  0  0.099363  0  0.942993  0  0  0.118767  0  1.008993  0  0  0.118276  0  1.010869  0  0.093193  0  0.103208  0.119069  0  1.007632  0
H  H42  1  0.66607159  0.92795114  0.89151935  1  0  0.116946  0  0.94084  0  0  0.136135  0  1.001181  0  0  0.137685  0  1.000266  0  0.090356  0  0.111708  0.134844  0  1.002081  0
H  H43  1  0.07117291  0.33415620  0.60849790  1  0  0.11709  0  0.939879  0  0  0.136708  0  0.999369  0  0  0.138273  0  0.998448  0  0.10858  0  0.112058  0.135406  0  1.000274  0
H  H44  1  0.33392832  0.07204630  0.10848124  1  0  0.116923  0  0.940792  0  0  0.136109  0  1.001147  0  0  0.13766  0  1.000231  0  0.090374  0  0.111698  0.134818  0  1.002047  0
H  H45  1  0.92882712  0.66584354  0.39150238  1  0  0.117097  0  0.939877  0  0  0.136717  0  0.999364  0  0  0.138282  0  0.998443  0  0.108583  0  0.112059  0.135415  0  1.000269  0
H  H46  1  0.11004674  0.59169866  0.96803073  1  0  0.426514  0  0.871377  0  0  0.39277  0  0.940996  0  0  0.404093  0  0.924537  0  0.652255  0  0.293331  0.38454  0  0.953015  0
H  H47  1  0.40794760  0.88993980  0.53226323  1  0  0.427708  0  0.870232  0  0  0.393739  0  0.939752  0  0  0.405092  0  0.923261  0  0.656044  0  0.294188  0.385469  0  0.951823  0
H  H48  1  0.88995585  0.40829993  0.03196936  1  0  0.426523  0  0.871356  0  0  0.392778  0  0.940982  0  0  0.404103  0  0.924519  0  0.652252  0  0.293351  0.384548  0  0.953001  0
H  H49  1  0.59205198  0.11006109  0.46773572  1  0  0.427731  0  0.870207  0  0  0.393763  0  0.939721  0  0  0.405117  0  0.92323  0  0.656059  0  0.294192  0.385494  0  0.951792  0
H  H50  1  0.14242332  0.72251788  0.89693138  1  0  0.434518  0  0.864343  0  0  0.398337  0  0.935933  0  0  0.410568  0  0.918099  0  0.679609  0  0.291661  0.389186  0  0.94924  0
H  H51  1  0.27750571  0.85801607  0.60338885  1  0  0.43444  0  0.863366  0  0  0.398032  0  0.935287  0  0  0.410242  0  0.917468  0  0.66787  0  0.292389  0.388901  0  0.948567  0
H  H52  1  0.85757927  0.27748071  0.10306871  1  0  0.434521  0  0.864342  0  0  0.398351  0  0.935916  0  0  0.410584  0  0.918079  0  0.679606  0  0.291658  0.389201  0  0.949222  0
H  H53  1  0.72249525  0.14198137  0.39661037  1  0  0.434455  0  0.863347  0  0  0.39805  0  0.93526  0  0  0.41026  0  0.91744  0  0.667864  0  0.292404  0.38892  0  0.948539  0
C  C54  1  0.20804537  0.94398660  0.82386957  1  0  0.648053  0  3.898274  0  0  0.595086  0  4.194801  0  0  0.629456  0  4.18671  0  1.590008  0  0.21523  0.571903  0  4.198993  0
C  C55  1  0.05455954  0.79325098  0.67619559  1  0  0.646507  0  3.901446  0  0  0.593611  0  4.19812  0  0  0.62799  0  4.190092  0  1.576637  0  0.214188  0.570413  0  4.202303  0
C  C56  1  0.79195467  0.05601314  0.17613133  1  0  0.648033  0  3.898271  0  0  0.595062  0  4.194801  0  0  0.629436  0  4.186707  0  1.590041  0  0.21519  0.571879  0  4.198993  0
C  C57  1  0.94543932  0.20674645  0.32380575  1  0  0.646492  0  3.901195  0  0  0.593572  0  4.197893  0  0  0.62795  0  4.189861  0  1.576597  0  0.214185  0.570375  0  4.202073  0
C  C58  1  0.12135335  0.24209001  0.83366664  1  0  -0.014739  0  3.787726  0  0  -0.027421  0  4.056126  0  0  -0.029675  0  4.076157  0  0.381804  0  0.063947  -0.025929  0  4.042635  0
C  C59  1  0.75767168  0.87909617  0.66618813  1  0  -0.01344  0  3.788188  0  0  -0.02441  0  4.054561  0  0  -0.026539  0  4.074497  0  0.441356  0  0.06413  -0.022997  0  4.041129  0
C  C60  1  0.87864622  0.75791088  0.16633355  1  0  -0.014649  0  3.787767  0  0  -0.02738  0  4.05619  0  0  -0.029637  0  4.076223  0  0.381794  0  0.06396  -0.025889  0  4.042697  0
C  C61  1  0.24232580  0.12090472  0.33381233  1  0  -0.013413  0  3.788215  0  0  -0.024352  0  4.054563  0  0  -0.026484  0  4.074497  0  0.441138  0  0.06412  -0.022937  0  4.04113  0
C  C62  1  0.99767710  0.29720507  0.90455407  1  0  0.649346  0  3.924364  0  0  0.596731  0  4.220299  0  0  0.632338  0  4.209913  0  1.579689  0  0.212635  0.572133  0  4.22699  0
C  C63  1  0.70262712  0.00283567  0.59506996  1  0  0.644436  0  3.931071  0  0  0.591781  0  4.226969  0  0  0.627344  0  4.216698  0  1.575903  0  0.210706  0.567207  0  4.233578  0
C  C64  1  0.00232398  0.70279467  0.09544607  1  0  0.649307  0  3.924446  0  0  0.596722  0  4.220357  0  0  0.63233  0  4.209971  0  1.579569  0  0.212649  0.572125  0  4.227046  0
C  C65  1  0.29737095  0.99716637  0.40492965  1  0  0.644395  0  3.931115  0  0  0.591734  0  4.227005  0  0  0.627293  0  4.216739  0  1.575877  0  0.210673  0.567158  0  4.233614  0
C  C66  1  0.20052630  0.10328698  0.79992147  1  0  -9.2e-05  0  3.752629  0  0  -0.010494  0  4.016002  0  0  -0.011179  0  4.035701  0  0.397926  0  0.069486  -0.010086  0  4.002377  0
C  C67  1  0.89599240  0.80019413  0.70003550  1  0  -0.00106  0  3.754688  0  0  -0.012496  0  4.018694  0  0  -0.013267  0  4.038442  0  0.358584  0  0.069717  -0.012054  0  4.005068  0
C  C68  1  0.79947327  0.89671390  0.20007748  1  0  -9.9e-05  0  3.752691  0  0  -0.010436  0  4.016009  0  0  -0.011121  0  4.035708  0  0.397907  0  0.069483  -0.010028  0  4.002382  0
C  C69  1  0.10400554  0.19980561  0.29996443  1  0  -0.000927  0  3.754672  0  0  -0.01239  0  4.01871  0  0  -0.013145  0  4.038435  0  0.358725  0  0.069782  -0.011949  0  4.005083  0
C  C70  1  0.68052852  0.11922700  0.96761602  1  0  0.396062  0  3.813547  0  0  0.321347  0  4.102625  0  0  0.349824  0  4.102467  0  1.382116  0  0.172126  0.30203  0  4.10258  0
C  C71  1  0.88081305  0.31993184  0.53219702  1  0  0.396212  0  3.813223  0  0  0.321654  0  4.102076  0  0  0.350231  0  4.101792  0  1.363098  0  0.173118  0.30228  0  4.102091  0
C  C72  1  0.31947361  0.88077274  0.03238460  1  0  0.396053  0  3.813559  0  0  0.321353  0  4.102646  0  0  0.34983  0  4.102486  0  1.382127  0  0.172158  0.302033  0  4.102606  0
C  C73  1  0.11918803  0.68006790  0.46780189  1  0  0.396268  0  3.813188  0  0  0.321674  0  4.102047  0  0  0.350284  0  4.101769  0  1.363097  0  0.173146  0.302309  0  4.102052  0
C  C74  1  0.28795815  0.27288568  0.72446516  1  0  0.445799  0  3.724488  0  0  0.427187  0  3.994331  0  0  0.442353  0  4.010239  0  0.986813  0  0.21522  0.41723  0  3.982685  0
C  C75  1  0.72747695  0.71195713  0.77564391  1  0  0.44513  0  3.724632  0  0  0.426084  0  3.994997  0  0  0.441265  0  4.01093  0  0.980742  0  0.215476  0.416119  0  3.983329  0
C  C76  1  0.71204188  0.72711406  0.27553450  1  0  0.445831  0  3.724464  0  0  0.427222  0  3.994306  0  0  0.442389  0  4.010211  0  0.986813  0  0.215208  0.417265  0  3.982661  0
C  C77  1  0.27251948  0.28804376  0.22435606  1  0  0.445166  0  3.724659  0  0  0.426105  0  3.995052  0  0  0.441286  0  4.010988  0  0.98054  0  0.215501  0.41614  0  3.983385  0
C  C78  1  0.37868389  0.34518496  0.65899360  1  0  -0.400227  0  3.700035  0  0  -0.479939  0  3.936957  0  0  -0.484174  0  3.942839  0  -0.025534  0  -0.237703  -0.47681  0  3.932464  0
C  C79  1  0.65551874  0.62086491  0.84118124  1  0  -0.402107  0  3.698323  0  0  -0.48081  0  3.93538  0  0  -0.485073  0  3.941235  0  -0.057351  0  -0.238525  -0.477637  0  3.930891  0
C  C80  1  0.62131569  0.65481593  0.34100597  1  0  -0.400256  0  3.700061  0  0  -0.479995  0  3.936969  0  0  -0.484225  0  3.942852  0  -0.025537  0  -0.23772  -0.476865  0  3.932474  0
C  C81  1  0.34447722  0.37913713  0.15881926  1  0  -0.402087  0  3.698248  0  0  -0.480768  0  3.935302  0  0  -0.485033  0  3.941159  0  -0.057764  0  -0.238499  -0.477595  0  3.930812  0
C  C82  1  0.44386285  0.30260044  0.91379846  1  0  -0.173268  0  3.676254  0  0  -0.279085  0  3.932885  0  0  -0.275381  0  3.943981  0  0.259394  0  -0.129931  -0.281286  0  3.92536  0
C  C83  1  0.69749869  0.55652414  0.58636226  1  0  -0.173277  0  3.675358  0  0  -0.279569  0  3.931663  0  0  -0.275812  0  3.942716  0  0.246229  0  -0.130203  -0.281781  0  3.924188  0
C  C84  1  0.55613974  0.69739815  0.08620164  1  0  -0.173257  0  3.676038  0  0  -0.279035  0  3.93265  0  0  -0.275332  0  3.943751  0  0.259391  0  -0.129884  -0.281239  0  3.925128  0
C  C85  1  0.30250344  0.44347560  0.41363713  1  0  -0.173192  0  3.67542  0  0  -0.279508  0  3.93172  0  0  -0.275751  0  3.942767  0  0.246193  0  -0.130179  -0.281722  0  3.924246  0
C  C86  1  0.57244922  0.03799524  0.87433917  1  0  -0.1576  0  3.626884  0  0  -0.258347  0  3.873533  0  0  -0.25451  0  3.88467  0  0.273877  0  -0.13372  -0.260577  0  3.865937  0
C  C87  1  0.96151110  0.42800819  0.62569980  1  0  -0.160486  0  3.627298  0  0  -0.261095  0  3.87371  0  0  -0.257319  0  3.884878  0  0.206137  0  -0.13418  -0.263287  0  3.86611  0
C  C88  1  0.42755186  0.96200450  0.12566159  1  0  -0.157552  0  3.626799  0  0  -0.258311  0  3.873451  0  0  -0.254468  0  3.884586  0  0.27384  0  -0.133707  -0.26054  0  3.865853  0
C  C89  1  0.03848894  0.57199155  0.37430048  1  0  -0.160515  0  3.627274  0  0  -0.261131  0  3.873675  0  0  -0.257356  0  3.884844  0  0.206058  0  -0.134179  -0.263322  0  3.866075  0
N  N90  1  0.30422983  0.12586772  0.73150014  1  0  -0.489298  0  3.239846  0  0  -0.419777  0  3.529053  0  0  -0.440644  0  3.541149  0  -1.224003  0  -0.36221  -0.405268  0  3.520111  0
N  N91  1  0.87379860  0.69614360  0.76863417  1  0  -0.488351  0  3.236784  0  0  -0.418661  0  3.526224  0  0  -0.439471  0  3.538405  0  -1.225848  0  -0.362394  -0.404187  0  3.517247  0
N  N92  1  0.69576870  0.87413317  0.26849957  1  0  -0.489341  0  3.239853  0  0  -0.419844  0  3.529058  0  0  -0.440713  0  3.541154  0  -1.223981  0  -0.362216  -0.405336  0  3.52012  0
N  N93  1  0.12619980  0.30385499  0.23136585  1  0  -0.488427  0  3.236911  0  0  -0.418724  0  3.526351  0  0  -0.439544  0  3.538538  0  -1.225895  0  -0.36242  -0.404249  0  3.517374  0
N  N94  1  0.17890446  0.34594045  0.78578511  1  0  -0.487643  0  3.254553  0  0  -0.416354  0  3.544418  0  0  -0.437262  0  3.558135  0  -1.230002  0  -0.363233  -0.401451  0  3.534094  0
N  N95  1  0.65447546  0.82106265  0.71415756  1  0  -0.487768  0  3.254384  0  0  -0.416725  0  3.544375  0  0  -0.437725  0  3.558037  0  -1.220671  0  -0.362803  -0.401761  0  3.534068  0
N  N96  1  0.82109465  0.65406159  0.21421375  1  0  -0.487659  0  3.25454  0  0  -0.416355  0  3.544406  0  0  -0.437263  0  3.558121  0  -1.229998  0  -0.363214  -0.401454  0  3.534084  0
N  N97  1  0.34552156  0.17893939  0.28584343  1  0  -0.487862  0  3.254424  0  0  -0.416852  0  3.544461  0  0  -0.437845  0  3.558111  0  -1.220403  0  -0.362861  -0.401889  0  3.534155  0
N  N98  1  0.56922121  0.15125997  0.92146004  1  0  -0.092699  0  3.506831  0  0  0.013417  0  3.738644  0  0  -0.006695  0  3.763374  0  -1.213577  0  -0.281747  0.027008  0  3.721446  0
N  N99  1  0.84857184  0.43123368  0.57860335  1  0  -0.088881  0  3.504022  0  0  0.01654  0  3.736272  0  0  -0.003519  0  3.760922  0  -1.222972  0  -0.28129  0.030098  0  3.719116  0
N  N100  1  0.43078034  0.84873862  0.07854019  1  0  -0.09268  0  3.50669  0  0  0.013418  0  3.738544  0  0  -0.006694  0  3.763269  0  -1.213577  0  -0.281788  0.02701  0  3.721348  0
N  N101  1  0.15142925  0.56876606  0.42139617  1  0  -0.088904  0  3.504021  0  0  0.016501  0  3.73631  0  0  -0.003556  0  3.760947  0  -1.222945  0  -0.28133  0.030059  0  3.719152  0
O  O102  1  0.31434757  0.84282349  0.78166550  1  0  -0.596616  0  2.017905  0  0  -0.529828  0  2.266219  0  0  -0.555346  0  2.253367  0  -1.166791  0  -0.311033  -0.511903  0  2.274373  0
O  O103  1  0.15537015  0.68709383  0.71871850  1  0  -0.594872  0  2.021173  0  0  -0.528563  0  2.270334  0  0  -0.55416  0  2.25756  0  -1.165175  0  -0.310175  -0.510593  0  2.278441  0
O  O104  1  0.68565200  0.15717740  0.21833469  1  0  -0.596569  0  2.017886  0  0  -0.5298  0  2.266228  0  0  -0.555319  0  2.253374  0  -1.166805  0  -0.311032  -0.511876  0  2.274381  0
O  O105  1  0.84462883  0.31290591  0.28128129  1  0  -0.594892  0  2.02092  0  0  -0.528547  0  2.270065  0  0  -0.554146  0  2.257292  0  -1.165161  0  -0.310157  -0.510578  0  2.27817  0
O  O106  1  0.92099387  0.21941613  0.94339108  1  0  -0.655933  0  2.133904  0  0  -0.593944  0  2.402785  0  0  -0.620567  0  2.387618  0  -1.19352  0  -0.327288  -0.574945  0  2.413002  0
O  O107  1  0.78024566  0.07945975  0.55593104  1  0  -0.652838  0  2.132263  0  0  -0.591424  0  2.400424  0  0  -0.617911  0  2.385325  0  -1.194609  0  -0.325912  -0.572486  0  2.410492  0
O  O108  1  0.07900722  0.78058360  0.05660906  1  0  -0.655946  0  2.133944  0  0  -0.593967  0  2.402821  0  0  -0.620588  0  2.387654  0  -1.19353  0  -0.327304  -0.574966  0  2.413037  0
O  O109  1  0.21975287  0.92054114  0.44406990  1  0  -0.65283  0  2.132277  0  0  -0.591405  0  2.400426  0  0  -0.617887  0  2.385324  0  -1.194593  0  -0.325895  -0.572469  0  2.410504  0
O  O110  1  0.11423585  0.91024601  0.88430990  1  0  -0.646244  0  2.106465  0  0  -0.576373  0  2.355258  0  0  -0.60395  0  2.341393  0  -1.18375  0  -0.308075  -0.556801  0  2.364339  0
O  O111  1  0.08841365  0.88714093  0.61567140  1  0  -0.645947  0  2.106765  0  0  -0.575195  0  2.35535  0  0  -0.602676  0  2.341411  0  -1.185608  0  -0.308595  -0.555705  0  2.364477  0
O  O112  1  0.88576779  0.08975257  0.11569129  1  0  -0.646256  0  2.10637  0  0  -0.576418  0  2.355187  0  0  -0.604002  0  2.341325  0  -1.183775  0  -0.308031  -0.556845  0  2.364267  0
O  O113  1  0.91158370  0.11285766  0.38432937  1  0  -0.645952  0  2.106816  0  0  -0.575182  0  2.355394  0  0  -0.602671  0  2.341462  0  -1.18558  0  -0.308609  -0.555693  0  2.36452  0
O  O114  1  0.96819569  0.42967786  0.92344829  1  0  -0.631486  0  2.015467  0  0  -0.555985  0  2.252488  0  0  -0.582707  0  2.238926  0  -1.172189  0  -0.30884  -0.537264  0  2.262123  0
O  O115  1  0.57050471  0.03218706  0.57629697  1  0  -0.630353  0  2.012968  0  0  -0.555594  0  2.250116  0  0  -0.582367  0  2.23672  0  -1.180962  0  -0.308821  -0.536762  0  2.259555  0
O  O116  1  0.03180690  0.57032073  0.07655181  1  0  -0.631486  0  2.015477  0  0  -0.556003  0  2.252493  0  0  -0.582721  0  2.238933  0  -1.172064  0  -0.308857  -0.537282  0  2.26213  0
O  O117  1  0.42949289  0.96781613  0.42370318  1  0  -0.630343  0  2.013009  0  0  -0.555556  0  2.250109  0  0  -0.582345  0  2.236751  0  -1.180929  0  -0.308791  -0.536723  0  2.259549  0
O  O118  1  0.79159817  0.99128344  0.97689312  1  0  -0.541047  0  2.073734  0  0  -0.487691  0  2.33262  0  0  -0.511826  0  2.32421  0  -1.17349  0  -0.304445  -0.471069  0  2.338252  0
O  O119  1  0.00864182  0.20896578  0.52272525  1  0  -0.541747  0  2.075039  0  0  -0.489086  0  2.33476  0  0  -0.513205  0  2.326216  0  -1.162386  0  -0.305644  -0.472468  0  2.340438  0
O  O120  1  0.20840384  0.00871400  0.02310720  1  0  -0.541062  0  2.073799  0  0  -0.487704  0  2.332682  0  0  -0.511837  0  2.324265  0  -1.173458  0  -0.304463  -0.471083  0  2.338318  0
O  O121  1  0.99135775  0.79103511  0.47727431  1  0  -0.54176  0  2.074992  0  0  -0.489107  0  2.334738  0  0  -0.513225  0  2.326176  0  -1.16239  0  -0.305653  -0.472489  0  2.340412  0
O  O122  1  0.15075923  0.61360440  0.90686897  1  0  -0.818024  0  1.945318  0  0  -0.74565  0  2.170575  0  0  -0.767515  0  2.130579  0  -1.291782  0  -0.571554  -0.730332  0  2.199639  0
O  O123  1  0.38596418  0.84942051  0.59350780  1  0  -0.817722  0  1.9461  0  0  -0.744711  0  2.170866  0  0  -0.766612  0  2.130922  0  -1.281937  0  -0.571673  -0.729387  0  2.199942  0
O  O124  1  0.84924080  0.38639534  0.09313069  1  0  -0.818043  0  1.945319  0  0  -0.745676  0  2.170554  0  0  -0.767541  0  2.130556  0  -1.29178  0  -0.571571  -0.730351  0  2.199605  0
O  O125  1  0.61403690  0.15057923  0.40649110  1  0  -0.817754  0  1.946074  0  0  -0.744737  0  2.170829  0  0  -0.766636  0  2.130885  0  -1.281971  0  -0.571672  -0.729413  0  2.199904  0
