# generated using pymatgen
data_RbH4C3S3N3O
_symmetry_space_group_name_H-M   'P 1'
_cell_length_a   7.36848050
_cell_length_b   10.45606319
_cell_length_c   11.58001187
_cell_angle_alpha   76.71707465
_cell_angle_beta   80.82473950
_cell_angle_gamma   89.13895668
_symmetry_Int_Tables_number   1
_chemical_formula_structural   RbH4C3S3N3O
_chemical_formula_sum   'Rb4 H16 C12 S12 N12 O4'
_cell_volume   856.99040520
_cell_formula_units_Z   4
loop_
 _symmetry_equiv_pos_site_id
 _symmetry_equiv_pos_as_xyz
  1  'x, y, z'
loop_
 _atom_site_type_symbol
 _atom_site_label
 _atom_site_symmetry_multiplicity
 _atom_site_fract_x
 _atom_site_fract_y
 _atom_site_fract_z
 _atom_site_occupancy
 _atom_site_hle17_bader_spin_density
 _atom_site_hle17_ddec_charge
 _atom_site_hle17_ddec_spin_density
 _atom_site_hle17_ddec_sum_bond_order
 _atom_site_hle17_magmom
 _atom_site_hse06_10hf_bader_spin_density
 _atom_site_hse06_10hf_ddec_charge
 _atom_site_hse06_10hf_ddec_spin_density
 _atom_site_hse06_10hf_ddec_sum_bond_order
 _atom_site_hse06_10hf_magmom
 _atom_site_hse06_bader_spin_density
 _atom_site_hse06_ddec_charge
 _atom_site_hse06_ddec_spin_density
 _atom_site_hse06_ddec_sum_bond_order
 _atom_site_hse06_magmom
 _atom_site_pbe_bader_spin_density
 _atom_site_pbe_cm5_charge
 _atom_site_pbe_ddec_charge
 _atom_site_pbe_ddec_spin_density
 _atom_site_pbe_ddec_sum_bond_order
 _atom_site_pbe_magmom
Rb  Rb0  1  0.23551370  0.56861793  0.05141579  1  0  0.904404  0  0.56123  0  0  0.842953  0  0.796784  0  0  0.85676  0  0.77697  0  0  0.689009  0.829922  0  0.814019  0
Rb  Rb1  1  0.76449218  0.43137998  0.94858819  1  0  0.90439  0  0.561268  0  0  0.842954  0  0.796799  0  0  0.856746  0  0.777017  0  0  0.689015  0.829922  0  0.814032  0
Rb  Rb2  1  0.20080525  0.37805355  0.41749325  1  0  0.884215  0  0.53662  0  0  0.820077  0  0.770535  0  0  0.832961  0  0.751666  0  0  0.601739  0.809954  0  0.784563  0
Rb  Rb3  1  0.79919114  0.62194926  0.58250810  1  0  0.884227  0  0.536597  0  0  0.820093  0  0.770511  0  0  0.832953  0  0.751683  0  0  0.601731  0.809965  0  0.784533  0
H  H4  1  0.57272659  0.44886654  0.21492636  1  0  0.392378  0  0.910875  0  0  0.363015  0  0.979724  0  0  0.372333  0  0.966056  0  0  0.274538  0.355769  0  0.990414  0
H  H5  1  0.42727921  0.55112841  0.78508083  1  0  0.392374  0  0.910957  0  0  0.363002  0  0.979772  0  0  0.372315  0  0.966109  0  0  0.274513  0.355753  0  0.990464  0
H  H6  1  0.50401421  0.30909315  0.20367250  1  0  0.381652  0  0.939647  0  0  0.350453  0  1.006972  0  0  0.360724  0  0.992229  0  0  0.255158  0.342342  0  1.018626  0
H  H7  1  0.49599033  0.69090574  0.79633055  1  0  0.38167  0  0.939599  0  0  0.350481  0  1.006908  0  0  0.360753  0  0.992162  0  0  0.255206  0.342369  0  1.018564  0
H  H8  1  0.06116041  0.69881368  0.28981419  1  0  0.401147  0  0.89077  0  0  0.376338  0  0.956018  0  0  0.385367  0  0.94272  0  0  0.276514  0.370301  0  0.964864  0
H  H9  1  0.93884005  0.30118717  0.71018715  1  0  0.401148  0  0.890789  0  0  0.376346  0  0.956005  0  0  0.385376  0  0.942706  0  0  0.276518  0.370309  0  0.964853  0
H  H10  1  0.89777627  0.61402010  0.27893099  1  0  0.383192  0  0.933211  0  0  0.354016  0  0.997915  0  0  0.363053  0  0.984944  0  0  0.264183  0.347664  0  1.007002  0
H  H11  1  0.10222424  0.38598273  0.72106735  1  0  0.383213  0  0.933193  0  0  0.354053  0  0.997853  0  0  0.363089  0  0.984885  0  0  0.264174  0.3477  0  1.006941  0
H  H12  1  0.18141400  0.83246606  0.63514330  1  0  0.284759  0  0.952203  0  0  0.261498  0  1.030032  0  0  0.271278  0  1.022359  0  0  0.275133  0.254549  0  1.035599  0
H  H13  1  0.81858779  0.16753283  0.36485659  1  0  0.284735  0  0.952218  0  0  0.261486  0  1.030033  0  0  0.271267  0  1.02236  0  0  0.275138  0.254537  0  1.035603  0
H  H14  1  0.34489000  0.04880353  0.89948464  1  0  0.28937  0  0.93842  0  0  0.263006  0  1.020596  0  0  0.272959  0  1.012871  0  0  0.276483  0.255573  0  1.027182  0
H  H15  1  0.65510912  0.95119830  0.10051664  1  0  0.289374  0  0.938343  0  0  0.263021  0  1.020511  0  0  0.272967  0  1.01279  0  0  0.2765  0.255588  0  1.027098  0
H  H16  1  0.49286888  0.83598466  0.30948305  1  0  0.282786  0  0.955112  0  0  0.257298  0  1.036269  0  0  0.267032  0  1.028787  0  0  0.275479  0.24992  0  1.042798  0
H  H17  1  0.50713013  0.16401324  0.69051819  1  0  0.282833  0  0.955086  0  0  0.257355  0  1.036235  0  0  0.267089  0  1.028753  0  0  0.275494  0.249976  0  1.042767  0
H  H18  1  0.01802955  0.04636743  0.22183531  1  0  0.287668  0  0.945515  0  0  0.263116  0  1.024318  0  0  0.273399  0  1.016292  0  0  0.269182  0.255893  0  1.030069  0
H  H19  1  0.98197350  0.95362753  0.77816612  1  0  0.287695  0  0.945515  0  0  0.263141  0  1.024325  0  0  0.273425  0  1.016298  0  0  0.269192  0.25592  0  1.030071  0
C  C20  1  0.33756613  0.81298505  0.47669179  1  0  0.492989  0  3.788648  0  0  0.447061  0  4.081698  0  0  0.476049  0  4.086035  0  0  0.251968  0.427947  0  4.077671  0
C  C21  1  0.66243436  0.18701679  0.52330416  1  0  0.493017  0  3.788567  0  0  0.447067  0  4.081666  0  0  0.476054  0  4.086003  0  0  0.251974  0.427953  0  4.077646  0
C  C22  1  0.41265586  0.02249346  0.33601430  1  0  0.480054  0  3.770091  0  0  0.444477  0  4.067138  0  0  0.472166  0  4.0726  0  0  0.234442  0.42602  0  4.062286  0
C  C23  1  0.58734322  0.97750741  0.66397940  1  0  0.480043  0  3.770177  0  0  0.444421  0  4.067296  0  0  0.472109  0  4.072759  0  0  0.234391  0.425963  0  4.062439  0
C  C24  1  0.22829840  0.01904870  0.51925309  1  0  0.472051  0  3.805224  0  0  0.439166  0  4.098712  0  0  0.466441  0  4.10512  0  0  0.228347  0.421147  0  4.093613  0
C  C25  1  0.77170076  0.98095510  0.48074433  1  0  0.471859  0  3.805131  0  0  0.439003  0  4.098608  0  0  0.466281  0  4.105012  0  0  0.228289  0.420985  0  4.093505  0
C  C26  1  0.07403125  0.23280309  0.10624812  1  0  0.473525  0  3.830965  0  0  0.438609  0  4.123872  0  0  0.466665  0  4.129139  0  0  0.22746  0.419581  0  4.119499  0
C  C27  1  0.92596776  0.76719482  0.89375225  1  0  0.473579  0  3.830954  0  0  0.438639  0  4.123898  0  0  0.466698  0  4.129163  0  0  0.227441  0.41961  0  4.119519  0
C  C28  1  0.18731660  0.02725958  0.06666229  1  0  0.486332  0  3.782301  0  0  0.44063  0  4.077403  0  0  0.46896  0  4.083857  0  0  0.245698  0.421675  0  4.071873  0
C  C29  1  0.81268526  0.97274226  0.93333698  1  0  0.486443  0  3.782208  0  0  0.440685  0  4.077397  0  0  0.469007  0  4.083848  0  0  0.245721  0.421733  0  4.071865  0
C  C30  1  0.25774050  0.23473572  0.92291430  1  0  0.484804  0  3.798684  0  0  0.446291  0  4.097113  0  0  0.474771  0  4.101512  0  0  0.24311  0.427526  0  4.093074  0
C  C31  1  0.74225719  0.76526414  0.07708667  1  0  0.484724  0  3.798662  0  0  0.446227  0  4.097083  0  0  0.474698  0  4.101479  0  0  0.243075  0.427465  0  4.093037  0
S  S32  1  0.35058484  0.64906400  0.51692301  1  0  -0.498659  0  1.817281  0  0  -0.471997  0  2.121222  0  0  -0.486367  0  2.114422  0  0  -0.220497  -0.462386  0  2.125907  0
S  S33  1  0.64941015  0.35093783  0.48307437  1  0  -0.498691  0  1.81724  0  0  -0.472003  0  2.121174  0  0  -0.486384  0  2.114397  0  0  -0.220518  -0.462391  0  2.125861  0
S  S34  1  0.94981532  0.31118563  0.20393678  1  0  -0.527928  0  1.984352  0  0  -0.508577  0  2.314959  0  0  -0.524281  0  2.307633  0  0  -0.235007  -0.494821  0  2.318608  0
S  S35  1  0.05018644  0.68881227  0.79606677  1  0  -0.527942  0  1.984364  0  0  -0.508588  0  2.314986  0  0  -0.524287  0  2.307655  0  0  -0.235  -0.494838  0  2.31863  0
S  S36  1  0.20967916  0.86552974  0.10951100  1  0  -0.436617  0  1.907683  0  0  -0.428169  0  2.234994  0  0  -0.444079  0  2.231689  0  0  -0.213691  -0.417752  0  2.238052  0
S  S37  1  0.79032400  0.13446915  0.89049047  1  0  -0.436699  0  1.907688  0  0  -0.428236  0  2.235047  0  0  -0.444145  0  2.231743  0  0  -0.213741  -0.417826  0  2.238109  0
S  S38  1  0.10234322  0.09299350  0.61899040  1  0  -0.461938  0  1.982629  0  0  -0.457298  0  2.318484  0  0  -0.47357  0  2.315021  0  0  -0.213593  -0.444959  0  2.320494  0
S  S39  1  0.89765724  0.90700736  0.38100836  1  0  -0.461838  0  1.982515  0  0  -0.457209  0  2.318372  0  0  -0.473479  0  2.314909  0  0  -0.213561  -0.444873  0  2.320389  0
S  S40  1  0.53367659  0.09938622  0.20235907  1  0  -0.419905  0  1.972982  0  0  -0.406412  0  2.296843  0  0  -0.423171  0  2.292655  0  0  -0.150944  -0.393276  0  2.300065  0
S  S41  1  0.46631150  0.90061461  0.79763663  1  0  -0.419939  0  1.972836  0  0  -0.406416  0  2.296696  0  0  -0.42319  0  2.292528  0  0  -0.150931  -0.393273  0  2.299898  0
S  S42  1  0.36886464  0.31258169  0.78572617  1  0  -0.457636  0  1.970901  0  0  -0.429651  0  2.284664  0  0  -0.445474  0  2.275802  0  0  -0.130075  -0.418175  0  2.292078  0
S  S43  1  0.63113315  0.68742210  0.21427570  1  0  -0.457627  0  1.970951  0  0  -0.429635  0  2.284715  0  0  -0.445464  0  2.275855  0  0  -0.130064  -0.418164  0  2.292131  0
N  N44  1  0.15909602  0.30062884  0.99792725  1  0  -0.578685  0  3.081321  0  0  -0.533183  0  3.367214  0  0  -0.556469  0  3.374398  0  0  -0.430025  -0.517212  0  3.362778  0
N  N45  1  0.84090030  0.69937102  0.00207472  1  0  -0.578616  0  3.081303  0  0  -0.533111  0  3.367182  0  0  -0.556399  0  3.374368  0  0  -0.429965  -0.517143  0  3.362744  0
N  N46  1  0.31509355  0.08770802  0.41188654  1  0  -0.531056  0  3.014913  0  0  -0.492808  0  3.304766  0  0  -0.515225  0  3.312653  0  0  -0.390435  -0.477429  0  3.298402  0
N  N47  1  0.68490136  0.91229086  0.58811405  1  0  -0.531013  0  3.014933  0  0  -0.492752  0  3.304786  0  0  -0.515166  0  3.312671  0  0  -0.390423  -0.477372  0  3.298415  0
N  N48  1  0.24581056  0.88406571  0.55101678  1  0  -0.421185  0  3.385605  0  0  -0.350048  0  3.612546  0  0  -0.374187  0  3.62011  0  0  -0.375551  -0.334365  0  3.607438  0
N  N49  1  0.75418985  0.11593318  0.44898239  1  0  -0.421028  0  3.38563  0  0  -0.349912  0  3.612587  0  0  -0.374049  0  3.620151  0  0  -0.375525  -0.334231  0  3.607485  0
N  N50  1  0.27044117  0.09994712  0.95802091  1  0  -0.414745  0  3.358303  0  0  -0.343948  0  3.589315  0  0  -0.367773  0  3.59562  0  0  -0.369554  -0.328072  0  3.584964  0
N  N51  1  0.72956072  0.90005571  0.04197902  1  0  -0.414733  0  3.35808  0  0  -0.34398  0  3.589186  0  0  -0.367777  0  3.595469  0  0  -0.369591  -0.328104  0  3.584829  0
N  N52  1  0.41789308  0.88622763  0.36824578  1  0  -0.42262  0  3.370651  0  0  -0.34992  0  3.598131  0  0  -0.373563  0  3.604463  0  0  -0.372333  -0.334107  0  3.593584  0
N  N53  1  0.58210604  0.11377421  0.63175290  1  0  -0.422646  0  3.370602  0  0  -0.349977  0  3.598185  0  0  -0.373619  0  3.604516  0  0  -0.372293  -0.334164  0  3.593639  0
N  N54  1  0.08607087  0.09823142  0.13786612  1  0  -0.408927  0  3.363526  0  0  -0.336737  0  3.589458  0  0  -0.361102  0  3.596533  0  0  -0.3703  -0.320454  0  3.584478  0
N  N55  1  0.91392816  0.90176747  0.86213404  1  0  -0.409011  0  3.36348  0  0  -0.336752  0  3.589353  0  0  -0.361122  0  3.596435  0  0  -0.37028  -0.320472  0  3.584372  0
O  O56  1  0.48059844  0.40509402  0.18386072  1  0  -0.912834  0  1.909532  0  0  -0.85951  0  2.07972  0  0  -0.878259  0  2.05263  0  0  -0.727314  -0.845518  0  2.101239  0
O  O57  1  0.51941022  0.59490488  0.81614364  1  0  -0.912867  0  1.909591  0  0  -0.859543  0  2.079727  0  0  -0.878283  0  2.052644  0  0  -0.727356  -0.845557  0  2.101243  0
O  O58  1  0.01920386  0.60691729  0.30584694  1  0  -0.888623  0  1.869984  0  0  -0.83979  0  2.036057  0  0  -0.857421  0  2.010153  0  0  -0.689125  -0.827291  0  2.053626  0
O  O59  1  0.98079797  0.39308358  0.69414994  1  0  -0.88864  0  1.870025  0  0  -0.839818  0  2.036071  0  0  -0.857446  0  2.010168  0  0  -0.689119  -0.827308  0  2.053615  0
