# generated using pymatgen
data_ZnH12C20N3O4
_symmetry_space_group_name_H-M   'P 1'
_cell_length_a   7.58841245
_cell_length_b   9.94786619
_cell_length_c   11.26516316
_cell_angle_alpha   81.84508592
_cell_angle_beta   79.59269213
_cell_angle_gamma   75.12963886
_symmetry_Int_Tables_number   1
_chemical_formula_structural   ZnH12C20N3O4
_chemical_formula_sum   'Zn2 H24 C40 N6 O8'
_cell_volume   804.29932286
_cell_formula_units_Z   2
loop_
 _symmetry_equiv_pos_site_id
 _symmetry_equiv_pos_as_xyz
  1  'x, y, z'
loop_
 _atom_site_type_symbol
 _atom_site_label
 _atom_site_symmetry_multiplicity
 _atom_site_fract_x
 _atom_site_fract_y
 _atom_site_fract_z
 _atom_site_occupancy
 _atom_site_pbe_bader_spin_density
 _atom_site_pbe_cm5_charge
 _atom_site_pbe_ddec_charge
 _atom_site_pbe_ddec_spin_density
 _atom_site_pbe_ddec_sum_bond_order
 _atom_site_pbe_magmom
Zn  Zn0  1  0.25138881  0.58408650  0.95008096  1  0  0.704813  0.863322  0  2.297314  0
Zn  Zn1  1  0.74860787  0.41591404  0.04991934  1  0  0.704832  0.863329  0  2.29731  0
H  H2  1  0.22467432  0.44859604  0.20515929  1  0  0.114756  0.083397  0  1.030546  0
H  H3  1  0.77533170  0.55140455  0.79484169  1  0  0.114754  0.083401  0  1.030524  0
H  H4  1  0.12581968  0.52524564  0.41254606  1  0  0.108277  0.111437  0  1.060406  0
H  H5  1  0.87418801  0.47475391  0.58745485  1  0  0.1083  0.111512  0  1.060282  0
H  H6  1  0.94416544  0.94552728  0.24383804  1  0  0.108629  0.119  0  1.058629  0
H  H7  1  0.05583422  0.05447222  0.75616470  1  0  0.108611  0.11898  0  1.058676  0
H  H8  1  0.06400970  0.85186819  0.04316641  1  0  0.119527  0.102701  0  1.035823  0
H  H9  1  0.93599061  0.14813342  0.95683600  1  0  0.119516  0.10268  0  1.035792  0
H  H10  1  0.12853259  0.63549698  0.57073574  1  0  0.1123  0.126154  0  1.02314  0
H  H11  1  0.87146939  0.36450359  0.42926749  1  0  0.112299  0.126139  0  1.023198  0
H  H12  1  0.77361427  0.97700805  0.75650203  1  0  0.107944  0.117171  0  1.031431  0
H  H13  1  0.22638639  0.02299251  0.24350046  1  0  0.107932  0.117151  0  1.031404  0
H  H14  1  0.33562359  0.38113346  0.70880654  1  0  0.107517  0.084244  0  1.004502  0
H  H15  1  0.66437281  0.61886813  0.29118834  1  0  0.107513  0.084284  0  1.004453  0
H  H16  1  0.56165792  0.15631906  0.74242714  1  0  0.096786  0.099456  0  1.052038  0
H  H17  1  0.43833540  0.84368356  0.25757329  1  0  0.096793  0.099476  0  1.052032  0
H  H18  1  0.64018766  0.12394702  0.35765274  1  0  0.104836  0.112539  0  1.023782  0
H  H19  1  0.35981538  0.87604622  0.64234860  1  0  0.104832  0.112532  0  1.023786  0
H  H20  1  0.41715800  0.35444129  0.33840093  1  0  0.103643  0.071645  0  1.021477  0
H  H21  1  0.58284710  0.64555407  0.66159458  1  0  0.103588  0.07154  0  1.021526  0
H  H22  1  0.69158611  0.08223151  0.11949826  1  0  0.106145  0.116335  0  1.029195  0
H  H23  1  0.30840722  0.91777111  0.88050217  1  0  0.10618  0.116369  0  1.029245  0
H  H24  1  0.74502068  0.82750939  0.09613422  1  0  0.103445  0.103499  0  1.045156  0
H  H25  1  0.25497669  0.17249325  0.90386308  1  0  0.103429  0.103447  0  1.045185  0
C  C26  1  0.16285518  0.55780701  0.21830815  1  0  0.047864  0.108275  0  3.927495  0
C  C27  1  0.83714717  0.44219252  0.78169339  1  0  0.047845  0.10827  0  3.927576  0
C  C28  1  0.10486111  0.60149252  0.33368060  1  0  -0.073356  -0.151618  0  3.900104  0
C  C29  1  0.89514255  0.39850701  0.66632256  1  0  -0.073356  -0.151644  0  3.900144  0
C  C30  1  0.02234679  0.74296863  0.34582394  1  0  0.020689  0.094368  0  3.945509  0
C  C31  1  0.97765688  0.25703090  0.65417833  1  0  0.020602  0.094203  0  3.945412  0
C  C32  1  0.00604300  0.83457559  0.23958657  1  0  -0.077312  -0.158403  0  3.933563  0
C  C33  1  0.99395531  0.16542391  0.76041632  1  0  -0.077222  -0.158326  0  3.933495  0
C  C34  1  0.07245781  0.78412164  0.12779621  1  0  0.041074  0.085709  0  3.940981  0
C  C35  1  0.92754319  0.21587787  0.87220548  1  0  0.041033  0.085713  0  3.940948  0
C  C36  1  0.95298092  0.79928425  0.46458305  1  0  0.122398  0.196767  0  4.012152  0
C  C37  1  0.04702276  0.20071528  0.53541833  1  0  0.122413  0.196843  0  4.012204  0
C  C38  1  0.02183516  0.73281063  0.57104372  1  0  -0.070917  -0.167385  0  3.868371  0
C  C39  1  0.97816815  0.26718995  0.42896024  1  0  -0.070913  -0.167389  0  3.868278  0
C  C40  1  0.95885449  0.80057724  0.67651137  1  0  0.000121  0.018445  0  3.953707  0
C  C41  1  0.04114583  0.19942437  0.32349104  1  0  8.3e-05  0.018456  0  3.953537  0
C  C42  1  0.82237679  0.92526277  0.67385461  1  0  -0.072922  -0.171372  0  3.892873  0
C  C43  1  0.17762352  0.07473883  0.32614869  1  0  -0.072908  -0.171305  0  3.89279  0
C  C44  1  0.75861294  0.98344129  0.56403030  1  0  0.122346  0.201443  0  4.006368  0
C  C45  1  0.24138839  0.01655718  0.43597237  1  0  0.122318  0.201316  0  4.006405  0
C  C46  1  0.40661756  0.32215640  0.63208667  1  0  0.039026  0.092631  0  3.980335  0
C  C47  1  0.59338084  0.67784311  0.36790912  1  0  0.039061  0.092631  0  3.980403  0
C  C48  1  0.53382185  0.19499293  0.65077962  1  0  -0.087597  -0.166896  0  3.937245  0
C  C49  1  0.46617617  0.80500762  0.34921964  1  0  -0.087634  -0.166972  0  3.937237  0
C  C50  1  0.62108702  0.11903808  0.55196691  1  0  0.004148  0.070212  0  3.96348  0
C  C51  1  0.37891166  0.88096038  0.44803429  1  0  0.004232  0.070327  0  3.963365  0
C  C52  1  0.57617182  0.17852531  0.43745962  1  0  -0.082702  -0.15733  0  3.939735  0
C  C53  1  0.42383021  0.82147107  0.56254056  1  0  -0.082681  -0.157258  0  3.939599  0
C  C54  1  0.44998006  0.30698738  0.42769626  1  0  0.036058  0.089804  0  3.987092  0
C  C55  1  0.55002234  0.69300796  0.57230135  1  0  0.036083  0.089868  0  3.986911  0
C  C56  1  0.04744021  0.75097302  0.78920647  1  0  0.20646  0.559973  0  4.213412  0
C  C57  1  0.95255944  0.24902648  0.21079716  1  0  0.206444  0.559891  0  4.213401  0
C  C58  1  0.43720767  0.29517754  0.02250762  1  0  0.223307  0.592291  0  4.168702  0
C  C59  1  0.56279141  0.70482407  0.97748694  1  0  0.223343  0.592304  0  4.168554  0
C  C60  1  0.46926841  0.14228151  0.01265065  1  0  -0.016077  -0.040577  0  3.966135  0
C  C61  1  0.53072763  0.85772113  0.98734592  1  0  -0.016075  -0.040414  0  3.966011  0
C  C62  1  0.60784152  0.04554067  0.06783876  1  0  -0.081253  -0.096405  0  3.944596  0
C  C63  1  0.39215350  0.95446091  0.93215983  1  0  -0.081306  -0.096543  0  3.944608  0
C  C64  1  0.63803240  0.90427859  0.05459921  1  0  -0.079284  -0.080425  0  3.960358  0
C  C65  1  0.36196363  0.09572405  0.94539824  1  0  -0.079262  -0.080277  0  3.960371  0
N  N66  1  0.14836665  0.64700692  0.11644456  1  0  -0.337181  -0.259161  0  3.602594  0
N  N67  1  0.85163436  0.35299259  0.88355714  1  0  -0.337139  -0.259134  0  3.602541  0
N  N68  1  0.82728886  0.92179591  0.46149129  1  0  -0.296966  -0.316065  0  3.319679  0
N  N69  1  0.17271078  0.07820360  0.53851234  1  0  -0.296927  -0.316  0  3.319716  0
N  N70  1  0.36320128  0.37893448  0.52256406  1  0  -0.322792  -0.275081  0  3.344751  0
N  N71  1  0.63679983  0.62106086  0.47743015  1  0  -0.322825  -0.275156  0  3.34484  0
O  O72  1  0.12979231  0.61974682  0.80431535  1  0  -0.324823  -0.53886  0  2.285684  0
O  O73  1  0.87020366  0.38025162  0.19568884  1  0  -0.324859  -0.538889  0  2.285642  0
O  O74  1  0.04149731  0.83882844  0.86007242  1  0  -0.304083  -0.536608  0  2.190926  0
O  O75  1  0.95850502  0.16117108  0.13993001  1  0  -0.30406  -0.536543  0  2.190959  0
O  O76  1  0.32060809  0.37671293  0.95996209  1  0  -0.306401  -0.522501  0  2.336545  0
O  O77  1  0.67939471  0.62328975  0.04002747  1  0  -0.306367  -0.522473  0  2.336431  0
O  O78  1  0.52412276  0.33588280  0.09229899  1  0  -0.328438  -0.582198  0  2.380308  0
O  O79  1  0.47587161  0.66412088  0.90769675  1  0  -0.328507  -0.582274  0  2.380297  0
