# generated using pymatgen
data_Gd2H18(CO2)9
_symmetry_space_group_name_H-M   'P 1'
_cell_length_a   10.48574063
_cell_length_b   10.48486874
_cell_length_c   10.76533271
_cell_angle_alpha   117.88184177
_cell_angle_beta   101.39937727
_cell_angle_gamma   108.48402695
_symmetry_Int_Tables_number   1
_chemical_formula_structural   Gd2H18(CO2)9
_chemical_formula_sum   'Gd4 H36 C18 O36'
_cell_volume   903.79000417
_cell_formula_units_Z   2
loop_
 _symmetry_equiv_pos_site_id
 _symmetry_equiv_pos_as_xyz
  1  'x, y, z'
loop_
 _atom_site_type_symbol
 _atom_site_label
 _atom_site_symmetry_multiplicity
 _atom_site_fract_x
 _atom_site_fract_y
 _atom_site_fract_z
 _atom_site_occupancy
 _atom_site_pbe_bader_charge
 _atom_site_pbe_bader_spin_density
 _atom_site_pbe_cm5_charge
 _atom_site_pbe_ddec_charge
 _atom_site_pbe_ddec_spin_density
 _atom_site_pbe_ddec_sum_bond_order
 _atom_site_pbe_magmom
Gd  Gd0  1  0.92947831  0.24459567  0.88032014  1  2.21005  0  1.459807  2.101925  0  2.109835  0
Gd  Gd1  1  0.36436305  0.54908912  0.61966390  1  2.210436  0  1.459838  2.101846  0  2.110393  0
Gd  Gd2  1  0.07052126  0.75540476  0.11968058  1  2.210003  0  1.459796  2.101933  0  2.109839  0
Gd  Gd3  1  0.63563762  0.45090973  0.38033631  1  2.210431  0  1.459843  2.101903  0  2.110237  0
H  H4  1  0.28253676  0.20416608  0.83403163  1  0.127988  0  0.122807  0.167937  0  0.985303  0
H  H5  1  0.37005299  0.94830322  0.66591681  1  0.108986  0  0.122817  0.168026  0  0.985545  0
H  H6  1  0.71746281  0.79583435  0.16596816  1  0.127981  0  0.1228  0.167928  0  0.985319  0
H  H7  1  0.62995431  0.05169371  0.33408844  1  0.109012  0  0.122793  0.167974  0  0.985588  0
H  H8  1  0.26426046  0.12993945  0.64238778  1  0.094216  0  0.114601  0.154303  0  0.982798  0
H  H9  1  0.48752271  0.12174790  0.85752530  1  0.067525  0  0.114501  0.154188  0  0.983269  0
H  H10  1  0.73574021  0.87006048  0.35761199  1  0.094225  0  0.114599  0.15433  0  0.982789  0
H  H11  1  0.51247576  0.87824871  0.14246418  1  0.067449  0  0.114488  0.154191  0  0.9832  0
H  H12  1  0.60655038  0.24914720  0.71402098  1  0.116896  0  0.124098  0.170328  0  0.971016  0
H  H13  1  0.53520603  0.39240733  0.78587988  1  0.112722  0  0.124218  0.170399  0  0.970554  0
H  H14  1  0.39345139  0.75085439  0.28598905  1  0.116842  0  0.124092  0.170325  0  0.970989  0
H  H15  1  0.46479464  0.60759368  0.21412038  1  0.112727  0  0.124227  0.170416  0  0.970527  0
H  H16  1  0.81596810  0.30628632  0.14313226  1  0.640606  0  0.297434  0.390506  0  0.947295  0
H  H17  1  0.16298677  0.17276918  0.35667157  1  0.643065  0  0.297463  0.390522  0  0.947231  0
H  H18  1  0.18403146  0.69371303  0.85686704  1  0.640523  0  0.297405  0.390414  0  0.947414  0
H  H19  1  0.83701280  0.82723017  0.64332773  1  0.643068  0  0.297451  0.390499  0  0.947268  0
H  H20  1  0.89337082  0.47118900  0.15895825  1  0.660005  0  0.300064  0.393658  0  0.945859  0
H  H21  1  0.31215495  0.23433052  0.34099073  1  0.651265  0  0.29997  0.393598  0  0.945943  0
H  H22  1  0.10662986  0.52881093  0.84104152  1  0.660001  0  0.300052  0.39364  0  0.945889  0
H  H23  1  0.68784572  0.76566941  0.65901090  1  0.651261  0  0.299969  0.393591  0  0.945963  0
H  H24  1  0.85820241  0.14771737  0.55122907  1  0.639889  0  0.290666  0.382909  0  0.964693  0
H  H25  1  0.59658838  0.80695305  0.94877244  1  0.63065  0  0.290719  0.382935  0  0.964703  0
H  H26  1  0.14179826  0.85228472  0.44877169  1  0.639886  0  0.290673  0.382916  0  0.964683  0
H  H27  1  0.40341229  0.19304688  0.05122734  1  0.630563  0  0.290715  0.382903  0  0.964752  0
H  H28  1  0.77694941  0.24980867  0.60709061  1  0.62948  0  0.294266  0.389964  0  0.945323  0
H  H29  1  0.64297957  0.66992642  0.89298692  1  0.638522  0  0.294095  0.389823  0  0.945561  0
H  H30  1  0.22305126  0.75019233  0.39290966  1  0.629482  0  0.294281  0.389983  0  0.945296  0
H  H31  1  0.35702552  0.33007474  0.10701519  1  0.638559  0  0.294059  0.389689  0  0.945719  0
H  H32  1  0.00909119  0.11734178  0.06701654  1  0.624687  0  0.32675  0.418044  0  0.877805  0
H  H33  1  0.05050463  0.44223418  0.43301399  1  0.640036  0  0.326602  0.41797  0  0.877943  0
H  H34  1  0.99090838  0.88265757  0.93298275  1  0.624685  0  0.32675  0.418047  0  0.877792  0
H  H35  1  0.94949494  0.55776517  0.56698531  1  0.640045  0  0.3266  0.417974  0  0.8779  0
H  H36  1  0.83781333  0.06221369  0.02200505  1  0.653432  0  0.302597  0.403749  0  0.926558  0
H  H37  1  0.04027409  0.31596454  0.47805281  1  0.65063  0  0.30257  0.403699  0  0.926546  0
H  H38  1  0.16218624  0.93778566  0.97799518  1  0.653439  0  0.30261  0.403759  0  0.926543  0
H  H39  1  0.95972437  0.68403531  0.52194651  1  0.650629  0  0.302552  0.403686  0  0.926573  0
C  C40  1  0.19519539  0.31167526  0.74112173  1  1.611297  0  0.244142  0.740708  0  4.075786  0
C  C41  1  0.57056059  0.95398838  0.75880622  1  1.61289  0  0.244081  0.740767  0  4.075834  0
C  C42  1  0.80480418  0.68832517  0.25887806  1  1.611294  0  0.244104  0.740641  0  4.075833  0
C  C43  1  0.42944008  0.04600399  0.24119476  1  1.612879  0  0.244062  0.740677  0  4.075834  0
C  C44  1  0.20889671  0.16355530  0.71962059  1  -0.099765  0  -0.160422  -0.490491  0  3.885095  0
C  C45  1  0.44393480  0.98913998  0.78031847  1  -0.04674  0  -0.160394  -0.490212  0  3.885795  0
C  C46  1  0.79110286  0.83644405  0.28037871  1  -0.099756  0  -0.160425  -0.490515  0  3.885181  0
C  C47  1  0.55606919  0.01085521  0.21968442  1  -0.046812  0  -0.16034  -0.490173  0  3.885724  0
C  C48  1  0.06958515  0.01291248  0.66513667  1  1.588352  0  0.234749  0.698346  0  4.09853  0
C  C49  1  0.34788714  0.90434472  0.83489626  1  1.582538  0  0.234824  0.698023  0  4.098998  0
C  C50  1  0.93041331  0.98708630  0.33486122  1  1.588345  0  0.234695  0.698267  0  4.098535  0
C  C51  1  0.65211132  0.09565082  0.16510016  1  1.582091  0  0.234885  0.698293  0  4.098652  0
C  C52  1  0.77374412  0.50087955  0.87760082  1  1.585669  0  0.229468  0.698349  0  4.114853  0
C  C53  1  0.62336131  0.39603708  0.62234118  1  1.577126  0  0.229334  0.698657  0  4.113986  0
C  C54  1  0.22625435  0.49912138  0.12239898  1  1.585654  0  0.229408  0.698202  0  4.115119  0
C  C55  1  0.37663826  0.60396335  0.37765861  1  1.576773  0  0.229348  0.698726  0  4.11392  0
C  C56  1  0.62152388  0.37141709  0.74995400  1  -0.10742  0  -0.151412  -0.457796  0  3.814123  0
C  C57  1  0.37847569  0.62858226  0.25004623  1  -0.107352  0  -0.151413  -0.457787  0  3.814089  0
O  O58  1  0.10289303  0.34769190  0.79079582  1  -1.199522  0  -0.364852  -0.651436  0  2.361346  0
O  O59  1  0.55690863  0.81199296  0.70909104  1  -1.198481  0  -0.365031  -0.651576  0  2.361589  0
O  O60  1  0.89710654  0.65230745  0.20920347  1  -1.19953  0  -0.364845  -0.651422  0  2.361367  0
O  O61  1  0.44309314  0.18799999  0.29090948  1  -1.198337  0  -0.364994  -0.651519  0  2.361496  0
O  O62  1  0.28327448  0.39634033  0.71174760  1  -1.207954  0  -0.414616  -0.667948  0  2.298313  0
O  O63  1  0.68460779  0.07147769  0.78823345  1  -1.213  0  -0.414736  -0.667999  0  2.29886  0
O  O64  1  0.71672729  0.60366125  0.28825407  1  -1.207949  0  -0.414599  -0.667909  0  2.29827  0
O  O65  1  0.31539177  0.92851951  0.21176765  1  -1.213033  0  -0.414769  -0.668008  0  2.298853  0
O  O66  1  0.97300870  0.02749344  0.71862357  1  -1.201712  0  -0.378067  -0.650317  0  2.286524  0
O  O67  1  0.30913110  0.75433404  0.78159622  1  -1.20437  0  -0.378184  -0.650418  0  2.287246  0
O  O68  1  0.02699197  0.97250757  0.28137763  1  -1.201706  0  -0.378086  -0.650277  0  2.286489  0
O  O69  1  0.69087068  0.24566215  0.21840486  1  -1.203872  0  -0.378179  -0.650584  0  2.287179  0
O  O70  1  0.05705291  0.87479754  0.56858860  1  -1.200077  0  -0.296939  -0.548813  0  2.194346  0
O  O71  1  0.30625269  0.98836778  0.93134292  1  -1.197366  0  -0.296943  -0.548535  0  2.194032  0
O  O72  1  0.94293672  0.12520092  0.43140095  1  -1.200078  0  -0.296837  -0.548736  0  2.194259  0
O  O73  1  0.69374799  0.01163107  0.06865450  1  -1.197349  0  -0.296966  -0.548626  0  2.193908  0
O  O74  1  0.86974839  0.45932375  0.91145532  1  -1.205301  0  -0.40743  -0.70149  0  2.418612  0
O  O75  1  0.54794184  0.45819671  0.58850248  1  -1.202496  0  -0.407413  -0.701477  0  2.417979  0
O  O76  1  0.13024566  0.54067487  0.08854537  1  -1.205356  0  -0.407369  -0.701404  0  2.418682  0
O  O77  1  0.45205772  0.54180264  0.41149589  1  -1.202406  0  -0.407437  -0.701554  0  2.417985  0
O  O78  1  0.80658625  0.65111936  0.94306734  1  -1.179809  0  -0.334268  -0.61041  0  2.186333  0
O  O79  1  0.70816732  0.36347825  0.55693485  1  -1.181689  0  -0.334003  -0.610542  0  2.185693  0
O  O80  1  0.19341442  0.34888273  0.05693435  1  -1.179854  0  -0.334283  -0.610375  0  2.186502  0
O  O81  1  0.29183336  0.63652384  0.44306591  1  -1.181354  0  -0.333984  -0.610527  0  2.185622  0
O  O82  1  0.89118303  0.36294266  0.11797297  1  -1.306201  0  -0.643717  -0.873315  0  2.099598  0
O  O83  1  0.24491495  0.27316340  0.38197060  1  -1.301088  0  -0.643939  -0.873432  0  2.099847  0
O  O84  1  0.10881543  0.63705612  0.88202585  1  -1.306134  0  -0.643667  -0.873216  0  2.09966  0
O  O85  1  0.75508682  0.72683711  0.61803151  1  -1.301098  0  -0.643927  -0.873395  0  2.099852  0
O  O86  1  0.80177466  0.17008142  0.61670884  1  -1.270878  0  -0.639892  -0.855216  0  2.075329  0
O  O87  1  0.55359152  0.68505171  0.88326530  1  -1.271603  0  -0.639623  -0.855219  0  2.075535  0
O  O88  1  0.19822491  0.82991793  0.38328953  1  -1.270861  0  -0.639908  -0.85524  0  2.07531  0
O  O89  1  0.44641247  0.31494888  0.11673448  1  -1.271565  0  -0.639572  -0.85505  0  2.075671  0
O  O90  1  0.91775275  0.07916108  0.98455146  1  -1.250236  0  -0.625423  -0.832371  0  2.081408  0
O  O91  1  0.09474117  0.43335299  0.51548890  1  -1.26327  0  -0.625213  -0.832187  0  2.081804  0
O  O92  1  0.08224681  0.92083827  0.01544877  1  -1.250169  0  -0.625434  -0.8324  0  2.081406  0
O  O93  1  0.90525730  0.56664578  0.48450899  1  -1.263256  0  -0.625185  -0.832169  0  2.081759  0
