# generated using pymatgen
data_Zn4H6C22O17
_symmetry_space_group_name_H-M   'P 1'
_cell_length_a   15.99540710
_cell_length_b   15.99464814
_cell_length_c   21.38429287
_cell_angle_alpha   111.93916632
_cell_angle_beta   112.01648759
_cell_angle_gamma   89.95225485
_symmetry_Int_Tables_number   1
_chemical_formula_structural   Zn4H6C22O17
_chemical_formula_sum   'Zn8 H12 C44 O34'
_cell_volume   4642.63025888
_cell_formula_units_Z   2
loop_
 _symmetry_equiv_pos_site_id
 _symmetry_equiv_pos_as_xyz
  1  'x, y, z'
loop_
 _atom_site_type_symbol
 _atom_site_label
 _atom_site_symmetry_multiplicity
 _atom_site_fract_x
 _atom_site_fract_y
 _atom_site_fract_z
 _atom_site_occupancy
 _atom_site_pbe_bader_charge
 _atom_site_pbe_bader_spin_density
 _atom_site_pbe_cm5_charge
 _atom_site_pbe_ddec_charge
 _atom_site_pbe_ddec_spin_density
 _atom_site_pbe_ddec_sum_bond_order
 _atom_site_pbe_magmom
Zn  Zn0  1  0.28200497  0.88176213  0.56372571  1  1.320215  0  0.679309  0.96803  0  2.357284  0
Zn  Zn1  1  0.88170160  0.28185553  0.56378039  1  1.319334  0  0.677597  0.96666  0  2.358021  0
Zn  Zn2  1  0.28190989  0.68209140  0.56379758  1  1.310064  0  0.67748  0.966807  0  2.358814  0
Zn  Zn3  1  0.71808984  0.31790777  0.43620166  1  1.310056  0  0.677467  0.96685  0  2.358788  0
Zn  Zn4  1  0.11829693  0.71814464  0.43621971  1  1.31933  0  0.677593  0.966674  0  2.357989  0
Zn  Zn5  1  0.71799401  0.11823771  0.43627279  1  1.320268  0  0.679293  0.968024  0  2.357331  0
Zn  Zn6  1  0.31801561  0.71830336  0.43626157  1  1.31274  0  0.67927  0.968347  0  2.358109  0
Zn  Zn7  1  0.68198440  0.28169524  0.56373865  1  1.312744  0  0.67925  0.968367  0  2.358053  0
H  H8  1  0.64802028  0.09828577  0.04928156  1  0.078655  0  0.112311  0.132277  0  0.977454  0
H  H9  1  0.33294235  0.10635332  0.01485918  1  0.598888  0  0.335443  0.364483  0  0.880023  0
H  H10  1  0.90861814  0.68198970  0.01483088  1  0.591431  0  0.335487  0.364491  0  0.880567  0
H  H11  1  0.09138086  0.31801036  0.98516899  1  0.591442  0  0.335463  0.364483  0  0.880625  0
H  H12  1  0.66705404  0.89364102  0.98514013  1  0.59885  0  0.335432  0.364487  0  0.88004  0
H  H13  1  0.51021679  0.80624352  0.01437455  1  0.603095  0  0.336695  0.365466  0  0.878142  0
H  H14  1  0.48978275  0.19375497  0.98562450  1  0.603114  0  0.336722  0.365516  0  0.8781  0
H  H15  1  0.79186335  0.49586420  0.98561149  1  0.584981  0  0.337205  0.366312  0  0.877267  0
H  H16  1  0.35198038  0.90171329  0.95071793  1  0.078637  0  0.112311  0.132255  0  0.977486  0
H  H17  1  0.20813629  0.50413632  0.01438766  1  0.584969  0  0.337194  0.366282  0  0.877277  0
H  H18  1  0.04913281  0.59868052  0.95074104  1  0.103198  0  0.112525  0.132511  0  0.9774  0
H  H19  1  0.95086684  0.40132010  0.04925880  1  0.103206  0  0.112533  0.132514  0  0.977408  0
C  C20  1  0.14964327  0.64983020  0.29989219  1  1.604693  0  0.233838  0.684162  0  4.234459  0
C  C21  1  0.53689171  0.03661736  0.07583302  1  0.018815  0  0.001622  0.027375  0  3.81013  0
C  C22  1  0.03920134  0.53892115  0.07583691  1  0.159185  0  0.002246  0.026427  0  3.808273  0
C  C23  1  0.96079877  0.46107947  0.92416340  1  0.159476  0  0.002252  0.026428  0  3.808339  0
C  C24  1  0.46310830  0.96338114  0.92416650  1  0.018923  0  0.001663  0.027359  0  3.810063  0
C  C25  1  0.42435037  0.92405478  0.84638013  1  -0.175281  0  -0.017508  0.014279  0  4.051364  0
C  C26  1  0.57564521  0.07593934  0.15361292  1  -0.175175  0  -0.017557  0.014104  0  4.050755  0
C  C27  1  0.07757583  0.57790002  0.15360997  1  -0.083877  0  -0.017953  0.015795  0  4.051976  0
C  C28  1  0.85035685  0.35017042  0.70010812  1  1.604632  0  0.233837  0.68418  0  4.234471  0
C  C29  1  0.92242318  0.42210015  0.84639060  1  -0.083916  0  -0.017935  0.015859  0  4.052093  0
C  C30  1  0.47313562  0.52679865  0.50000822  1  0.044225  0  -0.013141  -0.10536  0  3.909767  0
C  C31  1  0.52686766  0.47319985  0.49999458  1  -0.144612  0  -0.012958  -0.105152  0  3.909752  0
C  C32  1  0.02678741  0.97312669  0.49999391  1  0.043035  0  -0.013036  -0.105232  0  3.910444  0
C  C33  1  0.97321234  0.02687618  0.50000741  1  -0.147564  0  -0.013  -0.105013  0  3.910576  0
C  C34  1  0.35004012  0.84972707  0.70011404  1  1.631711  0  0.233618  0.682794  0  4.235996  0
C  C35  1  0.02681895  0.52683256  0.50001805  1  0.03134  0  -0.013953  -0.106069  0  3.910621  0
C  C36  1  0.97318145  0.47316751  0.49998323  1  -0.191032  0  -0.013923  -0.106077  0  3.910618  0
C  C37  1  0.09080323  0.90909225  0.50002400  1  1.653253  0  0.242767  0.67551  0  4.223987  0
C  C38  1  0.90919958  0.09090939  0.49997696  1  1.653268  0  0.242751  0.675482  0  4.22393  0
C  C39  1  0.40906525  0.59079222  0.49997889  1  1.665954  0  0.243134  0.677251  0  4.225195  0
C  C40  1  0.64995980  0.15027266  0.29988470  1  1.631673  0  0.23362  0.682841  0  4.236382  0
C  C41  1  0.59093347  0.40920537  0.50002208  1  1.665793  0  0.243232  0.677385  0  4.224942  0
C  C42  1  0.09081591  0.59087020  0.50002589  1  1.686951  0  0.242124  0.674843  0  4.226886  0
C  C43  1  0.90918542  0.40912975  0.49997564  1  1.686927  0  0.242154  0.674881  0  4.226718  0
C  C44  1  0.40912910  0.90921281  0.49996069  1  1.685026  0  0.243094  0.676069  0  4.224077  0
C  C45  1  0.59087304  0.09078467  0.50003892  1  1.685143  0  0.24312  0.676159  0  4.224146  0
C  C46  1  0.47316498  0.97319465  0.49998763  1  0.03298  0  -0.012201  -0.104138  0  3.907161  0
C  C47  1  0.52683789  0.02680194  0.50001134  1  -0.189645  0  -0.012133  -0.104101  0  3.907178  0
C  C48  1  0.58229081  0.05452785  0.02645121  1  -0.064341  0  -0.085912  -0.240233  0  3.648186  0
C  C49  1  0.41770827  0.94547076  0.97354807  1  -0.064329  0  -0.085964  -0.240272  0  3.648258  0
C  C50  1  0.02815245  0.55580847  0.97357237  1  -0.093805  0  -0.086684  -0.241098  0  3.649025  0
C  C51  1  0.97184767  0.44419215  0.02642794  1  -0.093787  0  -0.086667  -0.241068  0  3.648969  0
C  C52  1  0.55866061  0.94975221  0.97564617  1  0.571475  0  0.081819  0.216957  0  3.768254  0
C  C53  1  0.44133828  0.05024572  0.02435292  1  0.571152  0  0.081858  0.217042  0  3.768152  0
C  C54  1  0.97417915  0.58306481  0.02436058  1  0.59492  0  0.082144  0.218395  0  3.765769  0
C  C55  1  0.02582096  0.41693570  0.97563904  1  0.594557  0  0.08218  0.218487  0  3.765706  0
C  C56  1  0.39009137  0.88958870  0.77927613  1  0.031595  0  -0.047021  -0.204717  0  3.970662  0
C  C57  1  0.60991175  0.11041271  0.22072786  1  0.031574  0  -0.046962  -0.204627  0  3.970172  0
C  C58  1  0.11027372  0.61069369  0.22072415  1  -0.180381  0  -0.04684  -0.206072  0  3.971792  0
C  C59  1  0.88972584  0.38930851  0.77927698  1  -0.180356  0  -0.046858  -0.20617  0  3.971923  0
C  C60  1  0.48761855  0.06861059  0.97585517  1  0.599848  0  0.079507  0.213749  0  3.776967  0
C  C61  1  0.51238165  0.93138858  0.02414454  1  0.599828  0  0.079479  0.213746  0  3.776988  0
C  C62  1  0.09274860  0.51165819  0.02414406  1  0.578002  0  0.079185  0.21333  0  3.776065  0
C  C63  1  0.90725150  0.48834233  0.97585556  1  0.578016  0  0.079185  0.213336  0  3.776071  0
O  O64  1  0.25001877  0.75002735  0.50000232  1  -1.2208  0  -0.569061  -1.040572  0  2.523132  0
O  O65  1  0.76312822  0.33460042  0.66861141  1  -1.127311  0  -0.308137  -0.536676  0  2.280044  0
O  O66  1  0.33408548  0.90542997  0.66858440  1  -1.1604  0  -0.308414  -0.536528  0  2.280656  0
O  O67  1  0.66591369  0.09457066  0.33141498  1  -1.160357  0  -0.308451  -0.53657  0  2.280739  0
O  O68  1  0.05732769  0.82636476  0.45550314  1  -1.141351  0  -0.299627  -0.525734  0  2.273708  0
O  O69  1  0.94267189  0.17363754  0.54449868  1  -1.141384  0  -0.299606  -0.525728  0  2.273678  0
O  O70  1  0.37081597  0.60182335  0.54447385  1  -1.149097  0  -0.299705  -0.526645  0  2.275123  0
O  O71  1  0.62918628  0.39817638  0.45552724  1  -1.149035  0  -0.299761  -0.526731  0  2.275003  0
O  O72  1  0.74998003  0.24997193  0.49999668  1  -1.220813  0  -0.569049  -1.040574  0  2.523102  0
O  O73  1  0.05734134  0.62889842  0.45530532  1  -1.146009  0  -0.299706  -0.525644  0  2.274265  0
O  O74  1  0.94265952  0.37110154  0.54469574  1  -1.146041  0  -0.299686  -0.525627  0  2.27428  0
O  O75  1  0.17355505  0.60213115  0.54475109  1  -1.143226  0  -0.299592  -0.526033  0  2.274778  0
O  O76  1  0.82644469  0.39786824  0.45524954  1  -1.143178  0  -0.299659  -0.526089  0  2.27465  0
O  O77  1  0.39811133  0.82645821  0.45548942  1  -1.142384  0  -0.299002  -0.525543  0  2.274326  0
O  O78  1  0.60189023  0.17353703  0.54450824  1  -1.142292  0  -0.298916  -0.525507  0  2.274499  0
O  O79  1  0.37082986  0.94266929  0.54442341  1  -1.143605  0  -0.298591  -0.524954  0  2.274359  0
O  O80  1  0.62917124  0.05732606  0.45557447  1  -1.143707  0  -0.298645  -0.525015  0  2.274224  0
O  O81  1  0.17356769  0.94253035  0.54457977  1  -1.141702  0  -0.298849  -0.524906  0  2.273334  0
O  O82  1  0.82643140  0.05747173  0.45542020  1  -1.141704  0  -0.298831  -0.524919  0  2.273229  0
O  O83  1  0.39796698  0.62906687  0.45545801  1  -1.149252  0  -0.298939  -0.525786  0  2.275738  0
O  O84  1  0.60203398  0.37093174  0.54454313  1  -1.149175  0  -0.299007  -0.52589  0  2.275684  0
O  O85  1  0.09365361  0.66517384  0.33116278  1  -1.14152  0  -0.311005  -0.541061  0  2.277135  0
O  O86  1  0.90634511  0.33482701  0.66883751  1  -1.141498  0  -0.31098  -0.541016  0  2.27717  0
O  O87  1  0.33412156  0.76245806  0.66887520  1  -1.139866  0  -0.310448  -0.5401  0  2.277178  0
O  O88  1  0.66587724  0.23754122  0.33112380  1  -1.139871  0  -0.310461  -0.540139  0  2.27722  0
O  O89  1  0.23687050  0.66540032  0.33138819  1  -1.127375  0  -0.308119  -0.536654  0  2.280085  0
O  O90  1  0.61230209  0.89541613  0.94533897  1  -1.125386  0  -0.374105  -0.475859  0  2.235454  0
O  O91  1  0.38769699  0.10458248  0.05466031  1  -1.125056  0  -0.374127  -0.475881  0  2.235421  0
O  O92  1  0.95021017  0.66705607  0.05463680  1  -1.11354  0  -0.374122  -0.476197  0  2.234889  0
O  O93  1  0.04978948  0.33294456  0.94536305  1  -1.113533  0  -0.374134  -0.47625  0  2.234928  0
O  O94  1  0.52987691  0.86712102  0.05412476  1  -1.12642  0  -0.372237  -0.47331  0  2.236629  0
O  O95  1  0.47012262  0.13287736  0.94587361  1  -1.126424  0  -0.372285  -0.473376  0  2.236561  0
O  O96  1  0.81300786  0.47594113  0.94586900  1  -1.133902  0  -0.372783  -0.474098  0  2.236056  0
O  O97  1  0.18699233  0.52405804  0.05413071  1  -1.133877  0  -0.372763  -0.474048  0  2.236056  0
