# generated using pymatgen
data_CuH9C9S2IN3
_symmetry_space_group_name_H-M   'P 1'
_cell_length_a   5.58878372
_cell_length_b   13.74931878
_cell_length_c   15.33441540
_cell_angle_alpha   93.43872447
_cell_angle_beta   89.99932482
_cell_angle_gamma   89.99997752
_symmetry_Int_Tables_number   1
_chemical_formula_structural   CuH9C9S2IN3
_chemical_formula_sum   'Cu4 H36 C36 S8 I4 N12'
_cell_volume   1176.20511390
_cell_formula_units_Z   4
loop_
 _symmetry_equiv_pos_site_id
 _symmetry_equiv_pos_as_xyz
  1  'x, y, z'
loop_
 _atom_site_type_symbol
 _atom_site_label
 _atom_site_symmetry_multiplicity
 _atom_site_fract_x
 _atom_site_fract_y
 _atom_site_fract_z
 _atom_site_occupancy
 _atom_site_hle17_bader_spin_density
 _atom_site_hle17_ddec_charge
 _atom_site_hle17_ddec_spin_density
 _atom_site_hle17_ddec_sum_bond_order
 _atom_site_hle17_magmom
 _atom_site_hse06_10hf_bader_charge
 _atom_site_hse06_10hf_bader_spin_density
 _atom_site_hse06_10hf_ddec_charge
 _atom_site_hse06_10hf_ddec_spin_density
 _atom_site_hse06_10hf_ddec_sum_bond_order
 _atom_site_hse06_10hf_magmom
 _atom_site_hse06_bader_spin_density
 _atom_site_hse06_ddec_charge
 _atom_site_hse06_ddec_spin_density
 _atom_site_hse06_ddec_sum_bond_order
 _atom_site_hse06_magmom
 _atom_site_pbe_bader_spin_density
 _atom_site_pbe_cm5_charge
 _atom_site_pbe_ddec_charge
 _atom_site_pbe_ddec_spin_density
 _atom_site_pbe_ddec_sum_bond_order
 _atom_site_pbe_magmom
Cu  Cu0  1  0.23579703  0.49227572  0.49407892  1  0  0.220105  0  2.299815  0  0.382827  0  0.162555  0  2.770048  0  0  0.170477  0  2.719984  0  0  0.225143  0.158954  0  2.80265  0
Cu  Cu1  1  0.73581042  0.50772414  0.00592120  1  0  0.220085  0  2.299881  0  0.383013  0  0.162512  0  2.770096  0  0  0.170413  0  2.72005  0  0  0.225128  0.158932  0  2.802708  0
Cu  Cu2  1  0.76418010  0.50771163  0.50591886  1  0  0.220111  0  2.299832  0  0.383075  0  0.16257  0  2.770054  0  0  0.170473  0  2.719999  0  0  0.225136  0.158975  0  2.802644  0
Cu  Cu3  1  0.26419355  0.49228509  0.99408815  1  0  0.220054  0  2.299904  0  0.383068  0  0.162496  0  2.770102  0  0  0.170436  0  2.720062  0  0  0.225091  0.158919  0  2.8027  0
H  H4  1  0.20923305  0.76814004  0.68219173  1  0  0.283771  0  0.93868  0  0.536643  0  0.259165  0  1.013545  0  0  0.268016  0  1.006809  0  0  0.30341  0.252976  0  1.018329  0
H  H5  1  0.70926517  0.23186759  0.81780629  1  0  0.283738  0  0.938731  0  0.536807  0  0.259133  0  1.01359  0  0  0.267982  0  1.006864  0  0  0.303412  0.252939  0  1.018377  0
H  H6  1  0.79074586  0.23185751  0.31780658  1  0  0.283841  0  0.9387  0  0.53663  0  0.259226  0  1.013559  0  0  0.268071  0  1.006836  0  0  0.303479  0.253032  0  1.018353  0
H  H7  1  0.29075133  0.76814310  0.18220379  1  0  0.283771  0  0.938752  0  0.536721  0  0.259201  0  1.013555  0  0  0.268041  0  1.006841  0  0  0.303443  0.253026  0  1.018326  0
H  H8  1  0.71086679  0.70160567  0.55796857  1  0  0.276784  0  0.957833  0  0.473935  0  0.252836  0  1.040234  0  0  0.262418  0  1.031758  0  0  0.27239  0.246037  0  1.046229  0
H  H9  1  0.21088974  0.29839175  0.94202892  1  0  0.276735  0  0.95775  0  0.47395  0  0.252782  0  1.040155  0  0  0.262365  0  1.031681  0  0  0.272346  0.245986  0  1.046146  0
H  H10  1  0.28911928  0.29838458  0.44202545  1  0  0.276798  0  0.957729  0  0.474071  0  0.252833  0  1.040126  0  0  0.262417  0  1.03165  0  0  0.272354  0.246037  0  1.046124  0
H  H11  1  0.78913391  0.70161310  0.05797890  1  0  0.276817  0  0.957764  0  0.474214  0  0.252891  0  1.040122  0  0  0.262477  0  1.031642  0  0  0.272421  0.246094  0  1.046114  0
H  H12  1  0.00910778  0.57065762  0.66615775  1  0  0.082842  0  0.992823  0  0.087942  0  0.094305  0  1.075186  0  0  0.096369  0  1.073355  0  0  0.08196  0.092564  0  1.076581  0
H  H13  1  0.50915130  0.42934493  0.83384147  1  0  0.082832  0  0.992947  0  0.087912  0  0.094279  0  1.075319  0  0  0.096339  0  1.073494  0  0  0.081944  0.092537  0  1.076715  0
H  H14  1  0.99086756  0.42933483  0.33384291  1  0  0.082893  0  0.992853  0  0.087898  0  0.094393  0  1.075202  0  0  0.096455  0  1.073374  0  0  0.081997  0.09265  0  1.076604  0
H  H15  1  0.49085983  0.57065629  0.16616812  1  0  0.082864  0  0.992864  0  0.088301  0  0.094337  0  1.075204  0  0  0.096398  0  1.073373  0  0  0.081947  0.092593  0  1.076612  0
H  H16  1  0.91267865  0.66853587  0.73956232  1  0  0.098776  0  0.941608  0  0.070031  0  0.12068  0  1.001257  0  0  0.121244  0  1.001817  0  0  0.100486  0.120221  0  1.00089  0
H  H17  1  0.41269701  0.33146592  0.76043915  1  0  0.098864  0  0.94158  0  0.07028  0  0.120671  0  1.001316  0  0  0.121234  0  1.001879  0  0  0.10057  0.120218  0  1.000939  0
H  H18  1  0.08730027  0.33146022  0.26043592  1  0  0.09886  0  0.941545  0  0.070148  0  0.120683  0  1.001294  0  0  0.121247  0  1.001855  0  0  0.100539  0.120228  0  1.000924  0
H  H19  1  0.58729622  0.66853603  0.23957178  1  0  0.098793  0  0.941639  0  0.070098  0  0.120634  0  1.001376  0  0  0.121208  0  1.001909  0  0  0.100543  0.120179  0  1.00101  0
H  H20  1  0.15231603  0.59119329  0.76942351  1  0  0.096277  0  0.962818  0  0.095687  0  0.116012  0  1.027785  0  0  0.116449  0  1.029052  0  0  0.086646  0.11546  0  1.027099  0
H  H21  1  0.65234884  0.40880780  0.73058027  1  0  0.096326  0  0.96273  0  0.09547  0  0.116051  0  1.027663  0  0  0.116484  0  1.028933  0  0  0.086659  0.1155  0  1.02698  0
H  H22  1  0.84767005  0.40880426  0.23057872  1  0  0.096261  0  0.962809  0  0.095664  0  0.116007  0  1.027765  0  0  0.116436  0  1.02904  0  0  0.086628  0.115457  0  1.027081  0
H  H23  1  0.34765513  0.59119925  0.26943157  1  0  0.096297  0  0.962779  0  0.095331  0  0.116056  0  1.027715  0  0  0.11648  0  1.028995  0  0  0.08664  0.115507  0  1.02703  0
H  H24  1  0.83778775  0.12693309  0.56707683  1  0  0.093547  0  0.98251  0  0.090912  0  0.099071  0  1.056087  0  0  0.101963  0  1.054999  0  0  0.086944  0.096977  0  1.056919  0
H  H25  1  0.33778429  0.87306214  0.93292134  1  0  0.093517  0  0.982479  0  0.09089  0  0.099053  0  1.056057  0  0  0.101944  0  1.054978  0  0  0.086954  0.096963  0  1.056877  0
H  H26  1  0.16221085  0.87305499  0.43292360  1  0  0.093528  0  0.98244  0  0.090858  0  0.099086  0  1.055987  0  0  0.101959  0  1.054961  0  0  0.086971  0.096995  0  1.056807  0
H  H27  1  0.66223757  0.12693977  0.06707329  1  0  0.093619  0  0.982536  0  0.09105  0  0.099176  0  1.056053  0  0  0.102072  0  1.05496  0  0  0.087009  0.097079  0  1.056899  0
H  H28  1  0.55042527  0.24974707  0.62682113  1  0  0.087207  0  0.98029  0  0.096506  0  0.097382  0  1.046689  0  0  0.100066  0  1.045966  0  0  0.08496  0.095371  0  1.047351  0
H  H29  1  0.05041349  0.75025766  0.87317542  1  0  0.087195  0  0.980366  0  0.096523  0  0.097372  0  1.046756  0  0  0.100056  0  1.046033  0  0  0.08498  0.095362  0  1.047414  0
H  H30  1  0.44957870  0.75024611  0.37317696  1  0  0.087217  0  0.980157  0  0.096401  0  0.097384  0  1.046576  0  0  0.100066  0  1.045859  0  0  0.084966  0.095357  0  1.047253  0
H  H31  1  0.94960300  0.24975227  0.12682092  1  0  0.087232  0  0.980181  0  0.096708  0  0.097407  0  1.046578  0  0  0.100086  0  1.045872  0  0  0.08499  0.095385  0  1.047251  0
H  H32  1  0.17152954  0.19973498  0.69696208  1  0  0.087343  0  0.959576  0  0.043857  0  0.098717  0  1.021019  0  0  0.101332  0  1.020083  0  0  0.088467  0.096752  0  1.021879  0
H  H33  1  0.67153367  0.80026754  0.80303322  1  0  0.087311  0  0.959504  0  0.04389  0  0.098682  0  1.02097  0  0  0.101299  0  1.020031  0  0  0.08846  0.096718  0  1.02183  0
H  H34  1  0.82846906  0.80025818  0.30303340  1  0  0.087322  0  0.959507  0  0.043701  0  0.098685  0  1.020964  0  0  0.101302  0  1.020024  0  0  0.088446  0.096721  0  1.021826  0
H  H35  1  0.32848104  0.19973728  0.19695895  1  0  0.087289  0  0.959568  0  0.043837  0  0.098671  0  1.021004  0  0  0.101285  0  1.020067  0  0  0.088439  0.096708  0  1.021866  0
H  H36  1  0.07401646  0.02365552  0.70633852  1  0  0.105839  0  0.979357  0  0.122807  0  0.114144  0  1.044132  0  0  0.116386  0  1.044487  0  0  0.09758  0.112528  0  1.04403  0
H  H37  1  0.57402577  0.97635065  0.79365279  1  0  0.105827  0  0.979516  0  0.122811  0  0.1142  0  1.044172  0  0  0.116442  0  1.04453  0  0  0.097642  0.112585  0  1.04407  0
H  H38  1  0.92596782  0.97633911  0.29365703  1  0  0.105835  0  0.979447  0  0.122919  0  0.114116  0  1.044246  0  0  0.116359  0  1.044598  0  0  0.097575  0.112502  0  1.044142  0
H  H39  1  0.42598356  0.02365854  0.20634025  1  0  0.105818  0  0.979384  0  0.122785  0  0.114118  0  1.044168  0  0  0.11636  0  1.044523  0  0  0.09759  0.112503  0  1.044068  0
C  C40  1  0.42452244  0.66308386  0.63056475  1  0  0.444998  0  3.751863  0  0.978643  0  0.39992  0  4.041093  0  0  0.428364  0  4.04706  0  0  0.241635  0.380768  0  4.036519  0
C  C41  1  0.92453458  0.33692375  0.86943762  1  0  0.444844  0  3.751853  0  0.979136  0  0.399909  0  4.040857  0  0  0.428356  0  4.046833  0  0  0.24167  0.380765  0  4.036279  0
C  C42  1  0.57546006  0.33691077  0.36943342  1  0  0.444849  0  3.751991  0  0.978285  0  0.399764  0  4.041183  0  0  0.428214  0  4.04716  0  0  0.24156  0.380611  0  4.036618  0
C  C43  1  0.07546402  0.66308767  0.13057445  1  0  0.444815  0  3.752008  0  0.978811  0  0.399791  0  4.041202  0  0  0.428242  0  4.047169  0  0  0.241553  0.380641  0  4.036617  0
C  C44  1  0.06843641  0.62716042  0.71512804  1  0  -0.116111  0  3.665211  0  0.248334  0  -0.214984  0  3.915516  0  0  -0.212354  0  3.925426  0  0  -0.147794  -0.216289  0  3.908932  0
C  C45  1  0.56845493  0.37284213  0.78487419  1  0  -0.116168  0  3.665351  0  0.248326  0  -0.21493  0  3.915622  0  0  -0.212294  0  3.925544  0  0  -0.147802  -0.216238  0  3.909044  0
C  C46  1  0.93154788  0.37283567  0.28487280  1  0  -0.116229  0  3.665318  0  0.248412  0  -0.215123  0  3.915643  0  0  -0.212489  0  3.925567  0  0  -0.147879  -0.216427  0  3.909065  0
C  C47  1  0.43154546  0.62716346  0.21513497  1  0  -0.116205  0  3.665227  0  0.248243  0  -0.215054  0  3.915507  0  0  -0.212409  0  3.925427  0  0  -0.147839  -0.21636  0  3.908916  0
C  C48  1  0.55168805  0.83013710  0.60514308  1  0  0.352191  0  3.782045  0  1.023748  0  0.321461  0  4.080838  0  0  0.341675  0  4.090967  0  0  0.237082  0.307836  0  4.073732  0
C  C49  1  0.05170762  0.16986908  0.89485615  1  0  0.352252  0  3.781755  0  1.023817  0  0.321552  0  4.080528  0  0  0.341764  0  4.090665  0  0  0.237154  0.307928  0  4.073425  0
C  C50  1  0.44830161  0.16985826  0.39485512  1  0  0.351995  0  3.782595  0  1.023639  0  0.321199  0  4.081443  0  0  0.341413  0  4.091577  0  0  0.236999  0.307576  0  4.074344  0
C  C51  1  0.94831782  0.83013940  0.10514794  1  0  0.35197  0  3.782315  0  1.023488  0  0.321205  0  4.081226  0  0  0.341421  0  4.091353  0  0  0.237017  0.307583  0  4.074113  0
C  C52  1  0.61639209  0.00539626  0.60274279  1  0  -0.049908  0  3.783889  0  -0.229267  0  -0.028603  0  4.029278  0  0  -0.03076  0  4.053141  0  0  -0.012383  -0.027229  0  4.013165  0
C  C53  1  0.11639667  0.99460335  0.89725192  1  0  -0.050149  0  3.78407  0  -0.229344  0  -0.028767  0  4.029337  0  0  -0.030933  0  4.053214  0  0  -0.012387  -0.027392  0  4.013225  0
C  C54  1  0.38360472  0.99459328  0.39725771  1  0  -0.049835  0  3.783649  0  -0.229194  0  -0.028541  0  4.029155  0  0  -0.030688  0  4.05301  0  0  -0.012323  -0.027169  0  4.013046  0
C  C55  1  0.88362340  0.00540147  0.10274155  1  0  -0.049974  0  3.784039  0  -0.229175  0  -0.028636  0  4.029386  0  0  -0.03079  0  4.053248  0  0  -0.012319  -0.027262  0  4.013273  0
C  C56  1  0.67288197  0.10375424  0.59748523  1  0  -0.100101  0  3.769465  0  0.027828  0  -0.120264  0  4.020051  0  0  -0.12169  0  4.040945  0  0  -0.102819  -0.119166  0  4.005936  0
C  C57  1  0.17288665  0.89624317  0.90250849  1  0  -0.099828  0  3.769409  0  0.027865  0  -0.120048  0  4.019996  0  0  -0.121475  0  4.040894  0  0  -0.102783  -0.118949  0  4.005884  0
C  C58  1  0.32711484  0.89623383  0.40251259  1  0  -0.100077  0  3.769609  0  0.028007  0  -0.12022  0  4.020105  0  0  -0.121657  0  4.04099  0  0  -0.102816  -0.119116  0  4.005985  0
C  C59  1  0.82713521  0.10376019  0.09748490  1  0  -0.100094  0  3.769742  0  0.027719  0  -0.120296  0  4.020326  0  0  -0.121725  0  4.041226  0  0  -0.102854  -0.119199  0  4.006205  0
C  C60  1  0.51039691  0.17271704  0.63204910  1  0  -0.0833  0  3.787369  0  -0.110094  0  -0.100953  0  4.044387  0  0  -0.103328  0  4.065963  0  0  -0.108936  -0.099554  0  4.030158  0
C  C61  1  0.01039224  0.82728913  0.86794247  1  0  -0.083393  0  3.787654  0  -0.109984  0  -0.101046  0  4.044673  0  0  -0.103414  0  4.066235  0  0  -0.10896  -0.099645  0  4.030439  0
C  C62  1  0.48960706  0.82727977  0.36794918  1  0  -0.083373  0  3.787572  0  -0.11039  0  -0.101029  0  4.044601  0  0  -0.1034  0  4.066165  0  0  -0.108984  -0.099613  0  4.030375  0
C  C63  1  0.98962247  0.17271713  0.13204585  1  0  -0.083296  0  3.787688  0  -0.110518  0  -0.100958  0  4.044718  0  0  -0.103332  0  4.066281  0  0  -0.108939  -0.099547  0  4.030492  0
C  C64  1  0.29694733  0.14430203  0.67144895  1  0  -0.076599  0  3.800597  0  -0.03061  0  -0.095275  0  4.062694  0  0  -0.096254  0  4.083359  0  0  -0.10716  -0.094573  0  4.048872  0
C  C65  1  0.79695221  0.85570193  0.82854136  1  0  -0.076563  0  3.800823  0  -0.030466  0  -0.095252  0  4.062936  0  0  -0.096229  0  4.083593  0  0  -0.107218  -0.094549  0  4.049116  0
C  C66  1  0.70304591  0.85569406  0.32854733  1  0  -0.07649  0  3.800817  0  -0.030649  0  -0.095145  0  4.062869  0  0  -0.096119  0  4.08352  0  0  -0.107067  -0.094442  0  4.049042  0
C  C67  1  0.20305892  0.14430215  0.17144751  1  0  -0.076575  0  3.800952  0  -0.030532  0  -0.09525  0  4.063038  0  0  -0.096223  0  4.083697  0  0  -0.107159  -0.094548  0  4.049217  0
C  C68  1  0.23962543  0.04627533  0.67637015  1  0  -0.148058  0  3.732812  0  -0.041638  0  -0.169539  0  3.989488  0  0  -0.17233  0  4.008781  0  0  -0.101185  -0.167703  0  3.976481  0
C  C69  1  0.73963199  0.95372717  0.82361966  1  0  -0.148112  0  3.73285  0  -0.04182  0  -0.169648  0  3.989454  0  0  -0.172439  0  4.008747  0  0  -0.101262  -0.167814  0  3.976451  0
C  C70  1  0.76036422  0.95371783  0.32362533  1  0  -0.148199  0  3.733198  0  -0.041483  0  -0.169636  0  3.98988  0  0  -0.17242  0  4.00916  0  0  -0.101278  -0.167801  0  3.976879  0
C  C71  1  0.26038809  0.04628055  0.17637070  1  0  -0.14807  0  3.733034  0  -0.041604  0  -0.169547  0  3.98969  0  0  -0.172335  0  4.008979  0  0  -0.101249  -0.167713  0  3.976688  0
C  C72  1  0.39978475  0.97573315  0.64181328  1  0  0.181455  0  3.869795  0  0.41907  0  0.181098  0  4.118471  0  0  0.185455  0  4.140368  0  0  0.084175  0.178205  0  4.103582  0
C  C73  1  0.89979460  0.02426935  0.85818436  1  0  0.181603  0  3.869472  0  0.419093  0  0.181307  0  4.118037  0  0  0.185666  0  4.139932  0  0  0.084276  0.178413  0  4.10315  0
C  C74  1  0.60020491  0.02425711  0.35818726  1  0  0.181699  0  3.869428  0  0.419327  0  0.18125  0  4.118225  0  0  0.185604  0  4.140111  0  0  0.084271  0.178357  0  4.103348  0
C  C75  1  0.10022368  0.97573766  0.14181249  1  0  0.18146  0  3.869803  0  0.418978  0  0.181134  0  4.118433  0  0  0.185488  0  4.140322  0  0  0.084199  0.178242  0  4.103549  0
S  S76  1  0.49023308  0.54162055  0.61395855  1  0  -0.340622  0  2.592864  0  -0.192244  0  -0.310473  0  3.025395  0  0  -0.321121  0  3.000599  0  0  -0.204396  -0.303896  0  3.041859  0
S  S77  1  0.99024430  0.45838634  0.88604808  1  0  -0.340565  0  2.592941  0  -0.192533  0  -0.310488  0  3.025494  0  0  -0.321143  0  3.000703  0  0  -0.204413  -0.303927  0  3.041974  0
S  S78  1  0.50975836  0.45837627  0.38604103  1  0  -0.340535  0  2.592767  0  -0.192152  0  -0.31038  0  3.025299  0  0  -0.321032  0  3.0005  0  0  -0.204392  -0.303806  0  3.04177  0
S  S79  1  0.00975072  0.54162290  0.11396583  1  0  -0.340515  0  2.592772  0  -0.192191  0  -0.310369  0  3.025284  0  0  -0.321024  0  3.000492  0  0  -0.204312  -0.303801  0  3.041767  0
S  S80  1  0.78171360  0.90356956  0.56690087  1  0  0.073224  0  2.450973  0  0.210592  0  0.070454  0  2.778214  0  0  0.069391  0  2.781499  0  0  0.100531  0.070749  0  2.776253  0
S  S81  1  0.28172492  0.09642786  0.93309568  1  0  0.073205  0  2.450982  0  0.210552  0  0.070391  0  2.778206  0  0  0.069323  0  2.781497  0  0  0.100472  0.070688  0  2.776246  0
S  S82  1  0.21828321  0.09642435  0.43310117  1  0  0.07314  0  2.450891  0  0.210519  0  0.070412  0  2.778145  0  0  0.069346  0  2.781429  0  0  0.100469  0.070707  0  2.776185  0
S  S83  1  0.71829515  0.90357260  0.06690018  1  0  0.073172  0  2.450831  0  0.210624  0  0.070412  0  2.778089  0  0  0.069352  0  2.781373  0  0  0.100455  0.070714  0  2.776123  0
I  I84  1  0.01324657  0.64927838  0.44266909  1  0  -0.374857  0  1.471096  0  -0.471612  0  -0.322773  0  1.860078  0  0  -0.339749  0  1.829096  0  0  -0.180613  -0.310511  0  1.880453  0
I  I85  1  0.51324256  0.35071931  0.05733051  1  0  -0.374838  0  1.471136  0  -0.471636  0  -0.322709  0  1.860074  0  0  -0.339699  0  1.829097  0  0  -0.180596  -0.310457  0  1.880461  0
I  I86  1  0.98671803  0.35071334  0.55733023  1  0  -0.374884  0  1.471118  0  -0.471519  0  -0.322786  0  1.860067  0  0  -0.339778  0  1.829092  0  0  -0.180626  -0.310529  0  1.880448  0
I  I87  1  0.48673278  0.64928845  0.94267615  1  0  -0.37488  0  1.471029  0  -0.471632  0  -0.3228  0  1.860013  0  0  -0.339792  0  1.829048  0  0  -0.180661  -0.310543  0  1.880397  0
N  N88  1  0.23425838  0.69349305  0.67645699  1  0  -0.328198  0  3.366953  0  -1.304782  0  -0.254067  0  3.611734  0  0  -0.273069  0  3.622882  0  0  -0.405095  -0.241594  0  3.604122  0
N  N89  1  0.73427935  0.30651166  0.82354143  1  0  -0.328178  0  3.367127  0  -1.305286  0  -0.254076  0  3.611777  0  0  -0.273038  0  3.622826  0  0  -0.405178  -0.241613  0  3.604193  0
N  N90  1  0.76572590  0.30650084  0.32353788  1  0  -0.328323  0  3.367336  0  -1.304633  0  -0.25415  0  3.612075  0  0  -0.273111  0  3.62313  0  0  -0.405165  -0.241679  0  3.604482  0
N  N91  1  0.26572641  0.69349831  0.17646991  1  0  -0.328243  0  3.367159  0  -1.304838  0  -0.254133  0  3.611874  0  0  -0.273116  0  3.622986  0  0  -0.405201  -0.241687  0  3.604276  0
N  N92  1  0.57363408  0.73047539  0.59658109  1  0  -0.427179  0  3.424259  0  -1.298491  0  -0.364668  0  3.662602  0  0  -0.387028  0  3.668405  0  0  -0.390669  -0.349563  0  3.65838  0
N  N93  1  0.07364592  0.26953007  0.90341801  1  0  -0.42701  0  3.423798  0  -1.298646  0  -0.364567  0  3.662156  0  0  -0.386936  0  3.667972  0  0  -0.390612  -0.349441  0  3.657874  0
N  N94  1  0.42635915  0.26951851  0.40341377  1  0  -0.426958  0  3.424179  0  -1.298462  0  -0.36439  0  3.66252  0  0  -0.386767  0  3.668354  0  0  -0.390502  -0.349262  0  3.658235  0
N  N95  1  0.92636521  0.73047916  0.09659069  1  0  -0.426946  0  3.424366  0  -1.298882  0  -0.364458  0  3.662729  0  0  -0.386838  0  3.668565  0  0  -0.390566  -0.349364  0  3.65853  0
N  N96  1  0.36950637  0.87591778  0.64264979  1  0  -0.439438  0  3.086831  0  -1.230785  0  -0.40622  0  3.358273  0  0  -0.421925  0  3.37108  0  0  -0.330358  -0.395354  0  3.349234  0
N  N97  1  0.86953744  0.12408546  0.85734540  1  0  -0.439499  0  3.086565  0  -1.230709  0  -0.406346  0  3.358034  0  0  -0.422054  0  3.370846  0  0  -0.330429  -0.395486  0  3.349004  0
N  N98  1  0.63047254  0.12407248  0.35734684  1  0  -0.439428  0  3.086749  0  -1.230914  0  -0.406188  0  3.358298  0  0  -0.421909  0  3.371146  0  0  -0.330355  -0.39532  0  3.349245  0
N  N99  1  0.13048800  0.87592157  0.14265666  1  0  -0.43921  0  3.086626  0  -1.230515  0  -0.406042  0  3.358139  0  0  -0.421767  0  3.371017  0  0  -0.330264  -0.395173  0  3.349085  0
