# generated using pymatgen
data_CdH12C15S(BrN)2
_symmetry_space_group_name_H-M   'P 1'
_cell_length_a   8.42260381
_cell_length_b   9.93803729
_cell_length_c   10.64306118
_cell_angle_alpha   77.22796144
_cell_angle_beta   66.45133301
_cell_angle_gamma   74.49846665
_symmetry_Int_Tables_number   1
_chemical_formula_structural   CdH12C15S(BrN)2
_chemical_formula_sum   'Cd2 H24 C30 S2 Br4 N4'
_cell_volume   780.35509918
_cell_formula_units_Z   2
loop_
 _symmetry_equiv_pos_site_id
 _symmetry_equiv_pos_as_xyz
  1  'x, y, z'
loop_
 _atom_site_type_symbol
 _atom_site_label
 _atom_site_symmetry_multiplicity
 _atom_site_fract_x
 _atom_site_fract_y
 _atom_site_fract_z
 _atom_site_occupancy
 _atom_site_hle17_bader_spin_density
 _atom_site_hle17_ddec_charge
 _atom_site_hle17_ddec_spin_density
 _atom_site_hle17_ddec_sum_bond_order
 _atom_site_hle17_magmom
 _atom_site_hse06_10hf_bader_spin_density
 _atom_site_hse06_10hf_ddec_charge
 _atom_site_hse06_10hf_ddec_spin_density
 _atom_site_hse06_10hf_ddec_sum_bond_order
 _atom_site_hse06_10hf_magmom
 _atom_site_hse06_bader_spin_density
 _atom_site_hse06_ddec_charge
 _atom_site_hse06_ddec_spin_density
 _atom_site_hse06_ddec_sum_bond_order
 _atom_site_hse06_magmom
 _atom_site_pbe_bader_spin_density
 _atom_site_pbe_cm5_charge
 _atom_site_pbe_ddec_charge
 _atom_site_pbe_ddec_spin_density
 _atom_site_pbe_ddec_sum_bond_order
 _atom_site_pbe_magmom
Cd  Cd0  1  0.49278883  0.35209602  0.66903484  1  0  0.803066  0  2.049527  0  0  0.631191  0  2.505047  0  0  0.679333  0  2.469265  0  0  0.552321  0.59971  0  2.526016  0
Cd  Cd1  1  0.50721051  0.64790533  0.33096499  1  0  0.803083  0  2.049515  0  0  0.631221  0  2.505024  0  0  0.679364  0  2.469244  0  0  0.55232  0.599742  0  2.525985  0
H  H2  1  0.64203245  0.05273006  0.26043935  1  0  0.106103  0  0.960106  0  0  0.113279  0  1.024368  0  0  0.116265  0  1.024574  0  0  0.097584  0.111341  0  1.023742  0
H  H3  1  0.35796614  0.94726918  0.73956209  1  0  0.1061  0  0.960114  0  0  0.113277  0  1.024374  0  0  0.116262  0  1.024582  0  0  0.097577  0.111339  0  1.023749  0
H  H4  1  0.35024645  0.28708560  0.10298452  1  0  0.109922  0  0.973984  0  0  0.117544  0  1.039152  0  0  0.120351  0  1.039399  0  0  0.099051  0.115429  0  1.0393  0
H  H5  1  0.64975214  0.71291364  0.89701598  1  0  0.109905  0  0.973972  0  0  0.117533  0  1.039136  0  0  0.12034  0  1.039381  0  0  0.099054  0.115415  0  1.039281  0
H  H6  1  0.79898118  0.82795006  0.35233015  1  0  0.095911  0  0.977273  0  0  0.099615  0  1.053666  0  0  0.102968  0  1.050496  0  0  0.09107  0.097866  0  1.054526  0
H  H7  1  0.20101946  0.17205130  0.64767021  1  0  0.09587  0  0.977299  0  0  0.099575  0  1.053695  0  0  0.10293  0  1.050523  0  0  0.091056  0.097829  0  1.054559  0
H  H8  1  0.91004942  0.27725574  0.96997979  1  0  0.113055  0  0.991096  0  0  0.118311  0  1.060685  0  0  0.122398  0  1.058618  0  0  0.088211  0.115183  0  1.062885  0
H  H9  1  0.08995046  0.72274351  0.03002030  1  0  0.113056  0  0.991091  0  0  0.118312  0  1.06068  0  0  0.122401  0  1.05861  0  0  0.088204  0.115187  0  1.062872  0
H  H10  1  0.53522484  0.26064504  0.39375671  1  0  0.0678  0  0.973366  0  0  0.073632  0  1.045316  0  0  0.075411  0  1.043933  0  0  0.101638  0.072205  0  1.046259  0
H  H11  1  0.46477321  0.73935631  0.60624447  1  0  0.067808  0  0.97338  0  0  0.073641  0  1.045332  0  0  0.075424  0  1.043935  0  0  0.101639  0.072219  0  1.046258  0
H  H12  1  0.00972980  0.69769921  0.72744816  1  0  0.093603  0  0.955691  0  0  0.103779  0  1.017822  0  0  0.106562  0  1.016751  0  0  0.095393  0.101563  0  1.019117  0
H  H13  1  0.99026906  0.30229898  0.27255247  1  0  0.093659  0  0.955762  0  0  0.103833  0  1.017882  0  0  0.106617  0  1.01681  0  0  0.095409  0.101613  0  1.019186  0
H  H14  1  0.93570225  0.91710088  0.82955269  1  0  0.099312  0  0.956234  0  0  0.111606  0  1.015605  0  0  0.114047  0  1.014442  0  0  0.098859  0.109628  0  1.016756  0
H  H15  1  0.06429736  0.08289942  0.17044821  1  0  0.099322  0  0.956197  0  0  0.111616  0  1.015567  0  0  0.114056  0  1.014403  0  0  0.098863  0.109633  0  1.016724  0
H  H16  1  0.29681966  0.47086866  0.25128105  1  0  0.07666  0  0.946088  0  0  0.084517  0  1.012861  0  0  0.086926  0  1.010678  0  0  0.106577  0.082658  0  1.014678  0
H  H17  1  0.70317996  0.52913165  0.74871891  1  0  0.076634  0  0.946076  0  0  0.084496  0  1.012851  0  0  0.086905  0  1.010671  0  0  0.106567  0.082638  0  1.014673  0
H  H18  1  0.83180331  0.46731562  0.11636433  1  0  0.075172  0  0.944571  0  0  0.081758  0  1.012376  0  0  0.084722  0  1.009282  0  0  0.106986  0.080054  0  1.013834  0
H  H19  1  0.16819555  0.53268257  0.88363630  1  0  0.075182  0  0.944507  0  0  0.081761  0  1.012327  0  0  0.084725  0  1.009233  0  0  0.106997  0.080058  0  1.013783  0
H  H20  1  0.92872338  0.69681998  0.52765406  1  0  0.101373  0  0.966784  0  0  0.107335  0  1.038987  0  0  0.110768  0  1.036332  0  0  0.089516  0.104933  0  1.040756  0
H  H21  1  0.07127467  0.30318137  0.47234618  1  0  0.101372  0  0.966789  0  0  0.107335  0  1.038989  0  0  0.110768  0  1.036333  0  0  0.089498  0.104931  0  1.040766  0
H  H22  1  0.54601510  0.11549041  0.96448428  1  0  0.109483  0  0.963973  0  0  0.119454  0  1.032274  0  0  0.121815  0  1.031043  0  0  0.08999  0.117743  0  1.03296  0
H  H23  1  0.45398322  0.88450988  0.03551609  1  0  0.109486  0  0.964039  0  0  0.119454  0  1.032336  0  0  0.121817  0  1.031104  0  0  0.08999  0.117741  0  1.033025  0
H  H24  1  0.76080633  0.05589849  0.97591935  1  0  0.11171  0  0.956377  0  0  0.125243  0  1.018535  0  0  0.127644  0  1.016384  0  0  0.093894  0.12368  0  1.01965  0
H  H25  1  0.23919226  0.94410076  0.02408116  1  0  0.111701  0  0.956359  0  0  0.125231  0  1.018506  0  0  0.127631  0  1.016358  0  0  0.093885  0.123667  0  1.019625  0
C  C26  1  0.67226466  0.04641198  0.35214659  1  0  -0.126992  0  3.73424  0  0  -0.137872  0  3.986627  0  0  -0.14646  0  4.008103  0  0  -0.092842  -0.133123  0  3.97286  0
C  C27  1  0.32773469  0.95358938  0.64785418  1  0  -0.127032  0  3.734208  0  0  -0.13791  0  3.986595  0  0  -0.146499  0  4.008074  0  0  -0.092837  -0.133159  0  3.97283  0
C  C28  1  0.63432886  0.26507658  0.02654850  1  0  0.159741  0  3.720568  0  0  0.177722  0  3.955041  0  0  0.182491  0  3.976443  0  0  0.007037  0.174843  0  3.939911  0
C  C29  1  0.36566973  0.73492266  0.97345200  1  0  0.159806  0  3.720499  0  0  0.17773  0  3.955033  0  0  0.1825  0  3.976435  0  0  0.007033  0.174854  0  3.939898  0
C  C30  1  0.74606387  0.04315608  0.58468925  1  0  0.169962  0  3.746929  0  0  0.159963  0  3.982505  0  0  0.1665  0  4.006357  0  0  0.109511  0.155969  0  3.966326  0
C  C31  1  0.25393806  0.95684528  0.41531069  1  0  0.170066  0  3.74681  0  0  0.160085  0  3.982371  0  0  0.166624  0  4.006219  0  0  0.109536  0.156088  0  3.966196  0
C  C32  1  0.46051917  0.32293657  0.10504947  1  0  -0.154253  0  3.677905  0  0  -0.171229  0  3.920083  0  0  -0.178983  0  3.942154  0  0  -0.083214  -0.165781  0  3.904796  0
C  C33  1  0.53947969  0.67706163  0.89495117  1  0  -0.154218  0  3.677827  0  0  -0.171179  0  3.920024  0  0  -0.178933  0  3.942093  0  0  -0.083221  -0.165729  0  3.904732  0
C  C34  1  0.75896908  0.92210422  0.40316043  1  0  -0.038135  0  3.701335  0  0  -0.06418  0  3.950731  0  0  -0.060363  0  3.968006  0  0  -0.065922  -0.065967  0  3.937806  0
C  C35  1  0.24103156  0.07789714  0.59683993  1  0  -0.038045  0  3.701252  0  0  -0.064089  0  3.950645  0  0  -0.060275  0  3.967923  0  0  -0.065907  -0.065882  0  3.937732  0
C  C36  1  0.77148315  0.31727810  0.02987832  1  0  -0.171271  0  3.680786  0  0  -0.185913  0  3.920706  0  0  -0.194258  0  3.942083  0  0  -0.089346  -0.180749  0  3.906607  0
C  C37  1  0.22851673  0.68272115  0.97012177  1  0  -0.171325  0  3.68079  0  0  -0.185951  0  3.920722  0  0  -0.194297  0  3.942096  0  0  -0.089362  -0.180791  0  3.906618  0
C  C38  1  0.61543678  0.16327416  0.42492735  1  0  0.156647  0  3.698668  0  0  0.124549  0  3.951084  0  0  0.135251  0  3.967682  0  0  0.051051  0.117867  0  3.939504  0
C  C39  1  0.38456256  0.83672720  0.57507248  1  0  0.156668  0  3.698677  0  0  0.124578  0  3.951082  0  0  0.135279  0  3.96768  0  0  0.051044  0.117897  0  3.939496  0
C  C40  1  0.93474719  0.79288586  0.68784731  1  0  -0.057369  0  3.763564  0  0  -0.069812  0  4.018013  0  0  -0.073728  0  4.039709  0  0  -0.091176  -0.067261  0  4.003874  0
C  C41  1  0.06525215  0.20711549  0.31215346  1  0  -0.057446  0  3.763725  0  0  -0.06989  0  4.018166  0  0  -0.073807  0  4.039861  0  0  -0.091194  -0.067334  0  4.004024  0
C  C42  1  0.89210878  0.91802967  0.74586185  1  0  -0.07708  0  3.746028  0  0  -0.103848  0  4.000339  0  0  -0.103221  0  4.020745  0  0  -0.084834  -0.10424  0  3.986479  0
C  C43  1  0.10789186  0.08197169  0.25413756  1  0  -0.077051  0  3.746039  0  0  -0.103817  0  4.000342  0  0  -0.10319  0  4.020752  0  0  -0.084822  -0.104204  0  3.986479  0
C  C44  1  0.79773397  0.91638600  0.52228819  1  0  0.015818  0  3.779239  0  0  0.038444  0  4.003947  0  0  0.033898  0  4.029135  0  0  -0.004681  0.040986  0  3.987054  0
C  C45  1  0.20226667  0.08361536  0.47771216  1  0  0.015792  0  3.779175  0  0  0.038407  0  4.003904  0  0  0.033861  0  4.029091  0  0  -0.004694  0.040954  0  3.987013  0
C  C46  1  0.43030016  0.42627692  0.18578552  1  0  0.12455  0  3.727904  0  0  0.094185  0  3.980945  0  0  0.101398  0  3.999912  0  0  0.039916  0.089394  0  3.9682  0
C  C47  1  0.56969972  0.57372233  0.81421458  1  0  0.124488  0  3.727846  0  0  0.094112  0  3.980895  0  0  0.101325  0  3.999864  0  0  0.039882  0.089316  0  3.968159  0
C  C48  1  0.79999714  0.04205188  0.69640776  1  0  -0.044839  0  3.719705  0  0  -0.024344  0  3.97287  0  0  -0.027195  0  3.996476  0  0  -0.010611  -0.022744  0  3.956977  0
C  C49  1  0.20000377  0.95794843  0.30359179  1  0  -0.044885  0  3.719692  0  0  -0.024382  0  3.972835  0  0  -0.027236  0  3.996446  0  0  -0.010624  -0.02278  0  3.95694  0
C  C50  1  0.72962298  0.42226291  0.11185450  1  0  0.130861  0  3.719043  0  0  0.100778  0  3.970533  0  0  0.107755  0  3.989602  0  0  0.042157  0.096265  0  3.957333  0
C  C51  1  0.27037663  0.57773740  0.88814546  1  0  0.130852  0  3.718976  0  0  0.100774  0  3.970464  0  0  0.107752  0  3.989533  0  0  0.042146  0.096259  0  3.957266  0
C  C52  1  0.89042325  0.79192501  0.57664182  1  0  -0.088959  0  3.713309  0  0  -0.115098  0  3.967082  0  0  -0.115292  0  3.987459  0  0  -0.087282  -0.115174  0  3.95366  0
C  C53  1  0.10957610  0.20807635  0.42335895  1  0  -0.089009  0  3.71338  0  0  -0.115143  0  3.967149  0  0  -0.115336  0  3.987525  0  0  -0.087275  -0.115216  0  3.953729  0
C  C54  1  0.66939645  0.14708049  0.94640802  1  0  -0.201637  0  3.641333  0  0  -0.239761  0  3.885473  0  0  -0.240088  0  3.893825  0  0  -0.14739  -0.23972  0  3.878663  0
C  C55  1  0.33060473  0.85291876  0.05359166  1  0  -0.201668  0  3.641378  0  0  -0.239773  0  3.885537  0  0  -0.240102  0  3.89389  0  0  -0.14737  -0.239733  0  3.878728  0
S  S56  1  0.76882045  0.20098375  0.76038452  1  0  0.033542  0  2.519214  0  0  0.052862  0  2.870025  0  0  0.045818  0  2.873001  0  0  0.031136  0.058037  0  2.866332  0
S  S57  1  0.23118019  0.79901760  0.23961584  1  0  0.033585  0  2.519203  0  0  0.052895  0  2.870005  0  0  0.045854  0  2.872983  0  0  0.031159  0.05807  0  2.866306  0
Br  Br58  1  0.25970896  0.48284941  0.54011606  1  0  -0.519497  0  1.019764  0  0  -0.459219  0  1.324413  0  0  -0.478434  0  1.302797  0  0  -0.263742  -0.446129  0  1.336437  0
Br  Br59  1  0.74029195  0.51715089  0.45988349  1  0  -0.519489  0  1.019743  0  0  -0.459235  0  1.324433  0  0  -0.478447  0  1.302811  0  0  -0.263742  -0.446144  0  1.336456  0
Br  Br60  1  0.25882449  0.21281657  0.88212666  1  0  -0.579065  0  0.897245  0  0  -0.523037  0  1.170192  0  0  -0.540232  0  1.150304  0  0  -0.301906  -0.510983  0  1.182679  0
Br  Br61  1  0.74117749  0.78717953  0.11787154  1  0  -0.57906  0  0.897244  0  0  -0.523029  0  1.170195  0  0  -0.540231  0  1.150319  0  0  -0.301908  -0.510979  0  1.182681  0
N  N62  1  0.56230948  0.47506218  0.18958288  1  0  -0.331767  0  3.320464  0  0  -0.253516  0  3.581264  0  0  -0.274208  0  3.603615  0  0  -0.337595  -0.239927  0  3.566787  0
N  N63  1  0.43769040  0.52493707  0.81041722  1  0  -0.331719  0  3.320393  0  0  -0.253451  0  3.581167  0  0  -0.274144  0  3.603519  0  0  -0.337564  -0.239862  0  3.566694  0
N  N64  1  0.64999431  0.16218828  0.53650146  1  0  -0.363424  0  3.28033  0  0  -0.287933  0  3.538743  0  0  -0.309849  0  3.559854  0  0  -0.331353  -0.273549  0  3.522418  0
N  N65  1  0.35000477  0.83781413  0.46349918  1  0  -0.363492  0  3.280436  0  0  -0.288023  0  3.538864  0  0  -0.309944  0  3.559985  0  0  -0.331343  -0.273641  0  3.522536  0
