# generated using pymatgen
data_MnH4C5N2O5
_symmetry_space_group_name_H-M   'P 1'
_cell_length_a   7.07451031
_cell_length_b   13.55733687
_cell_length_c   14.25000000
_cell_angle_alpha   90.00000000
_cell_angle_beta   90.00000000
_cell_angle_gamma   90.00000000
_symmetry_Int_Tables_number   1
_chemical_formula_structural   MnH4C5N2O5
_chemical_formula_sum   'Mn8 H32 C40 N16 O40'
_cell_volume   1366.73915272
_cell_formula_units_Z   8
loop_
 _symmetry_equiv_pos_site_id
 _symmetry_equiv_pos_as_xyz
  1  'x, y, z'
loop_
 _atom_site_type_symbol
 _atom_site_label
 _atom_site_symmetry_multiplicity
 _atom_site_fract_x
 _atom_site_fract_y
 _atom_site_fract_z
 _atom_site_occupancy
 _atom_site_hle17_ddec_charge
 _atom_site_hle17_ddec_spin_density
 _atom_site_hle17_ddec_sum_bond_order
 _atom_site_hle17_magmom
 _atom_site_hse06_10hf_ddec_charge
 _atom_site_hse06_10hf_ddec_spin_density
 _atom_site_hse06_10hf_ddec_sum_bond_order
 _atom_site_hse06_10hf_magmom
 _atom_site_hse06_ddec_charge
 _atom_site_hse06_ddec_spin_density
 _atom_site_hse06_ddec_sum_bond_order
 _atom_site_hse06_magmom
 _atom_site_pbe_bader_charge
 _atom_site_pbe_bader_spin_density
 _atom_site_pbe_cm5_charge
 _atom_site_pbe_ddec_charge
 _atom_site_pbe_ddec_spin_density
 _atom_site_pbe_ddec_sum_bond_order
 _atom_site_pbe_magmom
Mn  Mn0  1  0.56514866  0.64116501  0.41609333  1  1.208306  4.791627  1.7461  4.678  1.053244  4.712456  2.237507  4.532  1.106704  4.758381  2.1691  4.598  1.529572  4.535961  0.610822  1.013445  4.661859  2.287259  4.463
Mn  Mn1  1  0.93484916  0.35883670  0.91609404  1  1.2083  4.79164  1.746097  4.678  1.053182  4.71247  2.237581  4.532  1.10665  4.758395  2.169167  4.598  1.529558  4.535991  0.610799  1.013382  4.661898  2.287334  4.463
Mn  Mn2  1  0.43485130  0.14116415  0.08390667  1  1.20831  4.791624  1.746144  4.678  1.053216  4.712455  2.237574  4.532  1.10668  4.758379  2.169164  4.598  1.529555  4.535973  0.610804  1.013408  4.661866  2.287319  4.463
Mn  Mn3  1  0.06514939  0.85883681  0.58390667  1  1.208297  4.791634  1.746092  4.678  1.053189  4.712468  2.237533  4.532  1.106653  4.758392  2.169126  4.598  1.529576  4.535998  0.61079  1.013368  4.661908  2.287275  4.463
Mn  Mn4  1  0.43484706  0.35883596  0.58390526  1  1.208322  4.791653  1.746036  4.678  1.053206  4.712486  2.237521  4.532  1.10667  4.758409  2.16911  4.598  1.529515  4.535987  0.610833  1.013411  4.661894  2.28729  4.463
Mn  Mn5  1  0.06514939  0.64116353  0.08390456  1  1.208324  4.791652  1.746089  4.678  1.05325  4.712485  2.237478  4.532  1.106717  4.758408  2.169065  4.598  1.529478  4.535995  0.610833  1.013449  4.661893  2.287237  4.463
Mn  Mn6  1  0.56515007  0.85883608  0.91609544  1  1.208314  4.791652  1.746107  4.678  1.053224  4.712483  2.237541  4.532  1.106691  4.758407  2.169127  4.598  1.529524  4.535985  0.610809  1.013404  4.661892  2.287288  4.463
Mn  Mn7  1  0.93485198  0.14116342  0.41609474  1  1.2083  4.791649  1.746117  4.678  1.053197  4.712487  2.237539  4.532  1.106665  4.758408  2.169128  4.598  1.529546  4.535993  0.610797  1.013378  4.661901  2.287284  4.463
H  H8  1  0.46363633  0.82333574  0.49494105  1  0.435267  -0.000222  0.860929  0.001  0.404378  0.000612  0.923681  0.002  0.414884  0.000267  0.908431  0.002  0.649009  0.002071  0.302857  0.397046  0.000938  0.934277  0.002
H  H9  1  0.03636435  0.17666596  0.99494175  1  0.435216  -0.00022  0.860993  0.001  0.404336  0.000612  0.923734  0.002  0.414841  0.000267  0.908485  0.002  0.649026  0.002073  0.302854  0.397014  0.000941  0.93432  0.002
H  H10  1  0.53636504  0.32333415  0.00505895  1  0.435243  -0.000223  0.860944  0.001  0.404359  0.000612  0.923691  0.002  0.414866  0.000267  0.90844  0.002  0.649024  0.002074  0.302855  0.397025  0.000941  0.934295  0.002
H  H11  1  0.96363560  0.67666608  0.50505895  1  0.435224  -0.000224  0.860977  0.001  0.404344  0.000612  0.923718  0.002  0.41485  0.000267  0.90847  0.002  0.649023  0.002072  0.302856  0.397004  0.000939  0.934327  0.002
H  H12  1  0.53636363  0.17666596  0.50505895  1  0.435235  -0.000225  0.860963  0.001  0.404353  0.000612  0.923706  0.002  0.414859  0.000268  0.908456  0.002  0.649027  0.002072  0.302857  0.397022  0.00094  0.934302  0.002
H  H13  1  0.96363560  0.82333427  0.00505895  1  0.435269  -0.000224  0.860932  0.001  0.40439  0.000612  0.923667  0.002  0.414897  0.000267  0.908416  0.002  0.649023  0.002073  0.30287  0.397062  0.000941  0.93426  0.002
H  H14  1  0.46363774  0.67666608  0.99494105  1  0.435243  -0.00022  0.860952  0.001  0.404365  0.000612  0.923687  0.002  0.414871  0.000267  0.908438  0.002  0.649029  0.002073  0.302863  0.397029  0.000941  0.934293  0.002
H  H15  1  0.03636294  0.32333489  0.49494035  1  0.435226  -0.000222  0.86097  0.001  0.404346  0.000612  0.92371  0.002  0.414852  0.000268  0.908462  0.002  0.649021  0.002073  0.302853  0.397012  0.000941  0.934313  0.002
H  H16  1  0.64671331  0.78464156  0.55113123  1  0.433235  -0.000266  0.863289  0.002  0.40102  0.000456  0.929163  0.002  0.410768  0.000101  0.915216  0.002  0.638525  0.002278  0.303595  0.394165  0.000802  0.938937  0.003
H  H17  1  0.85328733  0.21536014  0.05113123  1  0.433265  -0.000267  0.86325  0.002  0.40101  0.000455  0.929205  0.002  0.410761  0.000101  0.915254  0.002  0.638534  0.00228  0.303597  0.394163  0.000804  0.938973  0.003
H  H18  1  0.35328664  0.28463924  0.94886947  1  0.433258  -0.000266  0.863261  0.002  0.401008  0.000455  0.929208  0.002  0.410759  0.000101  0.915257  0.002  0.638536  0.00228  0.303586  0.394152  0.000805  0.938988  0.003
H  H19  1  0.14671121  0.71536026  0.44886877  1  0.433276  -0.000269  0.86324  0.002  0.401021  0.000455  0.929195  0.002  0.410772  0.000101  0.915243  0.002  0.638491  0.002279  0.303587  0.394161  0.000802  0.938979  0.003
H  H20  1  0.35328806  0.21535940  0.44886807  1  0.433282  -0.000267  0.863226  0.002  0.401026  0.000456  0.929184  0.002  0.410778  0.000101  0.915232  0.002  0.638484  0.00228  0.303607  0.394175  0.000804  0.938955  0.003
H  H21  1  0.14671263  0.78464083  0.94886877  1  0.433281  -0.000269  0.863232  0.002  0.401032  0.000455  0.929178  0.002  0.410782  0.000101  0.915227  0.002  0.638531  0.002279  0.303583  0.39418  0.000804  0.938951  0.003
H  H22  1  0.64671331  0.71535952  0.05113193  1  0.43328  -0.000268  0.863227  0.002  0.401035  0.000455  0.929165  0.002  0.410786  0.000101  0.915215  0.002  0.638473  0.00228  0.30361  0.394178  0.000804  0.938945  0.003
H  H23  1  0.85328733  0.28463997  0.55113123  1  0.43326  -0.000267  0.863257  0.002  0.401011  0.000456  0.929202  0.002  0.410761  0.000101  0.915253  0.002  0.638532  0.002279  0.303589  0.394152  0.000804  0.938985  0.003
H  H24  1  0.85782333  0.66282634  0.67691158  1  0.318853  -0.000507  0.913524  0.0  0.292263  -0.000458  0.983639  0.0  0.302657  -0.000551  0.975108  0.0  0.561504  0.000577  0.313963  0.284875  -0.000347  0.989724  0.0
H  H25  1  0.64217307  0.33717315  0.17691439  1  0.318863  -0.000506  0.913492  0.0  0.292265  -0.000458  0.983617  0.0  0.302661  -0.000551  0.975083  0.0  0.561515  0.00058  0.31396  0.284873  -0.000345  0.989698  0.0
H  H26  1  0.14217238  0.16282623  0.82308842  1  0.318868  -0.000506  0.913498  0.0  0.292279  -0.000458  0.983619  0.0  0.302674  -0.000551  0.975085  0.0  0.561494  0.000579  0.313949  0.284877  -0.000345  0.989705  0.0
H  H27  1  0.35782689  0.83717179  0.32308561  1  0.318832  -0.000507  0.91349  0.0  0.292242  -0.000458  0.983604  0.0  0.302636  -0.000551  0.975075  0.0  0.561511  0.000578  0.313955  0.284844  -0.000347  0.98969  0.0
H  H28  1  0.14217804  0.33717315  0.32308561  1  0.318893  -0.000506  0.913479  0.0  0.292289  -0.000458  0.983606  0.0  0.302685  -0.000551  0.975073  0.0  0.561522  0.000579  0.313958  0.284896  -0.000345  0.989688  0.0
H  H29  1  0.35782265  0.66282634  0.82308842  1  0.318849  -0.000506  0.913531  0.0  0.292259  -0.000458  0.983648  0.0  0.302654  -0.000552  0.975115  0.0  0.561502  0.000578  0.313963  0.284871  -0.000346  0.98973  0.0
H  H30  1  0.85782616  0.83717327  0.17691228  1  0.318868  -0.000505  0.913504  0.0  0.292277  -0.000458  0.98363  0.0  0.302672  -0.000552  0.975097  0.0  0.561512  0.000579  0.313937  0.284879  -0.000346  0.989716  0.0
H  H31  1  0.64217731  0.16282696  0.67691509  1  0.318877  -0.000508  0.913506  0.0  0.292287  -0.000458  0.983624  0.0  0.302681  -0.000552  0.975093  0.0  0.561509  0.000579  0.313949  0.284887  -0.000346  0.989708  0.0
H  H32  1  0.93188499  0.62246812  0.84695719  1  0.112344  -0.00088  0.913437  0.0  0.11945  -0.000643  0.97651  0.0  0.122921  -0.000701  0.972023  0.0  0.181703  0.000292  0.14696  0.116747  -0.00056  0.98  0.0
H  H33  1  0.56811282  0.37753506  0.34695860  1  0.112308  -0.000896  0.913488  0.0  0.119418  -0.000643  0.97657  0.0  0.122889  -0.000701  0.972083  0.0  0.181686  0.000292  0.146945  0.116708  -0.00056  0.98006  0.0
H  H34  1  0.06811355  0.12246653  0.65304351  1  0.112386  -0.000917  0.913412  0.0  0.119466  -0.000643  0.97651  0.0  0.122937  -0.0007  0.972023  0.0  0.18171  0.000291  0.14696  0.116741  -0.000561  0.980002  0.0
H  H35  1  0.43188714  0.87753296  0.15304211  1  0.112309  -0.000902  0.913498  0.0  0.119408  -0.000643  0.97658  0.0  0.122878  -0.000701  0.972094  0.0  0.181641  0.000291  0.14692  0.116686  -0.00056  0.980072  0.0
H  H36  1  0.06812203  0.37753285  0.15304000  1  0.112289  -0.000886  0.913475  0.0  0.119396  -0.000643  0.976575  0.0  0.122868  -0.000701  0.972085  0.0  0.181714  0.000293  0.146936  0.116683  -0.000559  0.980065  0.0
H  H37  1  0.43187583  0.62246738  0.65304281  1  0.112279  -0.000913  0.913502  0.0  0.119389  -0.000643  0.97659  0.0  0.12286  -0.000701  0.972102  0.0  0.181722  0.000288  0.146947  0.116688  -0.000563  0.980077  0.0
H  H38  1  0.93188358  0.87753296  0.34695719  1  0.112354  -0.000898  0.913429  0.0  0.119466  -0.000643  0.976498  0.0  0.122937  -0.000701  0.972011  0.0  0.181712  0.000288  0.146962  0.116747  -0.000564  0.97999  0.0
H  H39  1  0.56812271  0.12246653  0.84696000  1  0.112324  -0.000875  0.913464  0.0  0.119419  -0.000643  0.976565  0.0  0.122891  -0.000701  0.972077  0.0  0.181703  0.000293  0.146937  0.116692  -0.000559  0.98006  0.0
C  C40  1  0.89877882  0.56797512  0.79372632  1  0.280558  0.004676  3.600053  0.005  0.214379  0.007205  3.885746  0.007  0.229733  0.005837  3.89468  0.006  1.023373  0.011254  0.168529  0.204129  0.008782  3.879724  0.008
C  C41  1  0.60121758  0.43202511  0.29372912  1  0.280573  0.004751  3.600023  0.005  0.214365  0.007205  3.885739  0.007  0.22972  0.005837  3.894676  0.006  1.023327  0.011256  0.168507  0.204113  0.008784  3.879707  0.008
C  C42  1  0.10121973  0.06797500  0.70627509  1  0.280524  0.004785  3.600135  0.005  0.214383  0.007204  3.885797  0.007  0.229738  0.005838  3.894732  0.006  1.023381  0.011254  0.168491  0.204119  0.008782  3.879763  0.008
C  C43  1  0.39878237  0.93202228  0.20627088  1  0.280537  0.004767  3.600048  0.005  0.214361  0.007204  3.885725  0.007  0.229717  0.005839  3.894658  0.006  1.023278  0.011256  0.168522  0.204098  0.008783  3.879695  0.008
C  C44  1  0.10122397  0.43202438  0.20627158  1  0.280668  0.00468  3.600029  0.005  0.214447  0.007205  3.885736  0.007  0.229803  0.005836  3.894671  0.006  1.023296  0.011257  0.168517  0.204189  0.008785  3.879706  0.008
C  C45  1  0.39877672  0.56797659  0.70627228  1  0.280704  0.004776  3.599887  0.005  0.214498  0.007204  3.885603  0.007  0.229854  0.005839  3.894535  0.006  1.023347  0.011254  0.168551  0.204248  0.008782  3.879579  0.008
C  C46  1  0.89878023  0.93202523  0.29372561  1  0.280582  0.004715  3.600044  0.005  0.214403  0.007204  3.885745  0.007  0.229759  0.005837  3.89468  0.006  1.023371  0.011251  0.16852  0.204144  0.00878  3.879716  0.008
C  C47  1  0.60122607  0.06797574  0.79372912  1  0.280677  0.004659  3.599978  0.005  0.21449  0.007205  3.885694  0.007  0.229846  0.005836  3.894627  0.006  1.023303  0.011256  0.168531  0.204223  0.008784  3.879664  0.008
C  C48  1  0.75169019  0.51066666  0.55712982  1  0.65512  0.013504  3.907757  0.013  0.597759  0.023101  4.211493  0.02  0.635343  0.01711  4.200401  0.015  1.59374  0.030859  0.226562  0.570871  0.030197  4.219178  0.025
C  C49  1  0.74830338  0.48933283  0.05713053  1  0.655258  0.013483  3.907862  0.012  0.597888  0.023101  4.211622  0.02  0.635473  0.017109  4.200523  0.015  1.593707  0.030861  0.22663  0.571  0.030198  4.219307  0.025
C  C50  1  0.24830553  0.01066655  0.94287158  1  0.655239  0.013494  3.907693  0.012  0.597887  0.023101  4.211456  0.02  0.635471  0.017109  4.200354  0.015  1.593793  0.030859  0.226593  0.570999  0.030198  4.219114  0.025
C  C51  1  0.25169799  0.98933073  0.44286947  1  0.655089  0.013495  3.907874  0.012  0.597748  0.023101  4.211613  0.02  0.635331  0.017108  4.200522  0.015  1.593713  0.030855  0.226593  0.570853  0.030192  4.21928  0.025
C  C52  1  0.24830270  0.48933283  0.44286877  1  0.655223  0.013493  3.90784  0.012  0.597877  0.023102  4.211586  0.02  0.635459  0.01711  4.200494  0.015  1.593725  0.030861  0.22663  0.570992  0.030197  4.219262  0.025
C  C53  1  0.25169516  0.51066814  0.94286877  1  0.655253  0.013485  3.907693  0.012  0.597886  0.023103  4.211432  0.02  0.635469  0.017111  4.200335  0.015  1.593702  0.030865  0.226602  0.570996  0.030202  4.219122  0.025
C  C54  1  0.75169867  0.98933368  0.05712842  1  0.655221  0.013493  3.907744  0.012  0.597849  0.023102  4.211501  0.02  0.635433  0.01711  4.2004  0.015  1.593727  0.030863  0.226564  0.570957  0.0302  4.219167  0.025
C  C55  1  0.74830338  0.01066876  0.55713123  1  0.655206  0.013487  3.907841  0.012  0.597837  0.023102  4.211574  0.02  0.635422  0.01711  4.200481  0.015  1.593724  0.030858  0.226601  0.570943  0.030195  4.219236  0.025
C  C56  1  0.81586000  0.50605145  0.65567228  1  0.007299  -0.002241  3.670732  -0.001  -0.007716  0.000799  3.934154  0.0  -0.009137  -0.001094  3.95124  -0.001  0.325158  0.004891  0.090984  -0.007045  0.002946  3.923749  0.001
C  C57  1  0.68413640  0.49394804  0.15567228  1  0.007356  -0.002276  3.670642  -0.001  -0.007715  0.000799  3.934123  0.0  -0.009134  -0.001094  3.951207  -0.001  0.32518  0.004893  0.091021  -0.00705  0.002948  3.923711  0.001
C  C58  1  0.18413713  0.00605134  0.84432982  1  0.007339  -0.002263  3.670624  -0.001  -0.007725  0.0008  3.934156  0.0  -0.009146  -0.001093  3.95124  -0.001  0.325042  0.004894  0.090972  -0.007058  0.002948  3.92372  0.001
C  C59  1  0.31586639  0.99394742  0.34432772  1  0.007503  -0.002295  3.670469  -0.001  -0.007582  0.000799  3.934029  0.0  -0.009001  -0.001093  3.951113  -0.001  0.325181  0.004889  0.091079  -0.006918  0.002944  3.923609  0.001
C  C60  1  0.18413430  0.49395025  0.34432561  1  0.007381  -0.00225  3.670658  -0.001  -0.007684  0.000799  3.934207  0.0  -0.009103  -0.001093  3.951293  -0.001  0.32516  0.004892  0.090999  -0.007018  0.002947  3.92379  0.001
C  C61  1  0.31586214  0.50605071  0.84432772  1  0.007204  -0.002241  3.670805  -0.001  -0.007805  0.000799  3.934223  0.0  -0.009227  -0.001093  3.951306  -0.001  0.325155  0.004894  0.090973  -0.007135  0.002948  3.923821  0.001
C  C62  1  0.81586566  0.99394963  0.15567158  1  0.007265  -0.002275  3.670734  -0.001  -0.007728  0.0008  3.93419  0.0  -0.009147  -0.001092  3.951274  -0.001  0.325154  0.004895  0.090977  -0.00706  0.002949  3.923766  0.001
C  C63  1  0.68413781  0.00605060  0.65567439  1  0.007308  -0.002287  3.670718  -0.001  -0.007707  0.000799  3.934156  0.0  -0.009128  -0.001093  3.95124  -0.001  0.325176  0.004889  0.090977  -0.007043  0.002944  3.923728  0.001
C  C64  1  0.82075645  0.43125431  0.72342526  1  -0.007795  0.004291  3.744227  0.004  -0.01542  0.007849  4.006856  0.007  -0.017292  0.005924  4.02728  0.005  0.459296  0.013829  0.08092  -0.014815  0.01057  3.994015  0.008
C  C65  1  0.67924136  0.56874666  0.22342526  1  -0.007931  0.004328  3.744325  0.004  -0.015494  0.007849  4.006917  0.007  -0.017367  0.005924  4.027341  0.005  0.459084  0.013827  0.08084  -0.01489  0.010569  3.994066  0.008
C  C66  1  0.17924209  0.93125443  0.77657614  1  -0.007813  0.004317  3.744212  0.004  -0.015467  0.007849  4.006933  0.007  -0.017338  0.005924  4.027356  0.005  0.459284  0.013826  0.080872  -0.01487  0.010569  3.994055  0.008
C  C67  1  0.32076001  0.06874433  0.27657474  1  -0.007818  0.004336  3.744016  0.004  -0.015502  0.007849  4.006795  0.007  -0.017373  0.005923  4.027218  0.005  0.459755  0.013826  0.080872  -0.014906  0.010569  3.993929  0.008
C  C68  1  0.17923785  0.56874518  0.27657404  1  -0.007812  0.004301  3.744099  0.004  -0.015535  0.007849  4.0069  0.007  -0.017405  0.005923  4.027324  0.005  0.459264  0.013825  0.080818  -0.014934  0.010568  3.994048  0.008
C  C69  1  0.32075577  0.43125431  0.77657404  1  -0.007833  0.004297  3.744225  0.004  -0.015456  0.00785  4.006868  0.007  -0.017325  0.005924  4.027289  0.005  0.459305  0.013832  0.080879  -0.014854  0.010573  3.994029  0.008
C  C70  1  0.82076069  0.06874580  0.22342456  1  -0.007747  0.004312  3.744164  0.004  -0.01542  0.00785  4.006884  0.007  -0.017292  0.005923  4.027308  0.005  0.459285  0.013828  0.0809  -0.014822  0.01057  3.994019  0.008
C  C71  1  0.67924277  0.93125443  0.72342667  1  -0.007831  0.004326  3.74419  0.004  -0.015452  0.00785  4.006835  0.007  -0.017323  0.005923  4.027258  0.005  0.459299  0.013824  0.080881  -0.014857  0.010567  3.99396  0.008
C  C72  1  0.76751885  0.32569892  0.72531860  1  0.645641  0.007402  3.895205  0.007  0.589602  0.015111  4.196518  0.013  0.625319  0.010634  4.187498  0.009  1.574014  0.020567  0.222212  0.564507  0.02017  4.202412  0.016
C  C73  1  0.73248179  0.67430205  0.22531509  1  0.64568  0.007379  3.895126  0.007  0.589603  0.015112  4.196476  0.013  0.625321  0.010634  4.187452  0.009  1.574243  0.020564  0.222204  0.564508  0.020168  4.202366  0.016
C  C74  1  0.23248252  0.82569830  0.77468211  1  0.645656  0.007387  3.895085  0.007  0.589604  0.015112  4.196438  0.013  0.625321  0.010633  4.187417  0.009  1.574041  0.020564  0.222215  0.564512  0.020167  4.202308  0.016
C  C75  1  0.26752099  0.17430046  0.27468070  1  0.645587  0.00739  3.894952  0.007  0.589519  0.015113  4.196344  0.013  0.625236  0.010634  4.187323  0.009  1.573595  0.020566  0.22214  0.564429  0.020169  4.202219  0.016
C  C76  1  0.23247828  0.67430278  0.27467789  1  0.645596  0.007404  3.894929  0.007  0.589581  0.015113  4.196284  0.013  0.625297  0.010635  4.187263  0.009  1.574076  0.020564  0.222207  0.564486  0.020168  4.20217  0.016
C  C77  1  0.26751816  0.32569745  0.77468140  1  0.645649  0.007395  3.895086  0.007  0.589579  0.015112  4.196455  0.013  0.625297  0.010633  4.187431  0.009  1.574057  0.020568  0.22218  0.564486  0.020172  4.202352  0.016
C  C78  1  0.76752026  0.17430267  0.22531930  1  0.6456  0.007398  3.895143  0.007  0.589537  0.015111  4.196515  0.013  0.625255  0.010633  4.187494  0.009  1.574054  0.020566  0.222192  0.564446  0.020169  4.202391  0.016
C  C79  1  0.73248038  0.82569830  0.72532211  1  0.645686  0.007399  3.89504  0.007  0.589616  0.015111  4.196412  0.013  0.625333  0.010634  4.187393  0.009  1.574047  0.020563  0.222235  0.564525  0.020166  4.202284  0.016
N  N80  1  0.87497222  0.47166638  0.80807298  1  -0.434383  0.028542  3.232821  0.013  -0.378038  0.032941  3.529974  0.013  -0.399097  0.029069  3.545329  0.01  -1.252995  0.052311  -0.340995  -0.363004  0.036979  3.519511  0.016
N  N81  1  0.62502559  0.52833533  0.30807368  1  -0.434339  0.028503  3.23288  0.013  -0.378005  0.032943  3.530012  0.013  -0.399064  0.029069  3.545369  0.01  -1.252999  0.052304  -0.340955  -0.362969  0.036978  3.519541  0.016
N  N82  1  0.12502491  0.97166576  0.69192842  1  -0.434344  0.028497  3.232826  0.013  -0.37798  0.032941  3.529961  0.013  -0.39904  0.029067  3.545316  0.01  -1.252969  0.052305  -0.340946  -0.36294  0.036973  3.519463  0.016
N  N83  1  0.37497436  0.02833374  0.19192702  1  -0.434357  0.028495  3.232883  0.013  -0.377984  0.032942  3.530043  0.013  -0.399044  0.029068  3.545399  0.01  -1.252963  0.05231  -0.340971  -0.362946  0.036978  3.519553  0.016
N  N84  1  0.12502773  0.52833459  0.19192491  1  -0.434456  0.028545  3.232882  0.013  -0.378063  0.032942  3.530052  0.013  -0.399124  0.029071  3.545409  0.01  -1.25302  0.052307  -0.340985  -0.363032  0.03698  3.519582  0.016
N  N85  1  0.37497012  0.47166490  0.69192632  1  -0.434425  0.028511  3.232757  0.013  -0.378068  0.032944  3.529911  0.013  -0.399127  0.029071  3.545266  0.01  -1.252975  0.052309  -0.341001  -0.363028  0.036982  3.519448  0.016
N  N86  1  0.87497505  0.02833447  0.30807298  1  -0.434407  0.028543  3.232852  0.013  -0.378045  0.032941  3.53002  0.013  -0.399105  0.029069  3.545377  0.01  -1.252986  0.052305  -0.340987  -0.363002  0.036976  3.51953  0.016
N  N87  1  0.62502983  0.97166502  0.80807509  1  -0.434451  0.028541  3.232842  0.013  -0.378108  0.032943  3.529997  0.013  -0.399169  0.029071  3.545352  0.01  -1.253048  0.052308  -0.341035  -0.363069  0.036981  3.519499  0.016
N  N88  1  0.86741127  0.59065951  0.70285684  1  -0.278883  0.001366  3.396282  0.002  -0.21851  0.003459  3.638502  0.004  -0.233703  0.00218  3.65113  0.003  -1.256901  0.008803  -0.358845  -0.208573  0.00513  3.630288  0.005
N  N89  1  0.63258513  0.40933998  0.20285825  1  -0.278846  0.00134  3.396125  0.002  -0.218443  0.003459  3.63836  0.004  -0.233634  0.00218  3.650984  0.003  -1.256886  0.008811  -0.358823  -0.20851  0.005134  3.630137  0.005
N  N90  1  0.13258586  0.09065940  0.79714386  1  -0.278942  0.001335  3.396279  0.002  -0.218562  0.003459  3.638518  0.004  -0.233752  0.002179  3.651141  0.003  -1.25695  0.008809  -0.358866  -0.208646  0.005134  3.630303  0.005
N  N91  1  0.36741624  0.90933788  0.29714246  1  -0.278904  0.001341  3.396144  0.002  -0.218494  0.003459  3.638378  0.004  -0.233686  0.002179  3.651005  0.003  -1.25695  0.008804  -0.358893  -0.208574  0.00513  3.630164  0.005
N  N92  1  0.13258868  0.40934072  0.29714035  1  -0.278958  0.001362  3.396241  0.002  -0.218514  0.003458  3.638459  0.004  -0.233706  0.00218  3.651081  0.003  -1.256904  0.008809  -0.358822  -0.208584  0.005133  3.630236  0.005
N  N93  1  0.36741200  0.59065951  0.79714316  1  -0.278878  0.001333  3.396231  0.002  -0.218495  0.003459  3.638454  0.004  -0.233687  0.002178  3.65108  0.003  -1.256877  0.008808  -0.358833  -0.208557  0.005133  3.630235  0.005
N  N94  1  0.86741410  0.90934157  0.20285684  1  -0.278897  0.001348  3.396286  0.002  -0.218542  0.003458  3.638536  0.004  -0.233733  0.002179  3.65116  0.003  -1.256948  0.008807  -0.35884  -0.208618  0.005132  3.630321  0.005
N  N95  1  0.63258937  0.09066014  0.70285965  1  -0.27895  0.001379  3.396275  0.002  -0.218576  0.003458  3.638506  0.004  -0.233768  0.00218  3.651129  0.003  -1.256917  0.008807  -0.358845  -0.208658  0.005133  3.630291  0.005
O  O96  1  0.78155657  0.59224758  0.51313895  1  -0.65295  0.036174  2.044695  0.024  -0.580356  0.046652  2.299569  0.031  -0.609717  0.040498  2.283549  0.025  -1.196654  0.075342  -0.305092  -0.559275  0.053224  2.310681  0.037
O  O97  1  0.71843983  0.40775191  0.01314035  1  -0.653062  0.036179  2.044763  0.024  -0.580428  0.046652  2.299595  0.031  -0.609806  0.040499  2.283606  0.025  -1.196691  0.075355  -0.3051  -0.559343  0.053229  2.310698  0.037
O  O98  1  0.21844197  0.09224747  0.98686246  1  -0.653049  0.03617  2.044724  0.024  -0.58042  0.046653  2.299547  0.031  -0.609798  0.040498  2.283563  0.025  -1.196714  0.075355  -0.305121  -0.55937  0.053231  2.310656  0.037
O  O99  1  0.28156154  0.90775129  0.48686105  1  -0.653005  0.036177  2.044751  0.024  -0.58037  0.04665  2.299549  0.031  -0.609748  0.040498  2.283567  0.025  -1.196763  0.075342  -0.305085  -0.559286  0.05322  2.310629  0.037
O  O100  1  0.21844056  0.40775265  0.48685895  1  -0.653003  0.03618  2.044769  0.024  -0.58038  0.04665  2.299609  0.031  -0.609751  0.040497  2.283616  0.025  -1.196627  0.075343  -0.305107  -0.559323  0.053228  2.310735  0.037
O  O101  1  0.28155871  0.59224685  0.98685965  1  -0.653046  0.036178  2.044734  0.024  -0.580416  0.046654  2.299547  0.031  -0.609793  0.040499  2.283565  0.025  -1.196621  0.075343  -0.305078  -0.559327  0.05323  2.310654  0.037
O  O102  1  0.78155798  0.90775350  0.01313895  1  -0.653044  0.036181  2.04479  0.024  -0.580422  0.046654  2.299627  0.031  -0.609799  0.0405  2.283641  0.025  -1.196718  0.075357  -0.305094  -0.559347  0.05323  2.310722  0.037
O  O103  1  0.71844125  0.09224821  0.51314105  1  -0.653036  0.036187  2.04484  0.024  -0.580411  0.046652  2.299681  0.031  -0.609781  0.040498  2.283676  0.025  -1.19672  0.075349  -0.305094  -0.559336  0.053225  2.31077  0.037
O  O104  1  0.54559395  0.76537377  0.50703719  1  -0.834353  0.031398  1.886159  0.019  -0.770172  0.040169  2.09636  0.024  -0.793561  0.035781  2.060429  0.021  -1.274365  0.0629  -0.571518  -0.752413  0.044379  2.121166  0.028
O  O105  1  0.95440811  0.23462794  0.00703789  1  -0.834324  0.031396  1.886139  0.019  -0.770125  0.040168  2.096316  0.024  -0.793524  0.035781  2.0604  0.021  -1.274358  0.062915  -0.571494  -0.752357  0.044388  2.121103  0.028
O  O106  1  0.45440601  0.26537144  0.99296351  1  -0.83434  0.031402  1.8861  0.019  -0.770162  0.040172  2.096298  0.024  -0.793557  0.035784  2.060372  0.021  -1.274361  0.062915  -0.571505  -0.752384  0.044391  2.121107  0.028
O  O107  1  0.04559185  0.73462805  0.49296281  1  -0.834341  0.031405  1.886128  0.019  -0.770149  0.040168  2.096316  0.024  -0.793545  0.03578  2.060389  0.021  -1.274339  0.062896  -0.5715  -0.752381  0.044377  2.121132  0.028
O  O108  1  0.45440742  0.23462794  0.49296281  1  -0.834351  0.031404  1.886093  0.019  -0.770167  0.040169  2.096303  0.024  -0.793558  0.035782  2.060363  0.021  -1.274326  0.062911  -0.571516  -0.752404  0.044386  2.121104  0.028
O  O109  1  0.04559326  0.76537303  0.99296281  1  -0.834382  0.031406  1.886081  0.019  -0.770208  0.04017  2.096281  0.024  -0.793606  0.035782  2.060362  0.021  -1.274368  0.062915  -0.571504  -0.752445  0.044389  2.121083  0.028
O  O110  1  0.54559253  0.73462805  0.00703860  1  -0.834342  0.031397  1.886075  0.019  -0.770175  0.04017  2.096268  0.024  -0.793573  0.035782  2.060351  0.021  -1.274324  0.062911  -0.571518  -0.752401  0.044385  2.121081  0.028
O  O111  1  0.95440669  0.26537218  0.50703719  1  -0.834332  0.031398  1.886138  0.019  -0.770152  0.040169  2.096333  0.024  -0.793546  0.035781  2.060403  0.021  -1.274365  0.062911  -0.571494  -0.752377  0.044385  2.121142  0.028
O  O112  1  0.66360070  0.43848435  0.52158596  1  -0.628065  0.029554  2.074639  0.016  -0.568925  0.038173  2.345019  0.021  -0.597388  0.033185  2.3304  0.017  -1.180086  0.063039  -0.295957  -0.54808  0.043597  2.354748  0.026
O  O113  1  0.83639287  0.56151588  0.02158667  1  -0.628117  0.029567  2.074748  0.016  -0.568967  0.038172  2.345117  0.021  -0.597427  0.033187  2.330496  0.017  -1.179965  0.063035  -0.296005  -0.548134  0.043597  2.354852  0.026
O  O114  1  0.33639643  0.93848446  0.97841474  1  -0.628086  0.029564  2.074642  0.016  -0.568957  0.038173  2.34503  0.021  -0.597416  0.033187  2.330409  0.017  -1.180078  0.063036  -0.295982  -0.548129  0.043599  2.354744  0.026
O  O115  1  0.16360708  0.06151429  0.47841333  1  -0.628045  0.029554  2.074763  0.016  -0.568893  0.038172  2.345113  0.021  -0.597356  0.033185  2.330497  0.017  -1.179937  0.063031  -0.295998  -0.548065  0.043594  2.354832  0.026
O  O116  1  0.33639360  0.56151662  0.47841193  1  -0.628107  0.029554  2.074728  0.016  -0.568976  0.038174  2.345105  0.021  -0.597439  0.033186  2.330489  0.017  -1.179985  0.063033  -0.295984  -0.548139  0.043594  2.354829  0.026
O  O117  1  0.16360284  0.43848361  0.97841333  1  -0.628081  0.029567  2.07456  0.016  -0.56896  0.038171  2.344961  0.021  -0.597421  0.033186  2.33034  0.017  -1.180027  0.063044  -0.295991  -0.548118  0.043599  2.354692  0.026
O  O118  1  0.66360635  0.06151724  0.02158596  1  -0.628113  0.029559  2.074634  0.016  -0.56897  0.038174  2.345017  0.021  -0.597429  0.033187  2.330396  0.017  -1.180051  0.063045  -0.295984  -0.548141  0.0436  2.354735  0.026
O  O119  1  0.83639570  0.93848446  0.52158807  1  -0.62806  0.029556  2.074625  0.016  -0.568934  0.038172  2.345014  0.021  -0.597397  0.033185  2.330395  0.017  -1.179999  0.063033  -0.295992  -0.548108  0.043592  2.354734  0.026
O  O120  1  0.69572872  0.28496526  0.65186456  1  -0.660394  0.020663  2.101907  0.01  -0.585487  0.027673  2.340231  0.015  -0.614262  0.024948  2.327996  0.013  -1.207224  0.043768  -0.297081  -0.564534  0.03045  2.347788  0.017
O  O121  1  0.80427051  0.71503350  0.15186246  1  -0.660427  0.02067  2.101945  0.01  -0.585501  0.027674  2.340265  0.015  -0.614275  0.024948  2.328027  0.013  -1.207305  0.043768  -0.297064  -0.564539  0.03045  2.347782  0.017
O  O122  1  0.30427124  0.78496611  0.84813684  1  -0.660412  0.020672  2.10191  0.01  -0.5855  0.027674  2.340241  0.015  -0.614276  0.02495  2.328005  0.013  -1.207281  0.043768  -0.297083  -0.564561  0.030451  2.347762  0.017
O  O123  1  0.19573086  0.21503264  0.34813684  1  -0.660428  0.02067  2.101874  0.01  -0.585478  0.027674  2.340183  0.015  -0.614258  0.02495  2.327952  0.013  -1.207234  0.04377  -0.297055  -0.564521  0.030451  2.347669  0.017
O  O124  1  0.30426982  0.71503424  0.34813614  1  -0.660441  0.020665  2.101863  0.01  -0.585523  0.027674  2.34017  0.015  -0.614301  0.024949  2.32794  0.013  -1.207197  0.043763  -0.297069  -0.564555  0.030446  2.347672  0.017
O  O125  1  0.19572803  0.28496526  0.84813684  1  -0.660421  0.020661  2.101901  0.01  -0.58551  0.027674  2.340243  0.015  -0.614286  0.024949  2.328005  0.013  -1.207246  0.04377  -0.297068  -0.56454  0.030451  2.347751  0.017
O  O126  1  0.69572872  0.21503486  0.15186316  1  -0.660402  0.020663  2.101893  0.01  -0.585466  0.027674  2.340214  0.015  -0.614243  0.024948  2.327977  0.013  -1.207262  0.043773  -0.297075  -0.564526  0.030451  2.347739  0.017
O  O127  1  0.80427051  0.78496611  0.65186456  1  -0.660452  0.02066  2.101898  0.01  -0.585552  0.027674  2.340225  0.015  -0.614329  0.024948  2.327997  0.013  -1.207206  0.043763  -0.297114  -0.5646  0.030447  2.347718  0.017
O  O128  1  0.79006740  0.28036332  0.80242526  1  -0.59979  0.034907  1.980036  0.026  -0.547404  0.044423  2.240184  0.033  -0.5741  0.038409  2.22656  0.027  -1.167582  0.071312  -0.297833  -0.5279  0.050932  2.24907  0.039
O  O129  1  0.70993465  0.71963838  0.30242316  1  -0.599799  0.034922  1.97993  0.026  -0.547436  0.044423  2.240112  0.033  -0.574133  0.03841  2.226489  0.027  -1.16755  0.071308  -0.297862  -0.527935  0.050929  2.248992  0.039
O  O130  1  0.20993396  0.78036418  0.69757614  1  -0.599808  0.03491  1.97999  0.026  -0.547408  0.044421  2.24014  0.033  -0.574103  0.038409  2.226518  0.027  -1.167611  0.071301  -0.29789  -0.527943  0.050924  2.249026  0.039
O  O131  1  0.29006813  0.21963532  0.19757614  1  -0.599796  0.034914  1.980064  0.026  -0.547379  0.044422  2.24021  0.033  -0.574072  0.038409  2.226586  0.027  -1.167623  0.071314  -0.297868  -0.527914  0.050933  2.249094  0.039
O  O132  1  0.20993114  0.71963691  0.19757474  1  -0.599704  0.034903  1.980106  0.026  -0.547333  0.04442  2.240267  0.033  -0.574025  0.038407  2.226641  0.027  -1.167674  0.071305  -0.297828  -0.527843  0.050927  2.249151  0.039
O  O133  1  0.29006531  0.28036258  0.69757614  1  -0.599768  0.034914  1.980032  0.026  -0.54737  0.044423  2.240192  0.033  -0.574066  0.03841  2.22657  0.027  -1.167606  0.071315  -0.297809  -0.527863  0.050933  2.249075  0.039
O  O134  1  0.79006882  0.21963753  0.30242246  1  -0.599758  0.034908  1.980146  0.026  -0.547373  0.04442  2.240313  0.033  -0.574069  0.038408  2.226691  0.027  -1.167634  0.071308  -0.297873  -0.5279  0.050928  2.249197  0.039
O  O135  1  0.70993465  0.78036344  0.80242526  1  -0.599772  0.034914  1.980081  0.026  -0.547366  0.044421  2.240232  0.033  -0.574058  0.038409  2.226607  0.027  -1.167713  0.071306  -0.297866  -0.527906  0.050928  2.249121  0.039
