# generated using pymatgen
data_CdH21C15N5O6
_symmetry_space_group_name_H-M   'P 1'
_cell_length_a   12.59845140
_cell_length_b   12.69668701
_cell_length_c   14.21181482
_cell_angle_alpha   89.99924442
_cell_angle_beta   117.57770513
_cell_angle_gamma   90.00147145
_symmetry_Int_Tables_number   1
_chemical_formula_structural   CdH21C15N5O6
_chemical_formula_sum   'Cd4 H84 C60 N20 O24'
_cell_volume   2015.01797012
_cell_formula_units_Z   4
loop_
 _symmetry_equiv_pos_site_id
 _symmetry_equiv_pos_as_xyz
  1  'x, y, z'
loop_
 _atom_site_type_symbol
 _atom_site_label
 _atom_site_symmetry_multiplicity
 _atom_site_fract_x
 _atom_site_fract_y
 _atom_site_fract_z
 _atom_site_occupancy
 _atom_site_pbe_bader_charge
 _atom_site_pbe_bader_spin_density
 _atom_site_pbe_cm5_charge
 _atom_site_pbe_ddec_charge
 _atom_site_pbe_ddec_spin_density
 _atom_site_pbe_ddec_sum_bond_order
 _atom_site_pbe_magmom
Cd  Cd0  1  0.85923387  0.21585202  0.69827734  1  1.256459  0  0.758404  0.888707  0  2.125115  0
Cd  Cd1  1  0.14078111  0.71585565  0.80172838  1  1.256557  0  0.7584  0.88864  0  2.125139  0
Cd  Cd2  1  0.14077332  0.78414238  0.30172896  1  1.256516  0  0.758388  0.888757  0  2.125001  0
Cd  Cd3  1  0.85921810  0.28414426  0.19826825  1  1.256484  0  0.758372  0.888675  0  2.125071  0
H  H4  1  0.10629223  0.24799681  0.74039311  1  0.59387  0  0.308951  0.382563  0  0.909463  0
H  H5  1  0.89371889  0.74800165  0.75960812  1  0.593659  0  0.308947  0.382512  0  0.90949  0
H  H6  1  0.89371142  0.75199838  0.25960820  1  0.593705  0  0.30899  0.382586  0  0.909322  0
H  H7  1  0.10628125  0.25199511  0.24038539  1  0.593634  0  0.308992  0.382504  0  0.909434  0
H  H8  1  0.06094331  0.16867975  0.64411333  1  0.626398  0  0.276471  0.336654  0  1.029563  0
H  H9  1  0.93905563  0.66868363  0.85588158  1  0.62655  0  0.27645  0.336572  0  1.029646  0
H  H10  1  0.93905232  0.83132174  0.35588181  1  0.626552  0  0.276448  0.33659  0  1.029615  0
H  H11  1  0.06094176  0.33132259  0.14411711  1  0.626433  0  0.276454  0.336585  0  1.029634  0
H  H12  1  0.49291743  0.88845403  0.28671620  1  0.621888  0  0.302511  0.347384  0  0.943161  0
H  H13  1  0.50706063  0.38844767  0.21328012  1  0.621922  0  0.302622  0.347537  0  0.942967  0
H  H14  1  0.50707198  0.11154667  0.71327142  1  0.621871  0  0.302598  0.347514  0  0.942863  0
H  H15  1  0.49292603  0.61155461  0.78671198  1  0.621794  0  0.302556  0.347365  0  0.943168  0
H  H16  1  0.03683648  0.89422030  0.83914355  1  0.514627  0  0.295172  0.298882  0  1.028535  0
H  H17  1  0.96316833  0.39423398  0.66085823  1  0.514643  0  0.295202  0.298994  0  1.02829  0
H  H18  1  0.96316540  0.10576229  0.16085560  1  0.51462  0  0.295192  0.298971  0  1.028374  0
H  H19  1  0.03683532  0.60576594  0.33914307  1  0.514634  0  0.295198  0.298938  0  1.02832  0
H  H20  1  0.93225721  0.99826406  0.79037351  1  0.523574  0  0.298469  0.320686  0  1.006101  0
H  H21  1  0.06775125  0.49827599  0.70963379  1  0.52384  0  0.298404  0.320618  0  1.006139  0
H  H22  1  0.06775355  0.00172640  0.20963568  1  0.52387  0  0.298387  0.320636  0  1.006129  0
H  H23  1  0.93225239  0.50172550  0.29036892  1  0.523481  0  0.298412  0.32064  0  1.00614  0
H  H24  1  0.05776223  0.75047204  0.55412347  1  0.166256  0  0.129937  0.091577  0  1.016982  0
H  H25  1  0.94222836  0.25047495  0.94586708  1  0.166583  0  0.129935  0.091522  0  1.017034  0
H  H26  1  0.94222270  0.24952709  0.44586299  1  0.166419  0  0.129911  0.091494  0  1.017037  0
H  H27  1  0.05776814  0.74953048  0.05413054  1  0.16666  0  0.129924  0.091521  0  1.017018  0
H  H28  1  0.70269725  0.15240319  0.43088491  1  0.173934  0  0.149343  0.121357  0  0.964706  0
H  H29  1  0.29729604  0.65241315  0.06913097  1  0.174174  0  0.149421  0.121481  0  0.964717  0
H  H30  1  0.29729457  0.84759830  0.56912835  1  0.17396  0  0.149397  0.121473  0  0.964697  0
H  H31  1  0.70269408  0.34759543  0.93087384  1  0.173774  0  0.149398  0.12148  0  0.964647  0
H  H32  1  0.64906990  0.97931845  0.80457645  1  0.078027  0  0.105176  0.09339  0  0.973015  0
H  H33  1  0.35094822  0.47933377  0.69542086  1  0.078557  0  0.105194  0.093485  0  0.97296  0
H  H34  1  0.35094637  0.02067911  0.19542309  1  0.078055  0  0.10522  0.093397  0  0.973054  0
H  H35  1  0.64906351  0.52066535  0.30458171  1  0.078134  0  0.10518  0.093483  0  0.9729  0
H  H36  1  0.69514483  0.80791021  0.90516129  1  -0.0032  0  0.082095  0.070472  0  0.995856  0
H  H37  1  0.30485913  0.30791321  0.59485441  1  -0.002421  0  0.08204  0.070321  0  0.995828  0
H  H38  1  0.30485599  0.19209207  0.09485150  1  -0.002421  0  0.082051  0.07036  0  0.995823  0
H  H39  1  0.69515068  0.69208041  0.40515932  1  -0.002897  0  0.08208  0.070369  0  0.995919  0
H  H40  1  0.83562511  0.79112261  0.01787630  1  0.023806  0  0.08083  0.073848  0  1.045004  0
H  H41  1  0.16437514  0.29111571  0.48214780  1  0.02409  0  0.080713  0.073673  0  1.045063  0
H  H42  1  0.16437025  0.20888203  0.98214265  1  0.024092  0  0.080727  0.073764  0  1.04492  0
H  H43  1  0.83563011  0.70887082  0.51787107  1  0.023826  0  0.080769  0.073766  0  1.044993  0
H  H44  1  0.59702173  0.11882579  0.88758169  1  0.063574  0  0.102437  0.079052  0  1.009191  0
H  H45  1  0.40299181  0.61882654  0.61239270  1  0.057411  0  0.102448  0.079062  0  1.009056  0
H  H46  1  0.40298127  0.88118043  0.11239823  1  0.057536  0  0.102427  0.078929  0  1.009139  0
H  H47  1  0.59702270  0.38115920  0.38760259  1  0.063713  0  0.102499  0.079183  0  1.009101  0
H  H48  1  0.58979651  0.01664905  0.03392239  1  0.035178  0  0.089523  0.084289  0  1.047829  0
H  H49  1  0.41020545  0.51662559  0.46606081  1  0.034741  0  0.08948  0.084201  0  1.048006  0
H  H50  1  0.41020458  0.98337607  0.96606729  1  0.03474  0  0.089495  0.084261  0  1.047935  0
H  H51  1  0.58979114  0.48335227  0.53392910  1  0.034998  0  0.089492  0.084249  0  1.047882  0
H  H52  1  0.54523387  0.94294499  0.91537344  1  -0.002004  0  0.09155  0.090379  0  0.983011  0
H  H53  1  0.45476839  0.44293707  0.58461591  1  -0.001609  0  0.091547  0.090336  0  0.983061  0
H  H54  1  0.45476449  0.05706910  0.08461862  1  -0.001844  0  0.091511  0.090319  0  0.983017  0
H  H55  1  0.54523536  0.55704552  0.41537769  1  -0.002056  0  0.091527  0.090377  0  0.982938  0
H  H56  1  0.85157527  0.90000747  0.87774362  1  0.01172  0  0.084017  0.077076  0  1.013128  0
H  H57  1  0.14843761  0.40002542  0.62226996  1  0.011695  0  0.084058  0.077128  0  1.013199  0
H  H58  1  0.14844256  0.09998221  0.12227697  1  0.011628  0  0.08403  0.077079  0  1.013262  0
H  H59  1  0.85157307  0.59997607  0.37774624  1  0.011913  0  0.08407  0.077216  0  1.013136  0
H  H60  1  0.89840205  0.97149938  0.99648070  1  0.063043  0  0.091673  0.099561  0  0.991597  0
H  H61  1  0.10160954  0.47150151  0.50352515  1  0.06283  0  0.091713  0.099662  0  0.991628  0
H  H62  1  0.10160414  0.02849975  0.00353503  1  0.062933  0  0.091661  0.099628  0  0.991635  0
H  H63  1  0.89839761  0.52848501  0.49648466  1  0.063053  0  0.091681  0.099638  0  0.991558  0
H  H64  1  0.78963804  0.93029460  0.11411239  1  0.041624  0  0.08193  0.079153  0  1.013326  0
H  H65  1  0.21035880  0.43026987  0.38588253  1  0.041689  0  0.081951  0.079107  0  1.013305  0
H  H66  1  0.21035661  0.06972186  0.88588938  1  0.041757  0  0.081938  0.0792  0  1.013288  0
H  H67  1  0.78963585  0.56971193  0.61411924  1  0.041619  0  0.081943  0.079125  0  1.013306  0
H  H68  1  0.67584778  0.83353407  0.06933021  1  0.010972  0  0.085424  0.076635  0  0.984921  0
H  H69  1  0.32415072  0.33350983  0.43067899  1  0.011021  0  0.085466  0.07663  0  0.984948  0
H  H70  1  0.32414682  0.16648790  0.93067577  1  0.011018  0  0.085446  0.076644  0  0.98499  0
H  H71  1  0.67584394  0.66647118  0.56932208  1  0.011201  0  0.085399  0.076588  0  0.984911  0
H  H72  1  0.79825898  0.98151622  0.27283566  1  0.119485  0  0.115832  0.1047  0  0.996718  0
H  H73  1  0.20172618  0.48150962  0.22716201  1  0.119388  0  0.115883  0.104749  0  0.996809  0
H  H74  1  0.20173296  0.01849866  0.72716709  1  0.119371  0  0.115852  0.104699  0  0.996823  0
H  H75  1  0.79826579  0.51849266  0.77283794  1  0.119536  0  0.115863  0.104777  0  0.996692  0
H  H76  1  0.69197317  0.07810476  0.26421125  1  0.118153  0  0.12484  0.121335  0  0.956798  0
H  H77  1  0.30801790  0.57809959  0.23580034  1  0.118294  0  0.124862  0.121302  0  0.956901  0
H  H78  1  0.30801601  0.92190619  0.73579738  1  0.11833  0  0.124762  0.121214  0  0.956809  0
H  H79  1  0.69197403  0.42190111  0.76420311  1  0.11797  0  0.12485  0.121373  0  0.95676  0
H  H80  1  0.59379018  0.90972659  0.17982405  1  0.03484  0  0.100681  0.062906  0  1.009236  0
H  H81  1  0.40618647  0.40970982  0.32017234  1  0.03486  0  0.100677  0.06284  0  1.009313  0
H  H82  1  0.40620095  0.09029301  0.82017062  1  0.034909  0  0.100698  0.063016  0  1.009143  0
H  H83  1  0.59380193  0.59028537  0.67982472  1  0.034812  0  0.100704  0.063003  0  1.009066  0
H  H84  1  0.68203985  0.83931921  0.29993690  1  0.030908  0  0.092983  0.049102  0  1.005466  0
H  H85  1  0.31793474  0.33932300  0.20004753  1  0.056483  0  0.092971  0.049138  0  1.005499  0
H  H86  1  0.31795229  0.16068464  0.70004834  1  0.031357  0  0.092995  0.049172  0  1.005612  0
H  H87  1  0.68205375  0.66068243  0.79994182  1  0.030819  0  0.092977  0.049138  0  1.005466  0
C  C88  1  0.88971923  0.98230123  0.58765784  1  0.477988  0  0.078559  -0.033905  0  4.023563  0
C  C89  1  0.11027819  0.48230845  0.91234559  1  0.477779  0  0.078584  -0.03394  0  4.02348  0
C  C90  1  0.11027365  0.01769553  0.41234178  1  0.478039  0  0.078578  -0.033837  0  4.023633  0
C  C91  1  0.88971830  0.51769462  0.08765273  1  0.477817  0  0.078567  -0.033903  0  4.023565  0
C  C92  1  0.00706288  0.81677022  0.56188593  1  1.053272  0  0.168619  0.23824  0  4.01764  0
C  C93  1  0.99292622  0.31677672  0.93810665  1  1.053008  0  0.168603  0.238342  0  4.017433  0
C  C94  1  0.99292201  0.18322497  0.43810402  1  1.053183  0  0.168739  0.238476  0  4.01711  0
C  C95  1  0.00706937  0.68322871  0.06189199  1  1.052902  0  0.168669  0.238383  0  4.017672  0
C  C96  1  0.96483626  0.92111532  0.67788244  1  1.068456  0  0.242396  0.414046  0  4.103613  0
C  C97  1  0.03516185  0.42112701  0.82211930  1  1.069017  0  0.242394  0.414034  0  4.10372  0
C  C98  1  0.03516109  0.07887436  0.32211905  1  1.068218  0  0.242352  0.414022  0  4.10354  0
C  C99  1  0.96483819  0.57887448  0.17788331  1  1.069075  0  0.242459  0.41413  0  4.103658  0
C  C100  1  0.76394044  0.08800349  0.47050413  1  1.011592  0  0.172687  0.149881  0  3.889279  0
C  C101  1  0.23606604  0.58801390  0.02951388  1  1.010992  0  0.172457  0.149598  0  3.888992  0
C  C102  1  0.23605859  0.91199485  0.52950861  1  1.011473  0  0.172469  0.149501  0  3.889084  0
C  C103  1  0.76392948  0.41199232  0.97049107  1  1.011479  0  0.172549  0.14964  0  3.888832  0
C  C104  1  0.72517388  0.01908338  0.87077844  1  -0.024781  0  -0.09093  -0.130773  0  3.877276  0
C  C105  1  0.27484389  0.51909328  0.62921694  1  -0.025689  0  -0.0909  -0.130929  0  3.877502  0
C  C106  1  0.27484150  0.98091417  0.12922072  1  -0.024831  0  -0.090919  -0.130864  0  3.877589  0
C  C107  1  0.72516605  0.48090269  0.37078558  1  -0.025434  0  -0.090881  -0.131037  0  3.877641  0
C  C108  1  0.76708367  0.84975930  0.97283729  1  -0.023492  0  -0.172739  -0.138768  0  3.946253  0
C  C109  1  0.23291750  0.34975682  0.52717504  1  -0.023837  0  -0.172431  -0.138133  0  3.945901  0
C  C110  1  0.23291539  0.15024534  0.02717265  1  -0.0238  0  -0.17249  -0.138317  0  3.945863  0
C  C111  1  0.76708693  0.65023128  0.47283645  1  -0.023243  0  -0.17266  -0.138489  0  3.945961  0
C  C112  1  0.67149856  0.06688453  0.93868394  1  0.003267  0  -0.088243  -0.120885  0  3.870823  0
C  C113  1  0.32851394  0.56687770  0.56129858  1  0.009395  0  -0.088302  -0.120918  0  3.871105  0
C  C114  1  0.32850706  0.93312562  0.06130341  1  0.009758  0  -0.088237  -0.120572  0  3.87076  0
C  C115  1  0.67149695  0.43310804  0.43869942  1  0.003088  0  -0.088318  -0.12108  0  3.871449  0
C  C116  1  0.62222403  0.98006144  0.98246281  1  0.01023  0  -0.169535  -0.172268  0  3.933616  0
C  C117  1  0.37777715  0.48004549  0.51752250  1  0.010371  0  -0.169556  -0.172208  0  3.93387  0
C  C118  1  0.37777524  0.01995580  0.01752823  1  0.010306  0  -0.169542  -0.172246  0  3.93365  0
C  C119  1  0.62222391  0.51993553  0.48246999  1  0.010288  0  -0.169527  -0.172246  0  3.93358  0
C  C120  1  0.87478082  0.94764364  0.48870948  1  0.902576  0  0.218371  0.234136  0  4.072463  0
C  C121  1  0.12521089  0.44764957  0.01129100  1  0.902357  0  0.218272  0.234078  0  4.072747  0
C  C122  1  0.12520668  0.05235548  0.51128860  1  0.90205  0  0.218319  0.233993  0  4.072751  0
C  C123  1  0.87478380  0.55235350  0.98870797  1  0.902731  0  0.218303  0.234138  0  4.072642  0
C  C124  1  0.76004535  0.10524895  0.81615809  1  1.542442  0  0.201347  0.592611  0  4.156455  0
C  C125  1  0.23998214  0.60526559  0.68383411  1  1.54272  0  0.20141  0.592858  0  4.15636  0
C  C126  1  0.23998886  0.89474230  0.18384682  1  1.541798  0  0.201368  0.592838  0  4.156398  0
C  C127  1  0.76002694  0.39473275  0.31616453  1  1.542968  0  0.201446  0.592957  0  4.156387  0
C  C128  1  0.81978141  0.93526421  0.93075142  1  -0.030789  0  -0.170865  -0.154808  0  3.908264  0
C  C129  1  0.18022771  0.43527290  0.56925419  1  -0.030457  0  -0.17095  -0.155053  0  3.908329  0
C  C130  1  0.18022573  0.06473334  0.06925979  1  -0.030607  0  -0.170838  -0.154948  0  3.9083  0
C  C131  1  0.81978034  0.56472072  0.43075599  1  -0.031019  0  -0.170877  -0.154958  0  3.908216  0
C  C132  1  0.71589148  0.89611132  0.04227468  1  -0.042395  0  -0.172886  -0.14178  0  3.952145  0
C  C133  1  0.28410379  0.39609201  0.45772458  1  -0.043236  0  -0.17299  -0.141845  0  3.952101  0
C  C134  1  0.28410318  0.10390593  0.95772639  1  -0.043309  0  -0.172972  -0.141978  0  3.952277  0
C  C135  1  0.71589265  0.60388979  0.54227794  1  -0.042898  0  -0.172854  -0.141698  0  3.951844  0
C  C136  1  0.75539657  0.13947704  0.02755996  1  1.509451  0  0.198026  0.578726  0  4.146879  0
C  C137  1  0.24461580  0.63946483  0.47241887  1  1.509491  0  0.197807  0.578388  0  4.147568  0
C  C138  1  0.24459918  0.86053784  0.97242468  1  1.509247  0  0.197816  0.578301  0  4.147372  0
C  C139  1  0.75539329  0.36052169  0.52757977  1  1.509975  0  0.197736  0.578398  0  4.147336  0
C  C140  1  0.73199328  0.00200168  0.29961275  1  0.273978  0  -0.049682  -0.091024  0  3.85089  0
C  C141  1  0.26799737  0.50199997  0.20039111  1  0.27488  0  -0.049763  -0.091005  0  3.85114  0
C  C142  1  0.26799776  0.99800769  0.70038963  1  0.274954  0  -0.04968  -0.090779  0  3.850931  0
C  C143  1  0.73199370  0.49800231  0.79960917  1  0.27461  0  -0.049787  -0.091202  0  3.851045  0
C  C144  1  0.63759241  0.91541272  0.26728523  1  0.477791  0  -0.073639  0.057888  0  3.959388  0
C  C145  1  0.36238972  0.41541092  0.23271344  1  0.452035  0  -0.073655  0.0579  0  3.959357  0
C  C146  1  0.36240051  0.08459428  0.73271019  1  0.477151  0  -0.073647  0.057593  0  3.959551  0
C  C147  1  0.63760048  0.58459294  0.76728436  1  0.477972  0  -0.07364  0.057785  0  3.95913  0
N  N148  1  0.93333307  0.86645917  0.47207175  1  -1.258144  0  -0.324682  -0.374076  0  3.384832  0
N  N149  1  0.06665181  0.36646649  0.02792324  1  -1.257682  0  -0.324573  -0.373993  0  3.384698  0
N  N150  1  0.06664999  0.13353917  0.52792096  1  -1.257604  0  -0.324674  -0.374049  0  3.384522  0
N  N151  1  0.93334109  0.63354209  0.97207428  1  -1.257977  0  -0.324653  -0.374079  0  3.384666  0
N  N152  1  0.02377036  0.83853707  0.66056647  1  -1.235898  0  -0.346164  -0.421144  0  3.413021  0
N  N153  1  0.97622450  0.33854642  0.83942918  1  -1.236277  0  -0.346188  -0.421212  0  3.413038  0
N  N154  1  0.97621810  0.16145260  0.33942568  1  -1.235925  0  -0.346188  -0.421263  0  3.412848  0
N  N155  1  0.02377289  0.66145901  0.16056881  1  -1.236277  0  -0.346217  -0.421256  0  3.413134  0
N  N156  1  0.82067549  0.07162167  0.57450250  1  -1.179911  0  -0.339795  -0.315036  0  3.3969  0
N  N157  1  0.17932600  0.57163517  0.92550637  1  -1.179368  0  -0.339701  -0.314839  0  3.396288  0
N  N158  1  0.17932181  0.92837352  0.42550389  1  -1.179553  0  -0.339779  -0.314937  0  3.396541  0
N  N159  1  0.82067045  0.42837184  0.07449545  1  -1.179422  0  -0.339739  -0.314888  0  3.396529  0
N  N160  1  0.79293702  0.01541968  0.41478637  1  -1.23305  0  -0.231907  -0.033325  0  3.690046  0
N  N161  1  0.20705745  0.51542283  0.08521976  1  -1.23362  0  -0.231841  -0.033358  0  3.690128  0
N  N162  1  0.20705311  0.98458417  0.58521704  1  -1.233756  0  -0.231763  -0.033228  0  3.689971  0
N  N163  1  0.79293720  0.48458339  0.91478201  1  -1.233643  0  -0.231791  -0.033336  0  3.690204  0
N  N164  1  0.97740605  0.93776425  0.77489292  1  -1.33211  0  -0.560761  -0.597831  0  3.372207  0
N  N165  1  0.02259328  0.43777888  0.72510789  1  -1.332535  0  -0.560717  -0.597816  0  3.371936  0
N  N166  1  0.02259315  0.06222070  0.22510512  1  -1.332121  0  -0.560642  -0.59777  0  3.371788  0
N  N167  1  0.97740680  0.56222418  0.27489122  1  -1.332155  0  -0.560795  -0.597878  0  3.372173  0
O  O168  1  0.85840665  0.16361338  0.03846378  1  -1.196961  0  -0.326004  -0.570711  0  2.207862  0
O  O169  1  0.14161401  0.66361826  0.46153605  1  -1.196576  0  -0.325938  -0.570551  0  2.207915  0
O  O170  1  0.14160948  0.83637866  0.96154766  1  -1.1968  0  -0.325857  -0.570413  0  2.208025  0
O  O171  1  0.85839953  0.33637614  0.53846587  1  -1.196692  0  -0.325941  -0.570558  0  2.207581  0
O  O172  1  0.05968003  0.18380400  0.71347784  1  -1.222475  0  -0.57981  -0.739351  0  2.113959  0
O  O173  1  0.94032007  0.68380427  0.78651824  1  -1.222454  0  -0.57981  -0.739225  0  2.113935  0
O  O174  1  0.94031738  0.81619513  0.28651945  1  -1.222422  0  -0.579823  -0.739309  0  2.113772  0
O  O175  1  0.05967912  0.31619328  0.21347980  1  -1.222366  0  -0.579859  -0.739212  0  2.113954  0
O  O176  1  0.68665919  0.17792393  0.76852839  1  -1.195134  0  -0.339305  -0.577205  0  2.087808  0
O  O177  1  0.31337164  0.67795451  0.73144604  1  -1.195093  0  -0.33927  -0.577305  0  2.087869  0
O  O178  1  0.31337610  0.82206181  0.23145938  1  -1.194541  0  -0.339231  -0.577268  0  2.088103  0
O  O179  1  0.68664199  0.32204934  0.26854887  1  -1.195124  0  -0.339334  -0.577365  0  2.087988  0
O  O180  1  0.86344569  0.09840411  0.81726231  1  -1.172212  0  -0.333736  -0.559226  0  2.311874  0
O  O181  1  0.13659577  0.59841473  0.68275614  1  -1.172281  0  -0.333911  -0.55941  0  2.311836  0
O  O182  1  0.13659818  0.90159029  0.18276282  1  -1.17234  0  -0.333876  -0.559448  0  2.311584  0
O  O183  1  0.86341865  0.40158597  0.31724755  1  -1.172402  0  -0.333876  -0.559387  0  2.311687  0
O  O184  1  0.55565263  0.94242172  0.30642431  1  -1.145711  0  -0.417771  -0.492704  0  2.24863  0
O  O185  1  0.44433892  0.44242231  0.19358174  1  -1.146077  0  -0.417799  -0.4928  0  2.248398  0
O  O186  1  0.44434116  0.05757584  0.69357428  1  -1.146171  0  -0.417811  -0.492775  0  2.248462  0
O  O187  1  0.55565395  0.55758469  0.80641859  1  -1.145902  0  -0.417794  -0.492638  0  2.248624  0
O  O188  1  0.71457278  0.17577630  0.08873994  1  -1.141215  0  -0.339767  -0.55041  0  2.215434  0
O  O189  1  0.28541531  0.67574356  0.41121672  1  -1.141761  0  -0.339608  -0.550243  0  2.215724  0
O  O190  1  0.28539634  0.82426851  0.91121318  1  -1.141357  0  -0.339736  -0.550322  0  2.215577  0
O  O191  1  0.71459202  0.32423903  0.58877768  1  -1.141852  0  -0.339627  -0.55025  0  2.215811  0
