# generated using pymatgen
data_Cu2H18C17(IN3)2
_symmetry_space_group_name_H-M   'P 1'
_cell_length_a   8.38842556
_cell_length_b   10.03874921
_cell_length_c   13.57281336
_cell_angle_alpha   75.83891912
_cell_angle_beta   74.53230225
_cell_angle_gamma   66.42589008
_symmetry_Int_Tables_number   1
_chemical_formula_structural   Cu2H18C17(IN3)2
_chemical_formula_sum   'Cu4 H36 C34 I4 N12'
_cell_volume   997.23357492
_cell_formula_units_Z   2
loop_
 _symmetry_equiv_pos_site_id
 _symmetry_equiv_pos_as_xyz
  1  'x, y, z'
loop_
 _atom_site_type_symbol
 _atom_site_label
 _atom_site_symmetry_multiplicity
 _atom_site_fract_x
 _atom_site_fract_y
 _atom_site_fract_z
 _atom_site_occupancy
 _atom_site_hle17_bader_spin_density
 _atom_site_hle17_ddec_charge
 _atom_site_hle17_ddec_spin_density
 _atom_site_hle17_ddec_sum_bond_order
 _atom_site_hle17_magmom
 _atom_site_hse06_10hf_bader_spin_density
 _atom_site_hse06_10hf_ddec_charge
 _atom_site_hse06_10hf_ddec_spin_density
 _atom_site_hse06_10hf_ddec_sum_bond_order
 _atom_site_hse06_10hf_magmom
 _atom_site_hse06_bader_spin_density
 _atom_site_hse06_ddec_charge
 _atom_site_hse06_ddec_spin_density
 _atom_site_hse06_ddec_sum_bond_order
 _atom_site_hse06_magmom
 _atom_site_pbe_bader_spin_density
 _atom_site_pbe_cm5_charge
 _atom_site_pbe_ddec_charge
 _atom_site_pbe_ddec_spin_density
 _atom_site_pbe_ddec_sum_bond_order
 _atom_site_pbe_magmom
Cu  Cu0  1  0.59475845  0.08007101  0.46371476  1  0  0.233634  0  2.250122  0  0  0.163745  0  2.720038  0  0  0.177504  0  2.662985  0  0  0.249524  0.156815  0  2.757509  0
Cu  Cu1  1  0.40525026  0.91991873  0.53628587  1  0  0.233643  0  2.250098  0  0  0.163735  0  2.720046  0  0  0.177502  0  2.662964  0  0  0.24949  0.156885  0  2.757476  0
Cu  Cu2  1  0.29313907  0.09220843  0.68135364  1  0  0.285075  0  2.146746  0  0  0.182295  0  2.642792  0  0  0.184799  0  2.594109  0  0  0.374348  0.183475  0  2.672162  0
Cu  Cu3  1  0.70686601  0.90778682  0.31864366  1  0  0.284977  0  2.1468  0  0  0.182163  0  2.642883  0  0  0.184674  0  2.594201  0  0  0.374327  0.183548  0  2.672308  0
H  H4  1  0.61881345  0.39005462  0.32382092  1  0  0.104875  0  0.967277  0  0  0.112164  0  1.035454  0  0  0.116055  0  1.03254  0  0  0.097787  0.10949  0  1.037387  0
H  H5  1  0.38120342  0.60993621  0.67618407  1  0  0.104855  0  0.967326  0  0  0.112215  0  1.035411  0  0  0.116104  0  1.032496  0  0  0.097804  0.109537  0  1.037338  0
H  H6  1  0.51361379  0.66562001  0.26462176  1  0  0.087611  0  0.968415  0  0  0.091057  0  1.04445  0  0  0.094668  0  1.042063  0  0  0.094831  0.088487  0  1.046191  0
H  H7  1  0.48639842  0.33437302  0.73538287  1  0  0.08763  0  0.96829  0  0  0.091073  0  1.044331  0  0  0.094689  0  1.041939  0  0  0.094807  0.088492  0  1.046095  0
H  H8  1  0.23894505  0.83030051  0.35894252  1  0  0.088177  0  1.001358  0  0  0.097254  0  1.067452  0  0  0.100813  0  1.065272  0  0  0.079558  0.095036  0  1.068205  0
H  H9  1  0.76106607  0.16970354  0.64105959  1  0  0.088121  0  1.001546  0  0  0.097205  0  1.067618  0  0  0.100773  0  1.065408  0  0  0.079565  0.094993  0  1.068365  0
H  H10  1  0.05495213  0.73643731  0.51163520  1  0  0.118254  0  0.958189  0  0  0.121685  0  1.029644  0  0  0.125966  0  1.027455  0  0  0.097015  0.11912  0  1.030577  0
H  H11  1  0.94506208  0.26355684  0.48836670  1  0  0.118186  0  0.95818  0  0  0.121633  0  1.029636  0  0  0.125909  0  1.027454  0  0  0.096988  0.119097  0  1.030514  0
H  H12  1  0.01710570  0.34932325  0.71310893  1  0  0.082417  0  0.926361  0  0  0.092337  0  1.002291  0  0  0.095338  0  0.998653  0  0  0.111713  0.09104  0  1.002963  0
H  H13  1  0.98291502  0.65065881  0.28689184  1  0  0.082371  0  0.926366  0  0  0.092356  0  1.002279  0  0  0.095362  0  0.998633  0  0  0.11171  0.091199  0  1.003026  0
H  H14  1  0.91051807  0.51967601  0.63814194  1  0  0.078631  0  0.933927  0  0  0.090907  0  1.001263  0  0  0.091486  0  1.00223  0  0  0.106678  0.090281  0  1.000671  0
H  H15  1  0.08949530  0.48031151  0.36186275  1  0  0.078744  0  0.933719  0  0  0.09099  0  1.001114  0  0  0.091571  0  1.002079  0  0  0.106761  0.090481  0  1.00067  0
H  H16  1  0.17446086  0.47395370  0.77302698  1  0  0.067769  0  0.959233  0  0  0.081259  0  1.030072  0  0  0.082082  0  1.029943  0  0  0.088697  0.080347  0  1.030553  0
H  H17  1  0.82554236  0.52603158  0.22698124  1  0  0.067749  0  0.959169  0  0  0.081203  0  1.030032  0  0  0.082026  0  1.029902  0  0  0.08869  0.080322  0  1.030506  0
H  H18  1  0.06565192  0.64328185  0.69797403  1  0  0.071786  0  0.96558  0  0  0.087128  0  1.034053  0  0  0.088325  0  1.034543  0  0  0.081387  0.086921  0  1.032164  0
H  H19  1  0.93437098  0.35669799  0.30203120  1  0  0.071849  0  0.965472  0  0  0.087187  0  1.033958  0  0  0.088393  0  1.034448  0  0  0.081428  0.087021  0  1.032032  0
H  H20  1  0.88867439  0.47084768  0.88142453  1  0  0.050417  0  0.959823  0  0  0.068859  0  1.023082  0  0  0.06915  0  1.023885  0  0  0.082506  0.068855  0  1.022095  0
H  H21  1  0.11132260  0.52915191  0.11857921  1  0  0.050399  0  0.959752  0  0  0.068836  0  1.023071  0  0  0.069122  0  1.023874  0  0  0.082517  0.068849  0  1.022046  0
H  H22  1  0.77127536  0.62726851  0.79977796  1  0  0.063901  0  0.951673  0  0  0.083663  0  1.011273  0  0  0.084829  0  1.01154  0  0  0.079785  0.08257  0  1.011426  0
H  H23  1  0.22874269  0.37271686  0.20021898  1  0  0.06392  0  0.951519  0  0  0.083686  0  1.011168  0  0  0.08485  0  1.011436  0  0  0.079776  0.082611  0  1.011281  0
H  H24  1  0.00986146  0.61955293  0.93962390  1  0  0.064674  0  0.934346  0  0  0.085721  0  0.992184  0  0  0.085864  0  0.993545  0  0  0.089035  0.08546  0  0.991468  0
H  H25  1  0.99013648  0.38044445  0.06038229  1  0  0.064715  0  0.934338  0  0  0.085755  0  0.992153  0  0  0.085895  0  0.993508  0  0  0.089062  0.085497  0  0.991432  0
H  H26  1  0.93362545  0.76926615  0.84225751  1  0  0.076099  0  0.960603  0  0  0.091308  0  1.028545  0  0  0.092817  0  1.028506  0  0  0.083114  0.090255  0  1.028325  0
H  H27  1  0.06638725  0.23072582  0.15773765  1  0  0.076147  0  0.960571  0  0  0.091344  0  1.028489  0  0  0.092841  0  1.028464  0  0  0.08312  0.090296  0  1.028265  0
H  H28  1  0.61915418  0.79572196  0.92510148  1  0  0.078331  0  0.93747  0  0  0.091204  0  1.006705  0  0  0.091486  0  1.00794  0  0  0.10709  0.090791  0  1.00722  0
H  H29  1  0.38084873  0.20429536  0.07488413  1  0  0.078348  0  0.937446  0  0  0.091179  0  1.006713  0  0  0.091473  0  1.007959  0  0  0.10706  0.090762  0  1.007228  0
H  H30  1  0.69317204  0.64905697  0.02579747  1  0  0.079147  0  0.912273  0  0  0.09737  0  0.971201  0  0  0.098149  0  0.970576  0  0  0.116745  0.096765  0  0.972778  0
H  H31  1  0.30681096  0.35094923  0.97419855  1  0  0.079146  0  0.912316  0  0  0.097382  0  0.971213  0  0  0.09817  0  0.970592  0  0  0.116758  0.096762  0  0.972805  0
H  H32  1  0.72961956  0.03561706  0.82997376  1  0  0.113366  0  0.962764  0  0  0.120091  0  1.030244  0  0  0.12366  0  1.028328  0  0  0.098331  0.117285  0  1.031764  0
H  H33  1  0.27033696  0.96440444  0.17003123  1  0  0.113486  0  0.962707  0  0  0.120179  0  1.03023  0  0  0.123748  0  1.028314  0  0  0.098341  0.117371  0  1.031752  0
H  H34  1  0.73512805  0.28297207  0.82567011  1  0  0.086711  0  0.969583  0  0  0.100854  0  1.027012  0  0  0.102615  0  1.027203  0  0  0.098688  0.099308  0  1.027144  0
H  H35  1  0.26481400  0.71705714  0.17432629  1  0  0.086641  0  0.969806  0  0  0.100762  0  1.027245  0  0  0.102537  0  1.027401  0  0  0.098547  0.099187  0  1.027423  0
H  H36  1  0.73501446  0.36310457  0.98391623  1  0  0.080751  0  0.971392  0  0  0.093133  0  1.03063  0  0  0.096013  0  1.029322  0  0  0.094784  0.091129  0  1.0317  0
H  H37  1  0.26494083  0.63691695  0.01608232  1  0  0.080741  0  0.971235  0  0  0.093199  0  1.030394  0  0  0.09609  0  1.02907  0  0  0.094817  0.091163  0  1.031499  0
H  H38  1  0.73948783  0.19439385  0.15464215  1  0  0.106407  0  0.980469  0  0  0.113183  0  1.047506  0  0  0.116794  0  1.044825  0  0  0.093672  0.110129  0  1.050213  0
H  H39  1  0.26049181  0.80562004  0.84535599  1  0  0.106455  0  0.980357  0  0  0.113203  0  1.047416  0  0  0.116811  0  1.044742  0  0  0.093736  0.110149  0  1.050129  0
C  C40  1  0.39731884  0.41315817  0.45247014  1  0  0.111427  0  3.833146  0  0  0.109266  0  4.083066  0  0  0.107935  0  4.106168  0  0  0.091847  0.109201  0  4.067629  0
C  C41  1  0.60269214  0.58683487  0.54753174  1  0  0.111451  0  3.833285  0  0  0.109187  0  4.083346  0  0  0.107855  0  4.106452  0  0  0.091798  0.109203  0  4.06818  0
C  C42  1  0.49799039  0.46620728  0.36313759  1  0  -0.122803  0  3.730741  0  0  -0.142503  0  3.980704  0  0  -0.141989  0  3.998201  0  0  -0.089902  -0.141415  0  3.967938  0
C  C43  1  0.50202999  0.53378691  0.63685886  1  0  -0.122811  0  3.731003  0  0  -0.142535  0  3.980959  0  0  -0.142016  0  3.998462  0  0  -0.089875  -0.141344  0  3.968127  0
C  C44  1  0.43726964  0.61720881  0.33128601  1  0  -0.081573  0  3.764314  0  0  -0.098877  0  4.022904  0  0  -0.102137  0  4.043698  0  0  -0.099934  -0.096878  0  4.008101  0
C  C45  1  0.56273900  0.38279522  0.66871872  1  0  -0.081542  0  3.764037  0  0  -0.09885  0  4.02265  0  0  -0.102113  0  4.043439  0  0  -0.0999  -0.09684  0  4.007844  0
C  C46  1  0.27975620  0.71202889  0.38518472  1  0  -0.0416  0  3.735588  0  0  -0.061346  0  3.990363  0  0  -0.060157  0  4.00846  0  0  -0.092272  -0.060474  0  3.976116  0
C  C47  1  0.72026376  0.28797187  0.61482095  1  0  -0.041514  0  3.735505  0  0  -0.061257  0  3.99027  0  0  -0.06006  0  4.008368  0  0  -0.092203  -0.060346  0  3.975935  0
C  C48  1  0.17600649  0.66064876  0.47208829  1  0  -0.139851  0  3.713678  0  0  -0.156651  0  3.972218  0  0  -0.160176  0  3.989475  0  0  -0.093146  -0.15496  0  3.9603  0
C  C49  1  0.82401465  0.33934653  0.52791153  1  0  -0.139808  0  3.713508  0  0  -0.156649  0  3.97209  0  0  -0.160172  0  3.989342  0  0  -0.093173  -0.154755  0  3.960377  0
C  C50  1  0.23909817  0.50817809  0.50539174  1  0  0.096233  0  3.788981  0  0  0.081152  0  4.03611  0  0  0.085646  0  4.057872  0  0  0.105617  0.077302  0  4.022634  0
C  C51  1  0.76091782  0.49182048  0.49460760  1  0  0.096178  0  3.789061  0  0  0.081159  0  4.036164  0  0  0.085653  0  4.057924  0  0  0.105673  0.076016  0  4.02369  0
C  C52  1  0.02984625  0.45443355  0.67160466  1  0  -0.000677  0  3.620631  0  0  -0.063406  0  3.883647  0  0  -0.059719  0  3.893464  0  0  -0.048819  -0.065914  0  3.876692  0
C  C53  1  0.97016219  0.54555396  0.32840010  1  0  -0.000832  0  3.620604  0  0  -0.063685  0  3.883837  0  0  -0.060014  0  3.893681  0  0  -0.048915  -0.067533  0  3.877876  0
C  C54  1  0.05236959  0.53955511  0.74262554  1  0  -0.135718  0  3.690822  0  0  -0.176693  0  3.947794  0  0  -0.178704  0  3.962056  0  0  -0.171365  -0.175334  0  3.937851  0
C  C55  1  0.94763905  0.46042909  0.25738199  1  0  -0.135691  0  3.690488  0  0  -0.176564  0  3.947489  0  0  -0.178581  0  3.961758  0  0  -0.171405  -0.175118  0  3.937813  0
C  C56  1  0.89408473  0.57423868  0.83160126  1  0  -0.097756  0  3.689728  0  0  -0.131579  0  3.939694  0  0  -0.132939  0  3.954581  0  0  -0.168842  -0.130554  0  3.929208  0
C  C57  1  0.10592206  0.42575543  0.16840333  1  0  -0.097674  0  3.689234  0  0  -0.131588  0  3.939277  0  0  -0.13296  0  3.954183  0  0  -0.168856  -0.130476  0  3.928662  0
C  C58  1  0.90239596  0.67680335  0.89513209  1  0  -0.12865  0  3.679208  0  0  -0.169249  0  3.939681  0  0  -0.171043  0  3.953074  0  0  -0.167251  -0.167956  0  3.932113  0
C  C59  1  0.09760425  0.32319736  0.10487093  1  0  -0.128802  0  3.679241  0  0  -0.169321  0  3.939635  0  0  -0.171079  0  3.952999  0  0  -0.167217  -0.168009  0  3.932033  0
C  C60  1  0.72718875  0.73690741  0.96889420  1  0  -0.007967  0  3.640657  0  0  -0.075489  0  3.909306  0  0  -0.071125  0  3.919832  0  0  -0.047763  -0.086698  0  3.899899  0
C  C61  1  0.27279823  0.26310100  0.03110224  1  0  -0.008035  0  3.640855  0  0  -0.075514  0  3.909418  0  0  -0.071204  0  3.919994  0  0  -0.047804  -0.086696  0  3.900009  0
C  C62  1  0.73393191  0.97716434  0.99587313  1  0  0.092902  0  3.779479  0  0  0.076916  0  4.026601  0  0  0.081257  0  4.048716  0  0  0.103372  0.065374  0  4.009883  0
C  C63  1  0.26605802  0.02284297  0.00412597  1  0  0.092898  0  3.779527  0  0  0.076924  0  4.026627  0  0  0.081268  0  4.048741  0  0  0.103352  0.065395  0  4.009913  0
C  C64  1  0.73228629  0.06957311  0.89975425  1  0  -0.129655  0  3.721316  0  0  -0.149877  0  3.980097  0  0  -0.153167  0  3.999093  0  0  -0.091392  -0.147424  0  3.968726  0
C  C65  1  0.26767476  0.93045503  0.10024587  1  0  -0.129831  0  3.721226  0  0  -0.15005  0  3.980047  0  0  -0.153344  0  3.999042  0  0  -0.091411  -0.14759  0  3.968663  0
C  C66  1  0.73509627  0.20729966  0.89857687  1  0  -0.051465  0  3.751293  0  0  -0.069424  0  4.004865  0  0  -0.069969  0  4.026767  0  0  -0.089588  -0.068772  0  3.989585  0
C  C67  1  0.26485524  0.79271632  0.10142624  1  0  -0.051494  0  3.751125  0  0  -0.069429  0  4.004699  0  0  -0.069969  0  4.026605  0  0  -0.0895  -0.068757  0  3.989398  0
C  C68  1  0.73669762  0.25249940  0.98920907  1  0  -0.085284  0  3.783856  0  0  -0.101514  0  4.037607  0  0  -0.105372  0  4.06012  0  0  -0.098017  -0.099069  0  4.022209  0
C  C69  1  0.26325459  0.74753203  0.01078822  1  0  -0.085295  0  3.784208  0  0  -0.101586  0  4.037961  0  0  -0.105455  0  4.060472  0  0  -0.09814  -0.099109  0  4.022564  0
C  C70  1  0.73856814  0.16122142  0.08420387  1  0  -0.117389  0  3.738207  0  0  -0.135629  0  3.983924  0  0  -0.135774  0  4.00259  0  0  -0.089233  -0.135581  0  3.97205  0
C  C71  1  0.26142617  0.83878147  0.91580046  1  0  -0.11735  0  3.738214  0  0  -0.135573  0  3.98396  0  0  -0.135716  0  4.002638  0  0  -0.08921  -0.135525  0  3.972072  0
C  C72  1  0.73854130  0.02079308  0.08627732  1  0  0.108261  0  3.814457  0  0  0.108416  0  4.06064  0  0  0.107795  0  4.083025  0  0  0.08973  0.108075  0  4.048804  0
C  C73  1  0.26145536  0.97921868  0.91371620  1  0  0.108389  0  3.814075  0  0  0.108541  0  4.060227  0  0  0.107907  0  4.082624  0  0  0.089814  0.108198  0  4.048395  0
I  I74  1  0.89215307  0.05143856  0.34136972  1  0  -0.413791  0  1.569787  0  0  -0.362695  0  2.000281  0  0  -0.381074  0  1.965069  0  0  -0.201725  -0.352329  0  2.022076  0
I  I75  1  0.10784488  0.94855886  0.65862910  1  0  -0.413819  0  1.569712  0  0  -0.362731  0  2.000207  0  0  -0.381111  0  1.96498  0  0  -0.201727  -0.352378  0  2.02201  0
I  I76  1  0.64368546  0.91325465  0.64949994  1  0  -0.385738  0  1.509938  0  0  -0.338893  0  1.922614  0  0  -0.355139  0  1.888683  0  0  -0.198649  -0.328542  0  1.94454  0
I  I77  1  0.35631357  0.08673174  0.35050213  1  0  -0.385742  0  1.509952  0  0  -0.338822  0  1.922509  0  0  -0.355062  0  1.88858  0  0  -0.198631  -0.328459  0  1.944413  0
N  N78  1  0.42630454  0.27301149  0.50516413  1  0  -0.180099  0  3.29095  0  0  -0.135214  0  3.592343  0  0  -0.138607  0  3.594927  0  0  -0.252711  -0.133073  0  3.590587  0
N  N79  1  0.57371433  0.72698051  0.49483149  1  0  -0.180254  0  3.290863  0  0  -0.135355  0  3.592305  0  0  -0.138753  0  3.594897  0  0  -0.252811  -0.133088  0  3.590896  0
N  N80  1  0.29694118  0.27608789  0.58584310  1  0  -0.041692  0  3.177372  0  0  -0.013722  0  3.497499  0  0  -0.004379  0  3.493134  0  0  -0.139923  -0.020146  0  3.500342  0
N  N81  1  0.70307028  0.72390409  0.41415152  1  0  -0.041531  0  3.176984  0  0  -0.013515  0  3.497051  0  0  -0.004176  0  3.492689  0  0  -0.139842  -0.021139  0  3.500726  0
N  N82  1  0.18078633  0.41708980  0.58709002  1  0  0.004995  0  3.463762  0  0  0.085099  0  3.688884  0  0  0.073975  0  3.712545  0  0  -0.132206  0.092466  0  3.673266  0
N  N83  1  0.81922390  0.58290214  0.41291145  1  0  0.005077  0  3.463814  0  0  0.085182  0  3.688967  0  0  0.074068  0  3.712626  0  0  -0.132203  0.094442  0  3.673416  0
N  N84  1  0.73026681  0.83789103  0.02860927  1  0  0.003186  0  3.524493  0  0  0.085556  0  3.755707  0  0  0.073217  0  3.78104  0  0  -0.127593  0.119204  0  3.707066  0
N  N85  1  0.26972710  0.16211851  0.97138583  1  0  0.003107  0  3.524293  0  0  0.08548  0  3.755454  0  0  0.073154  0  3.780797  0  0  -0.127628  0.119098  0  3.706846  0
N  N86  1  0.73328967  0.79693070  0.13080638  1  0  -0.074146  0  2.859899  0  0  -0.072547  0  3.137505  0  0  -0.066698  0  3.146681  0  0  -0.074176  -0.085062  0  3.127104  0
N  N87  1  0.26671844  0.20306900  0.86918373  1  0  -0.074015  0  2.859861  0  0  -0.072454  0  3.137516  0  0  -0.066606  0  3.146684  0  0  -0.074133  -0.084973  0  3.127145  0
N  N88  1  0.73793167  0.90561463  0.16648196  1  0  -0.199135  0  3.283394  0  0  -0.156257  0  3.610933  0  0  -0.160027  0  3.612995  0  0  -0.241335  -0.154674  0  3.612737  0
N  N89  1  0.26207301  0.09438725  0.83351053  1  0  -0.19923  0  3.283592  0  0  -0.156335  0  3.611122  0  0  -0.16009  0  3.613176  0  0  -0.24137  -0.154766  0  3.61297  0
