# generated using pymatgen
data_ZnH12C16(NO)4
_symmetry_space_group_name_H-M   'P 1'
_cell_length_a   11.38155885
_cell_length_b   17.25200278
_cell_length_c   22.78370049
_cell_angle_alpha   90.00002125
_cell_angle_beta   90.00030605
_cell_angle_gamma   90.00202155
_symmetry_Int_Tables_number   1
_chemical_formula_structural   ZnH12C16(NO)4
_chemical_formula_sum   'Zn8 H96 C128 N32 O32'
_cell_volume   4473.68632500
_cell_formula_units_Z   8
loop_
 _symmetry_equiv_pos_site_id
 _symmetry_equiv_pos_as_xyz
  1  'x, y, z'
loop_
 _atom_site_type_symbol
 _atom_site_label
 _atom_site_symmetry_multiplicity
 _atom_site_fract_x
 _atom_site_fract_y
 _atom_site_fract_z
 _atom_site_occupancy
 _atom_site_pbe_bader_charge
 _atom_site_pbe_bader_spin_density
 _atom_site_pbe_cm5_charge
 _atom_site_pbe_ddec_charge
 _atom_site_pbe_ddec_spin_density
 _atom_site_pbe_ddec_sum_bond_order
 _atom_site_pbe_magmom
Zn  Zn0  1  0.27039448  0.32885934  0.36947373  1  1.245585  0  0.694791  0.760208  0  2.40023  0
Zn  Zn1  1  0.72961281  0.82884629  0.63052240  1  1.245608  0  0.69477  0.760411  0  2.39978  0
Zn  Zn2  1  0.22960784  0.82885012  0.36947591  1  1.245387  0  0.694788  0.760407  0  2.399673  0
Zn  Zn3  1  0.77038627  0.32885608  0.63053120  1  1.245507  0  0.694825  0.760367  0  2.399907  0
Zn  Zn4  1  0.18717984  0.50339836  0.86543609  1  1.248538  0  0.681982  0.762648  0  2.299547  0
Zn  Zn5  1  0.81280776  0.00339966  0.13455824  1  1.248148  0  0.681936  0.762612  0  2.299638  0
Zn  Zn6  1  0.31280724  0.00339630  0.86544060  1  1.248213  0  0.681968  0.762617  0  2.299445  0
Zn  Zn7  1  0.68718124  0.50339012  0.13456162  1  1.248432  0  0.681922  0.762608  0  2.29952  0
H  H8  1  0.65398246  0.21790296  0.29702858  1  0.112295  0  0.118929  0.123294  0  1.019667  0
H  H9  1  0.34603160  0.71786437  0.70296753  1  0.112516  0  0.118974  0.123377  0  1.019393  0
H  H10  1  0.84604616  0.71785509  0.29702536  1  0.112463  0  0.119069  0.123434  0  1.019286  0
H  H11  1  0.15398546  0.21789776  0.70296812  1  0.112483  0  0.118853  0.123221  0  1.019625  0
H  H12  1  0.27937987  0.47350635  0.20796575  1  0.052696  0  0.093771  0.106233  0  1.032045  0
H  H13  1  0.72060591  0.97351236  0.79203304  1  0.052738  0  0.093741  0.106229  0  1.032118  0
H  H14  1  0.22061239  0.97351260  0.20796659  1  0.052668  0  0.093744  0.106174  0  1.032114  0
H  H15  1  0.77938481  0.47351017  0.79203966  1  0.052636  0  0.093726  0.106233  0  1.032056  0
H  H16  1  0.87068896  0.24470512  0.44390580  1  0.190614  0  0.112188  0.134178  0  1.06697  0
H  H17  1  0.12931962  0.74471338  0.55610305  1  0.190768  0  0.112212  0.134178  0  1.066949  0
H  H18  1  0.62933313  0.74471927  0.44389498  1  0.190835  0  0.112192  0.13419  0  1.066818  0
H  H19  1  0.37067896  0.24472821  0.55609982  1  0.190792  0  0.112213  0.134359  0  1.066787  0
H  H20  1  0.17915945  0.20011908  0.29588107  1  0.139039  0  0.11714  0.095946  0  1.028847  0
H  H21  1  0.82084215  0.70010572  0.70411284  1  0.138763  0  0.117133  0.095751  0  1.028955  0
H  H22  1  0.32083376  0.70010370  0.29588876  1  0.138508  0  0.117155  0.095845  0  1.028969  0
H  H23  1  0.67915115  0.20010429  0.70411964  1  0.139109  0  0.117106  0.095806  0  1.028849  0
H  H24  1  0.19094369  0.51097657  0.63499372  1  0.101193  0  0.100322  0.096329  0  1.027212  0
H  H25  1  0.80903557  0.01098896  0.36500236  1  0.100898  0  0.100341  0.096336  0  1.027242  0
H  H26  1  0.30904575  0.01098313  0.63500130  1  0.101058  0  0.100311  0.096285  0  1.027193  0
H  H27  1  0.69093087  0.51100095  0.36500576  1  0.100633  0  0.100288  0.096234  0  1.027163  0
H  H28  1  0.30317330  0.62816653  0.78984800  1  0.125698  0  0.120848  0.10058  0  1.009745  0
H  H29  1  0.69682590  0.12816367  0.21015161  1  0.125704  0  0.120835  0.100576  0  1.009754  0
H  H30  1  0.19681842  0.12816316  0.78985002  1  0.125834  0  0.12084  0.100475  0  1.009723  0
H  H31  1  0.80316761  0.62816704  0.21014301  1  0.125829  0  0.120873  0.100591  0  1.009736  0
H  H32  1  0.54962350  0.13294134  0.46715444  1  0.127778  0  0.123912  0.137019  0  0.971764  0
H  H33  1  0.45034435  0.63293616  0.53282717  1  0.12736  0  0.124036  0.137128  0  0.971603  0
H  H34  1  0.95034492  0.63294555  0.46717169  1  0.12748  0  0.124065  0.137136  0  0.971633  0
H  H35  1  0.04960887  0.13292268  0.53284635  1  0.12729  0  0.123913  0.137056  0  0.971736  0
H  H36  1  0.25177969  0.32613821  0.13285806  1  0.146989  0  0.09999  0.082618  0  1.089529  0
H  H37  1  0.74822217  0.82613675  0.86712842  1  0.146906  0  0.100032  0.082738  0  1.089563  0
H  H38  1  0.24822609  0.82613693  0.13287170  1  0.146863  0  0.10005  0.082774  0  1.089507  0
H  H39  1  0.75179510  0.32613513  0.86713936  1  0.146681  0  0.100025  0.082743  0  1.089518  0
H  H40  1  0.98088058  0.55310946  0.78882667  1  0.158356  0  0.12279  0.0968  0  1.017995  0
H  H41  1  0.01912571  0.05310948  0.21117688  1  0.158218  0  0.12289  0.09695  0  1.018001  0
H  H42  1  0.51911831  0.05310228  0.78882778  1  0.158241  0  0.122861  0.096857  0  1.018093  0
H  H43  1  0.48088798  0.55312071  0.21117446  1  0.158158  0  0.122761  0.096774  0  1.01803  0
H  H44  1  0.26169620  0.50096322  0.09800685  1  0.056064  0  0.092043  0.076226  0  1.066367  0
H  H45  1  0.73829477  0.00095825  0.90198703  1  0.056173  0  0.09198  0.076102  0  1.066488  0
H  H46  1  0.23830622  0.00095784  0.09801030  1  0.056198  0  0.09198  0.076124  0  1.066393  0
H  H47  1  0.76169969  0.50095785  0.90199325  1  0.056213  0  0.091982  0.076118  0  1.066366  0
H  H48  1  0.41769480  0.49062610  0.92728894  1  0.127018  0  0.126149  0.099361  0  0.984022  0
H  H49  1  0.58230865  0.99062574  0.07270765  1  0.126917  0  0.126123  0.099302  0  0.984116  0
H  H50  1  0.08229562  0.99062069  0.92729073  1  0.126981  0  0.126088  0.099298  0  0.984154  0
H  H51  1  0.91769993  0.49062593  0.07270982  1  0.127107  0  0.126118  0.099277  0  0.98416  0
H  H52  1  0.98702457  0.12348908  0.28828022  1  0.125881  0  0.114971  0.138344  0  1.025048  0
H  H53  1  0.01295240  0.62345322  0.71169920  1  0.123851  0  0.114965  0.138285  0  1.024952  0
H  H54  1  0.51294315  0.62345726  0.28829367  1  0.123565  0  0.114903  0.138166  0  1.025154  0
H  H55  1  0.48701625  0.12347635  0.71170594  1  0.123887  0  0.11494  0.138389  0  1.025075  0
H  H56  1  0.19222503  0.35738632  0.70390657  1  0.092938  0  0.097689  0.111551  0  1.020867  0
H  H57  1  0.80779533  0.85739384  0.29609264  1  0.093101  0  0.097704  0.111554  0  1.020852  0
H  H58  1  0.30778956  0.85738574  0.70390983  1  0.092821  0  0.097679  0.11151  0  1.020901  0
H  H59  1  0.69223344  0.35739616  0.29610561  1  0.093312  0  0.09772  0.111635  0  1.02088  0
H  H60  1  0.60303374  0.56748641  0.93945623  1  0.183813  0  0.111817  0.135612  0  1.055539  0
H  H61  1  0.39697602  0.06748107  0.06053899  1  0.1837  0  0.111874  0.135603  0  1.055588  0
H  H62  1  0.89696057  0.06747978  0.93946097  1  0.183571  0  0.111824  0.135524  0  1.055679  0
H  H63  1  0.10303600  0.56748364  0.06054654  1  0.183817  0  0.111812  0.135532  0  1.055682  0
H  H64  1  0.07223461  0.58896172  0.96216869  1  0.172811  0  0.117111  0.097585  0  1.059351  0
H  H65  1  0.92776760  0.08896425  0.03783926  1  0.172854  0  0.117096  0.097484  0  1.059292  0
H  H66  1  0.42776988  0.08896271  0.96216386  1  0.17273  0  0.117117  0.097522  0  1.059387  0
H  H67  1  0.57223585  0.58895689  0.03782917  1  0.172751  0  0.117074  0.097482  0  1.059378  0
H  H68  1  0.88665696  0.66421272  0.98174210  1  0.138956  0  0.122949  0.139618  0  0.97073  0
H  H69  1  0.11334960  0.16421462  0.01826454  1  0.138973  0  0.122855  0.139483  0  0.970696  0
H  H70  1  0.61335921  0.16420176  0.98173512  1  0.139034  0  0.122878  0.139558  0  0.970736  0
H  H71  1  0.38666404  0.66421978  0.01825879  1  0.138925  0  0.122993  0.139674  0  0.970861  0
H  H72  1  0.06679220  0.31022399  0.44725450  1  0.108159  0  0.123289  0.097733  0  1.000116  0
H  H73  1  0.93323598  0.81024423  0.55276533  1  0.10827  0  0.123278  0.097485  0  1.000408  0
H  H74  1  0.43324415  0.81024638  0.44723440  1  0.108359  0  0.123254  0.097439  0  1.000325  0
H  H75  1  0.56678491  0.31025140  0.55275998  1  0.108782  0  0.123231  0.097475  0  1.000392  0
H  H76  1  0.79242621  0.62843783  0.80000986  1  0.107066  0  0.120936  0.141431  0  0.979443  0
H  H77  1  0.20758619  0.12843608  0.19999326  1  0.106813  0  0.120923  0.141341  0  0.979621  0
H  H78  1  0.70757277  0.12843468  0.80000532  1  0.106947  0  0.120966  0.141429  0  0.979359  0
H  H79  1  0.29243787  0.62844908  0.19998946  1  0.107173  0  0.120911  0.141326  0  0.979375  0
H  H80  1  0.48061292  0.71596926  0.79923215  1  0.105833  0  0.118983  0.13662  0  0.993894  0
H  H81  1  0.51939751  0.21596954  0.20076572  1  0.106709  0  0.118998  0.136604  0  0.9939  0
H  H82  1  0.01939715  0.21597078  0.79924291  1  0.107029  0  0.11902  0.136645  0  0.99389  0
H  H83  1  0.98060185  0.71597845  0.20076023  1  0.10681  0  0.118995  0.136618  0  0.993883  0
H  H84  1  0.23199131  0.48871868  0.52517403  1  0.075515  0  0.101941  0.119902  0  1.003176  0
H  H85  1  0.76799622  0.98871620  0.47483090  1  0.075212  0  0.101939  0.119921  0  1.003206  0
H  H86  1  0.26799732  0.98871899  0.52517149  1  0.075193  0  0.101942  0.119993  0  1.003127  0
H  H87  1  0.73196210  0.48872575  0.47484223  1  0.075176  0  0.102015  0.120114  0  1.003049  0
H  H88  1  0.45866232  0.28719717  0.29080721  1  0.138232  0  0.122863  0.097244  0  1.020858  0
H  H89  1  0.54135661  0.78714828  0.70918935  1  0.139143  0  0.122846  0.097044  0  1.021086  0
H  H90  1  0.04137541  0.78713640  0.29080582  1  0.139498  0  0.122776  0.096994  0  1.021189  0
H  H91  1  0.95866022  0.28718470  0.70919470  1  0.138616  0  0.122853  0.097216  0  1.020852  0
H  H92  1  0.35848392  0.20705300  0.45424014  1  0.154859  0  0.123821  0.105909  0  1.023487  0
H  H93  1  0.64149963  0.70703569  0.54574149  1  0.154905  0  0.123733  0.105742  0  1.023501  0
H  H94  1  0.14150524  0.70703843  0.45425832  1  0.154978  0  0.123749  0.105807  0  1.023472  0
H  H95  1  0.85846689  0.20702650  0.54576500  1  0.155316  0  0.123899  0.106012  0  1.02324  0
H  H96  1  0.22415183  0.35182823  0.02600664  1  0.096126  0  0.102808  0.121014  0  1.006212  0
H  H97  1  0.77585590  0.85182569  0.97398774  1  0.096073  0  0.102812  0.121015  0  1.00621  0
H  H98  1  0.27583934  0.85182348  0.02601157  1  0.095905  0  0.102781  0.120959  0  1.006205  0
H  H99  1  0.72416839  0.35182000  0.97399115  1  0.095826  0  0.102769  0.120943  0  1.006178  0
H  H100  1  0.21710624  0.33752567  0.59685419  1  0.036588  0  0.098664  0.094053  0  1.017734  0
H  H101  1  0.78291473  0.83753041  0.40314238  1  0.036719  0  0.098721  0.094104  0  1.017636  0
H  H102  1  0.28291044  0.83752803  0.59685695  1  0.036551  0  0.098644  0.094002  0  1.017641  0
H  H103  1  0.71707626  0.33755239  0.40314664  1  0.036914  0  0.098665  0.094046  0  1.017745  0
C  C104  1  0.58819449  0.21265245  0.33146715  1  -0.029236  0  -0.074579  -0.195125  0  3.949882  0
C  C105  1  0.41181926  0.71261002  0.66852897  1  -0.028331  0  -0.07466  -0.195302  0  3.949425  0
C  C106  1  0.91182805  0.71261062  0.33146981  1  -0.028661  0  -0.074719  -0.19541  0  3.949423  0
C  C107  1  0.08818658  0.21264200  0.66853113  1  -0.030592  0  -0.074605  -0.195205  0  3.949565  0
C  C108  1  0.82362254  0.65049419  0.89260373  1  0.360919  0  0.114048  0.196509  0  4.024008  0
C  C109  1  0.17638850  0.15049344  0.10739895  1  0.360328  0  0.114073  0.196592  0  4.024256  0
C  C110  1  0.67638310  0.15048921  0.89260438  1  0.360694  0  0.113994  0.196429  0  4.024366  0
C  C111  1  0.32362706  0.65050015  0.10739524  1  0.361192  0  0.113997  0.196428  0  4.024266  0
C  C112  1  0.27327869  0.41207689  0.19699254  1  -0.065537  0  -0.098959  -0.223581  0  3.883731  0
C  C113  1  0.72673077  0.91208304  0.80300229  1  -0.066261  0  -0.098953  -0.223584  0  3.883728  0
C  C114  1  0.22672571  0.91208443  0.19699866  1  -0.066234  0  -0.098792  -0.223239  0  3.883749  0
C  C115  1  0.77327585  0.41207956  0.80300626  1  -0.065541  0  -0.098908  -0.223473  0  3.883726  0
C  C116  1  0.55449579  0.64853732  0.87030542  1  0.273225  0  0.10665  0.187736  0  4.036115  0
C  C117  1  0.44551426  0.14853308  0.12969113  1  0.272836  0  0.106491  0.187458  0  4.036335  0
C  C118  1  0.94551038  0.14853231  0.87031555  1  0.272535  0  0.106368  0.187266  0  4.036461  0
C  C119  1  0.05449528  0.64853925  0.12968933  1  0.273109  0  0.106598  0.18757  0  4.036382  0
C  C120  1  0.91721189  0.17872543  0.36562621  1  0.291352  0  0.11545  0.204477  0  4.042904  0
C  C121  1  0.08278321  0.67870260  0.63436463  1  0.290841  0  0.115524  0.20448  0  4.042842  0
C  C122  1  0.58278445  0.67871655  0.36562668  1  0.290906  0  0.115522  0.204638  0  4.042626  0
C  C123  1  0.41720625  0.17872597  0.63436767  1  0.290683  0  0.115403  0.204422  0  4.042968  0
C  C124  1  0.93973513  0.22968441  0.41251283  1  -0.028716  0  -0.078527  -0.205894  0  3.903373  0
C  C125  1  0.06027345  0.72968251  0.58749030  1  -0.028298  0  -0.078669  -0.205908  0  3.903306  0
C  C126  1  0.56027608  0.72968896  0.41250535  1  -0.028624  0  -0.078493  -0.205726  0  3.903217  0
C  C127  1  0.43973163  0.22969998  0.58748945  1  -0.028555  0  -0.078667  -0.206113  0  3.903116  0
C  C128  1  0.27864922  0.35692395  0.24701953  1  1.544841  0  0.189145  0.608542  0  4.229525  0
C  C129  1  0.72134827  0.85693516  0.75296519  1  1.54567  0  0.189188  0.608867  0  4.229238  0
C  C130  1  0.22134814  0.85693717  0.24703091  1  1.54543  0  0.189291  0.608912  0  4.229148  0
C  C131  1  0.77865198  0.35693180  0.75297664  1  1.544795  0  0.189281  0.608701  0  4.229018  0
C  C132  1  0.10942502  0.20449581  0.32855873  1  0.431953  0  0.048839  0.098137  0  3.931356  0
C  C133  1  0.89058211  0.70448102  0.67143607  1  0.432123  0  0.048833  0.098434  0  3.931495  0
C  C134  1  0.39057143  0.70448482  0.32856046  1  0.432321  0  0.048844  0.09833  0  3.931174  0
C  C135  1  0.60941812  0.20448621  0.67144048  1  0.431916  0  0.048923  0.098336  0  3.93113  0
C  C136  1  0.19583755  0.44831085  0.64103356  1  0.067342  0  -0.080355  -0.030439  0  4.014335  0
C  C137  1  0.80415819  0.94832008  0.35897005  1  0.066733  0  -0.080129  -0.030175  0  4.013782  0
C  C138  1  0.30416493  0.94831541  0.64104033  1  0.067522  0  -0.080343  -0.030324  0  4.013783  0
C  C139  1  0.69581061  0.44833349  0.35896986  1  0.064378  0  -0.080104  -0.029882  0  4.013369  0
C  C140  1  0.37130358  0.61832552  0.82269657  1  0.441938  0  0.049724  0.097475  0  3.934039  0
C  C141  1  0.62869769  0.11832871  0.17729952  1  0.44161  0  0.049778  0.09751  0  3.934015  0
C  C142  1  0.12868880  0.11832242  0.82270324  1  0.44173  0  0.049744  0.09766  0  3.933762  0
C  C143  1  0.87130632  0.61832716  0.17729637  1  0.441771  0  0.049725  0.097542  0  3.933929  0
C  C144  1  0.53055652  0.16476351  0.42697175  1  -0.021732  0  -0.061169  -0.163898  0  3.884381  0
C  C145  1  0.46942283  0.66475240  0.57301163  1  -0.023597  0  -0.061279  -0.164253  0  3.884358  0
C  C146  1  0.96942562  0.66475538  0.42698685  1  -0.0235  0  -0.061323  -0.164187  0  3.884095  0
C  C147  1  0.03054671  0.16474778  0.57302681  1  -0.02125  0  -0.06117  -0.164119  0  3.884278  0
C  C148  1  0.25930510  0.38812356  0.14098976  1  -0.021613  0  -0.083362  -0.034323  0  4.019094  0
C  C149  1  0.74069683  0.88812541  0.85900462  1  -0.02124  0  -0.083419  -0.034559  0  4.019442  0
C  C150  1  0.24069029  0.88812270  0.14099812  1  -0.021184  0  -0.083592  -0.034861  0  4.019741  0
C  C151  1  0.75931340  0.38812221  0.85900768  1  -0.021196  0  -0.083417  -0.034621  0  4.019266  0
C  C152  1  0.95542193  0.57821991  0.83081719  1  0.463083  0  0.055197  0.105465  0  3.932152  0
C  C153  1  0.04458581  0.07821812  0.16918900  1  0.462833  0  0.054988  0.105122  0  3.931801  0
C  C154  1  0.54457360  0.07821733  0.83081660  1  0.463192  0  0.055019  0.105183  0  3.931878  0
C  C155  1  0.45542975  0.57822708  0.16918344  1  0.463302  0  0.055135  0.10533  0  3.931777  0
C  C156  1  0.25283462  0.37217184  0.48589905  1  1.498079  0  0.187981  0.59378  0  4.251233  0
C  C157  1  0.74717254  0.87217127  0.51409797  1  1.498174  0  0.187887  0.593943  0  4.251395  0
C  C158  1  0.24718288  0.87216996  0.48590083  1  1.498029  0  0.188121  0.594042  0  4.250996  0
C  C159  1  0.75282340  0.37217372  0.51409882  1  1.498696  0  0.187856  0.593709  0  4.251406  0
C  C160  1  0.25191539  0.43870078  0.09098559  1  -0.08009  0  -0.082362  -0.02816  0  4.015604  0
C  C161  1  0.74808770  0.93869760  0.90901012  1  -0.080053  0  -0.082223  -0.027932  0  4.015513  0
C  C162  1  0.24807272  0.93869544  0.09099089  1  -0.080252  0  -0.082323  -0.028005  0  4.0156  0
C  C163  1  0.75192159  0.43869367  0.90901404  1  -0.080421  0  -0.082281  -0.027967  0  4.015448  0
C  C164  1  0.43540280  0.54039499  0.89922680  1  0.502188  0  0.058871  0.123304  0  3.914296  0
C  C165  1  0.56460275  0.04039559  0.10076797  1  0.501854  0  0.058889  0.123165  0  3.914491  0
C  C166  1  0.06458502  0.04038531  0.89923066  1  0.50199  0  0.058776  0.122972  0  3.914248  0
C  C167  1  0.93540560  0.54038963  0.10077069  1  0.501986  0  0.058821  0.123185  0  3.914265  0
C  C168  1  0.00512439  0.16365421  0.32397636  1  0.099294  0  -0.071486  -0.17888  0  3.891134  0
C  C169  1  0.99485929  0.66363007  0.67601096  1  0.101155  0  -0.071527  -0.179064  0  3.89151  0
C  C170  1  0.49486438  0.66363561  0.32397662  1  0.101305  0  -0.071488  -0.17895  0  3.891053  0
C  C171  1  0.50511667  0.16364578  0.67601598  1  0.101269  0  -0.071465  -0.178998  0  3.891288  0
C  C172  1  0.61512661  0.17140363  0.38282714  1  0.272186  0  0.112106  0.204881  0  4.011833  0
C  C173  1  0.38486894  0.67138146  0.61716326  1  0.272592  0  0.112061  0.205086  0  4.011719  0
C  C174  1  0.88486773  0.67138267  0.38283544  1  0.272488  0  0.111987  0.205013  0  4.011639  0
C  C175  1  0.11511903  0.17139199  0.61717120  1  0.272582  0  0.112211  0.205267  0  4.01185  0
C  C176  1  0.18621092  0.41965149  0.69599521  1  -0.190908  0  -0.094648  -0.219545  0  3.890551  0
C  C177  1  0.81377790  0.91965798  0.30400752  1  -0.190767  0  -0.094844  -0.21966  0  3.890078  0
C  C178  1  0.31378610  0.91964698  0.69599937  1  -0.191033  0  -0.094699  -0.219574  0  3.890322  0
C  C179  1  0.68621589  0.41966250  0.30401038  1  -0.188359  0  -0.094934  -0.220021  0  3.890404  0
C  C180  1  0.53886967  0.58261207  0.90557402  1  -0.083181  0  -0.080582  -0.203318  0  3.891524  0
C  C181  1  0.46113832  0.08261045  0.09442207  1  -0.083068  0  -0.080672  -0.203183  0  3.891622  0
C  C182  1  0.96112427  0.08260913  0.90558113  1  -0.083361  0  -0.080557  -0.202948  0  3.891663  0
C  C183  1  0.03887318  0.58261107  0.09442506  1  -0.08327  0  -0.080572  -0.203102  0  3.891531  0
C  C184  1  0.00594939  0.59808632  0.92829263  1  0.444785  0  0.047425  0.096373  0  3.916142  0
C  C185  1  0.99406125  0.09808797  0.07171356  1  0.445158  0  0.047435  0.096376  0  3.916202  0
C  C186  1  0.49405877  0.09808640  0.92829192  1  0.444658  0  0.047435  0.096361  0  3.91641  0
C  C187  1  0.50595188  0.59808962  0.07170461  1  0.444717  0  0.04746  0.096585  0  3.916133  0
C  C188  1  0.90411145  0.63956532  0.93867493  1  -0.024244  0  -0.065982  -0.16685  0  3.915022  0
C  C189  1  0.09590159  0.13956629  0.06133346  1  -0.024152  0  -0.065851  -0.166586  0  3.915185  0
C  C190  1  0.59589844  0.13955688  0.93867141  1  -0.023995  0  -0.065945  -0.166693  0  3.915222  0
C  C191  1  0.40411723  0.63957183  0.06132513  1  -0.024532  0  -0.066079  -0.167114  0  3.915419  0
C  C192  1  0.04628131  0.26810169  0.41320469  1  0.489189  0  0.053153  0.114123  0  3.939956  0
C  C193  1  0.95373477  0.76810558  0.58680372  1  0.488608  0  0.053081  0.114062  0  3.940284  0
C  C194  1  0.45373994  0.76810481  0.41319474  1  0.488662  0  0.053026  0.114027  0  3.940411  0
C  C195  1  0.54628053  0.26811406  0.58680182  1  0.48845  0  0.053217  0.114263  0  3.940282  0
C  C196  1  0.17334885  0.46941834  0.74866443  1  1.512465  0  0.187674  0.599539  0  4.240143  0
C  C197  1  0.82663142  0.96942798  0.25133568  1  1.512269  0  0.187547  0.599306  0  4.240061  0
C  C198  1  0.32664194  0.96941237  0.74866818  1  1.512694  0  0.187662  0.599469  0  4.240414  0
C  C199  1  0.67336116  0.46942178  0.25133236  1  1.512467  0  0.187697  0.599568  0  4.239939  0
C  C200  1  0.85035054  0.61890913  0.83739368  1  -0.031769  0  -0.073416  -0.197664  0  3.902112  0
C  C201  1  0.14966483  0.11890669  0.16261032  1  -0.031225  0  -0.073474  -0.19761  0  3.902358  0
C  C202  1  0.64965532  0.11890591  0.83739338  1  -0.031425  0  -0.073428  -0.197532  0  3.902025  0
C  C203  1  0.35036356  0.61892441  0.16260623  1  -0.031599  0  -0.073395  -0.197421  0  3.901762  0
C  C204  1  0.46978796  0.66523069  0.82707177  1  0.051241  0  -0.073315  -0.186269  0  3.915877  0
C  C205  1  0.53022130  0.16523119  0.17292346  1  0.050411  0  -0.073258  -0.186168  0  3.915954  0
C  C206  1  0.03021773  0.16523303  0.82708387  1  0.049837  0  -0.073102  -0.186063  0  3.915779  0
C  C207  1  0.96978186  0.66523407  0.17292145  1  0.050224  0  -0.073222  -0.186235  0  3.91601  0
C  C208  1  0.22101490  0.46798722  0.98541927  1  1.468951  0  0.188089  0.5915  0  4.248645  0
C  C209  1  0.77898725  0.96798291  0.01457688  1  1.469076  0  0.188119  0.591549  0  4.248648  0
C  C210  1  0.27897044  0.96797849  0.98542070  1  1.469487  0  0.188019  0.591561  0  4.248477  0
C  C211  1  0.72100447  0.46798005  0.01458247  1  1.468835  0  0.188122  0.591452  0  4.248474  0
C  C212  1  0.23312211  0.42682617  0.53527423  1  0.054312  0  -0.09626  -0.228177  0  3.886737  0
C  C213  1  0.76687502  0.92682888  0.46472762  1  0.054907  0  -0.096217  -0.228247  0  3.886717  0
C  C214  1  0.26687974  0.92682877  0.53527827  1  0.054449  0  -0.096449  -0.228586  0  3.88676  0
C  C215  1  0.73309631  0.42684251  0.46473456  1  0.053702  0  -0.096384  -0.228434  0  3.886572  0
C  C216  1  0.48269687  0.25161433  0.32840649  1  0.508133  0  0.051314  0.097458  0  3.956399  0
C  C217  1  0.51732880  0.75156721  0.67158744  1  0.507685  0  0.051408  0.097814  0  3.956383  0
C  C218  1  0.01733745  0.75156522  0.32841074  1  0.507975  0  0.051494  0.098021  0  3.956429  0
C  C219  1  0.98268646  0.25159951  0.67159460  1  0.509197  0  0.051414  0.097582  0  3.956164  0
C  C220  1  0.42574952  0.20538028  0.42024355  1  0.528129  0  0.058557  0.105077  0  3.897507  0
C  C221  1  0.57424009  0.70536040  0.57974071  1  0.529463  0  0.058842  0.105762  0  3.897592  0
C  C222  1  0.07424797  0.70536253  0.42025936  1  0.528573  0  0.058735  0.105535  0  3.897672  0
C  C223  1  0.92573637  0.20536134  0.57975869  1  0.527449  0  0.058632  0.105167  0  3.897441  0
C  C224  1  0.23289852  0.41358985  0.03552881  1  -0.035163  0  -0.09639  -0.227459  0  3.874512  0
C  C225  1  0.76711103  0.91358712  0.96446689  1  -0.035243  0  -0.09644  -0.227469  0  3.874418  0
C  C226  1  0.26708315  0.91358202  0.03553416  1  -0.034958  0  -0.096297  -0.227336  0  3.874277  0
C  C227  1  0.73290267  0.41358220  0.96447032  1  -0.034808  0  -0.096304  -0.227307  0  3.874275  0
C  C228  1  0.21531653  0.40035255  0.59039431  1  -0.105767  0  -0.081996  -0.03324  0  4.026526  0
C  C229  1  0.78468962  0.90035502  0.40960885  1  -0.105412  0  -0.082133  -0.033353  0  4.02617  0
C  C230  1  0.28469406  0.90035785  0.59039840  1  -0.105278  0  -0.081741  -0.032917  0  4.026104  0
C  C231  1  0.71529188  0.40037233  0.40961223  1  -0.105116  0  -0.081971  -0.033338  0  4.026053  0
N  N232  1  0.35121254  0.55846444  0.85985469  1  -1.220518  0  -0.318725  -0.233591  0  3.526433  0
N  N233  1  0.64879406  0.05846571  0.14014053  1  -1.219677  0  -0.318793  -0.233537  0  3.526431  0
N  N234  1  0.14877591  0.05845772  0.85985526  1  -1.219864  0  -0.318608  -0.233373  0  3.526039  0
N  N235  1  0.85121576  0.55846026  0.14014171  1  -1.220246  0  -0.31869  -0.233482  0  3.526088  0
N  N236  1  0.12820189  0.25745741  0.37135734  1  -1.259694  0  -0.331384  -0.235189  0  3.581284  0
N  N237  1  0.87181006  0.75745610  0.62864888  1  -1.259527  0  -0.331279  -0.234942  0  3.581008  0
N  N238  1  0.37180951  0.75745356  0.37135331  1  -1.259443  0  -0.331248  -0.235006  0  3.580957  0
N  N239  1  0.62819629  0.25745995  0.62864852  1  -1.259606  0  -0.331351  -0.235031  0  3.581359  0
N  N240  1  0.03283735  0.56804138  0.87498131  1  -1.255736  0  -0.318253  -0.228719  0  3.52304  0
N  N241  1  0.96715574  0.06803960  0.12502005  1  -1.255653  0  -0.318047  -0.228488  0  3.522501  0
N  N242  1  0.46714830  0.06804147  0.87498360  1  -1.255776  0  -0.318137  -0.228578  0  3.522671  0
N  N243  1  0.53284304  0.56804009  0.12501469  1  -1.255727  0  -0.318101  -0.228634  0  3.522715  0
N  N244  1  0.40464097  0.25017426  0.37295534  1  -1.276438  0  -0.324196  -0.221408  0  3.565816  0
N  N245  1  0.59536704  0.75014095  0.62703288  1  -1.277013  0  -0.324384  -0.221977  0  3.566415  0
N  N246  1  0.09537353  0.75014073  0.37296594  1  -1.276435  0  -0.324333  -0.22195  0  3.56662  0
N  N247  1  0.90462745  0.25015245  0.62704598  1  -1.276318  0  -0.324329  -0.221622  0  3.565991  0
N  N248  1  0.63167598  0.70894679  0.88669224  1  -0.350328  0  -0.082622  -0.036266  0  3.304085  0
N  N249  1  0.36834371  0.20893567  0.11330168  1  -0.349777  0  -0.082413  -0.036043  0  3.304514  0
N  N250  1  0.86834088  0.20894535  0.88669910  1  -0.348902  0  -0.082501  -0.036096  0  3.303743  0
N  N251  1  0.13167353  0.70894523  0.11330579  1  -0.350207  0  -0.082603  -0.036262  0  3.304141  0
N  N252  1  0.73610722  0.70710929  0.90178123  1  -0.435038  0  -0.08493  -0.042636  0  3.333145  0
N  N253  1  0.26391500  0.20710519  0.09822322  1  -0.434896  0  -0.085005  -0.042711  0  3.333547  0
N  N254  1  0.76389388  0.20710735  0.90177640  1  -0.43541  0  -0.084968  -0.04271  0  3.333026  0
N  N255  1  0.23610813  0.70710829  0.09822146  1  -0.435113  0  -0.0849  -0.04249  0  3.333109  0
N  N256  1  0.73267765  0.15063049  0.39651427  1  -0.384248  0  -0.12253  -0.110353  0  3.18433  0
N  N257  1  0.26731495  0.65061102  0.60347744  1  -0.385158  0  -0.122521  -0.110327  0  3.184565  0
N  N258  1  0.76731037  0.65061919  0.39651831  1  -0.385076  0  -0.122566  -0.110512  0  3.184678  0
N  N259  1  0.23266377  0.15063101  0.60347999  1  -0.385012  0  -0.122528  -0.110294  0  3.184265  0
N  N260  1  0.80043909  0.16132272  0.35344937  1  -0.488882  0  -0.109414  -0.058696  0  3.297966  0
N  N261  1  0.19955939  0.66129776  0.64653840  1  -0.488084  0  -0.109315  -0.058614  0  3.298064  0
N  N262  1  0.69955963  0.66130359  0.35345234  1  -0.488102  0  -0.109329  -0.058625  0  3.297987  0
N  N263  1  0.30043622  0.16131457  0.64654332  1  -0.488343  0  -0.109446  -0.058893  0  3.297878  0
O  O264  1  0.16507350  0.54210721  0.74472345  1  -1.162655  0  -0.329397  -0.585353  0  2.148417  0
O  O265  1  0.83491107  0.04212066  0.25527966  1  -1.162852  0  -0.329319  -0.58532  0  2.148274  0
O  O266  1  0.33490837  0.04210447  0.74472627  1  -1.16257  0  -0.329578  -0.585591  0  2.148514  0
O  O267  1  0.66507971  0.54211238  0.25526938  1  -1.162651  0  -0.329429  -0.585439  0  2.14825  0
O  O268  1  0.17321536  0.43187895  0.79817877  1  -1.146902  0  -0.3451  -0.544723  0  2.223258  0
O  O269  1  0.82675747  0.93188565  0.20182133  1  -1.146637  0  -0.345035  -0.54462  0  2.223386  0
O  O270  1  0.32678170  0.93187588  0.79818296  1  -1.146916  0  -0.344952  -0.544504  0  2.223325  0
O  O271  1  0.67323154  0.43186960  0.20182065  1  -1.146923  0  -0.344996  -0.544566  0  2.223288  0
O  O272  1  0.25828530  0.40396645  0.43413573  1  -1.147055  0  -0.346288  -0.549062  0  2.236992  0
O  O273  1  0.74171490  0.90395246  0.56586348  1  -1.14709  0  -0.346304  -0.549192  0  2.237118  0
O  O274  1  0.24172733  0.90396330  0.43413619  1  -1.147115  0  -0.346375  -0.549135  0  2.236888  0
O  O275  1  0.75827376  0.40395388  0.56586698  1  -1.147123  0  -0.346236  -0.549016  0  2.23706  0
O  O276  1  0.26024546  0.30034664  0.49501302  1  -1.16429  0  -0.328766  -0.579767  0  2.179031  0
O  O277  1  0.73977512  0.80034706  0.50497872  1  -1.164267  0  -0.328704  -0.579787  0  2.179054  0
O  O278  1  0.23979083  0.80034402  0.49502137  1  -1.164392  0  -0.328811  -0.579868  0  2.178868  0
O  O279  1  0.76023063  0.30034910  0.50498265  1  -1.164126  0  -0.328742  -0.57978  0  2.179012  0
O  O280  1  0.20670632  0.43513347  0.93456667  1  -1.156364  0  -0.342532  -0.547045  0  2.246576  0
O  O281  1  0.79330447  0.93512893  0.06542948  1  -1.156292  0  -0.342658  -0.547145  0  2.246361  0
O  O282  1  0.29329151  0.93512041  0.93457121  1  -1.15632  0  -0.342496  -0.546993  0  2.24618  0
O  O283  1  0.70668589  0.43511823  0.06543284  1  -1.156024  0  -0.342643  -0.547131  0  2.246292  0
O  O284  1  0.28431490  0.39107774  0.29816707  1  -1.155295  0  -0.352598  -0.56338  0  2.252887  0
O  O285  1  0.71568104  0.89109112  0.70182161  1  -1.156034  0  -0.352669  -0.563695  0  2.252828  0
O  O286  1  0.21567619  0.89109084  0.29817624  1  -1.155819  0  -0.352793  -0.563758  0  2.252703  0
O  O287  1  0.78432503  0.39108787  0.70183044  1  -1.155478  0  -0.352663  -0.563511  0  2.252621  0
O  O288  1  0.27870244  0.28481464  0.23924774  1  -1.202878  0  -0.341454  -0.586884  0  2.109164  0
O  O289  1  0.72129703  0.78482585  0.76073170  1  -1.20268  0  -0.3414  -0.586885  0  2.109095  0
O  O290  1  0.22129330  0.78482669  0.23926658  1  -1.202574  0  -0.34145  -0.586973  0  2.109068  0
O  O291  1  0.77870529  0.28481959  0.76073920  1  -1.202753  0  -0.341583  -0.587017  0  2.108948  0
O  O292  1  0.22422398  0.54043566  0.99330430  1  -1.148001  0  -0.335337  -0.586528  0  2.177224  0
O  O293  1  0.77576137  0.04042970  0.00669398  1  -1.148061  0  -0.335232  -0.586473  0  2.177358  0
O  O294  1  0.27574904  0.04042528  0.99330477  1  -1.148151  0  -0.33528  -0.586614  0  2.177477  0
O  O295  1  0.72421698  0.54042791  0.00669965  1  -1.148018  0  -0.335287  -0.586465  0  2.177444  0
