# generated using pymatgen
data_CdH14C18(N2O3)2
_symmetry_space_group_name_H-M   'P 1'
_cell_length_a   7.80115535
_cell_length_b   8.46769218
_cell_length_c   13.69855149
_cell_angle_alpha   94.03496779
_cell_angle_beta   95.50468011
_cell_angle_gamma   98.82627015
_symmetry_Int_Tables_number   1
_chemical_formula_structural   CdH14C18(N2O3)2
_chemical_formula_sum   'Cd2 H28 C36 N8 O12'
_cell_volume   886.72036098
_cell_formula_units_Z   2
loop_
 _symmetry_equiv_pos_site_id
 _symmetry_equiv_pos_as_xyz
  1  'x, y, z'
loop_
 _atom_site_type_symbol
 _atom_site_label
 _atom_site_symmetry_multiplicity
 _atom_site_fract_x
 _atom_site_fract_y
 _atom_site_fract_z
 _atom_site_occupancy
 _atom_site_hle17_bader_spin_density
 _atom_site_hle17_ddec_charge
 _atom_site_hle17_ddec_spin_density
 _atom_site_hle17_ddec_sum_bond_order
 _atom_site_hle17_magmom
 _atom_site_hse06_10hf_bader_charge
 _atom_site_hse06_10hf_bader_spin_density
 _atom_site_hse06_10hf_ddec_charge
 _atom_site_hse06_10hf_ddec_spin_density
 _atom_site_hse06_10hf_ddec_sum_bond_order
 _atom_site_hse06_10hf_magmom
 _atom_site_hse06_bader_spin_density
 _atom_site_hse06_ddec_charge
 _atom_site_hse06_ddec_spin_density
 _atom_site_hse06_ddec_sum_bond_order
 _atom_site_hse06_magmom
 _atom_site_pbe_bader_spin_density
 _atom_site_pbe_cm5_charge
 _atom_site_pbe_ddec_charge
 _atom_site_pbe_ddec_spin_density
 _atom_site_pbe_ddec_sum_bond_order
 _atom_site_pbe_magmom
Cd  Cd0  1  0.83145671  0.11454347  0.23488212  1  0  1.130051  0  1.646629  0  1.287051  0  0.929895  0  2.098399  0  0  0.988299  0  2.046191  0  0  0.778498  0.888334  0  2.134156  0
Cd  Cd1  1  0.16854712  0.88544830  0.76512123  1  0  1.129999  0  1.646718  0  1.287039  0  0.929839  0  2.098478  0  0  0.988243  0  2.046268  0  0  0.778501  0.888279  0  2.134235  0
H  H2  1  0.30196337  0.17223682  0.20302629  1  0  0.092185  0  0.958159  0  0.127973  0  0.101253  0  1.02575  0  0  0.102767  0  1.024939  0  0  0.114559  0.100162  0  1.026365  0
H  H3  1  0.69803141  0.82775472  0.79697670  1  0  0.092263  0  0.958145  0  0.128139  0  0.101237  0  1.025839  0  0  0.10275  0  1.025028  0  0  0.114536  0.100146  0  1.026456  0
H  H4  1  0.41208725  0.37373335  0.21527903  1  0  0.089068  0  0.90243  0  0.096577  0  0.103134  0  0.957545  0  0  0.104507  0  0.957031  0  0  0.113332  0.102119  0  0.958034  0
H  H5  1  0.58790581  0.62626623  0.78471756  1  0  0.089094  0  0.902472  0  0.096524  0  0.103128  0  0.95758  0  0  0.104504  0  0.957067  0  0  0.113319  0.102114  0  0.958068  0
H  H6  1  0.89196469  0.06180399  0.48812008  1  0  0.131619  0  0.960264  0  0.141787  0  0.138819  0  1.024354  0  0  0.143049  0  1.020342  0  0  0.109838  0.135749  0  1.027286  0
H  H7  1  0.10804011  0.93820333  0.51188377  1  0  0.131559  0  0.960227  0  0.141794  0  0.138756  0  1.024346  0  0  0.142987  0  1.020334  0  0  0.109782  0.135685  0  1.027281  0
H  H8  1  0.59044122  0.17276312  0.72615480  1  0  0.102515  0  0.955127  0  0.121108  0  0.109953  0  1.022001  0  0  0.113612  0  1.019344  0  0  0.099606  0.107287  0  1.023982  0
H  H9  1  0.40956023  0.82724035  0.27384443  1  0  0.102555  0  0.955055  0  0.121102  0  0.109987  0  1.021934  0  0  0.113653  0  1.019271  0  0  0.099612  0.10732  0  1.023918  0
H  H10  1  0.37255050  0.27221688  0.61089745  1  0  0.123962  0  0.979509  0  0.180066  0  0.131335  0  1.040056  0  0  0.135988  0  1.036451  0  0  0.10512  0.12796  0  1.04272  0
H  H11  1  0.62744749  0.72777946  0.38910434  1  0  0.123919  0  0.979566  0  0.180063  0  0.131288  0  1.040109  0  0  0.135938  0  1.036508  0  0  0.105102  0.127914  0  1.042774  0
H  H12  1  0.80068067  0.44146819  0.32790656  1  0  0.053471  0  0.961233  0  0.064546  0  0.065153  0  1.027549  0  0  0.066063  0  1.026991  0  0  0.096095  0.064522  0  1.02797  0
H  H13  1  0.19932090  0.55852695  0.67209315  1  0  0.053424  0  0.961358  0  0.064549  0  0.065157  0  1.027607  0  0  0.066068  0  1.027047  0  0  0.096093  0.064526  0  1.028028  0
H  H14  1  0.00680058  0.52674462  0.39002591  1  0  0.073617  0  0.894048  0  0.068609  0  0.089695  0  0.950599  0  0  0.090911  0  0.949385  0  0  0.108461  0.088819  0  0.951525  0
H  H15  1  0.99319803  0.47326221  0.60997929  1  0  0.073649  0  0.894073  0  0.068261  0  0.089705  0  0.950634  0  0  0.090932  0  0.949408  0  0  0.10846  0.088829  0  0.95156  0
H  H16  1  0.06947961  0.11503159  0.04795342  1  0  0.128393  0  0.951839  0  0.127253  0  0.134753  0  1.018216  0  0  0.138818  0  1.014488  0  0  0.108992  0.131803  0  1.020961  0
H  H17  1  0.93052407  0.88496848  0.95204871  1  0  0.128434  0  0.951841  0  0.127288  0  0.134781  0  1.018231  0  0  0.138847  0  1.014502  0  0  0.109012  0.131833  0  1.020974  0
H  H18  1  0.36546410  0.49024878  0.90621247  1  0  0.096387  0  0.960342  0  0.094384  0  0.104606  0  1.02733  0  0  0.107546  0  1.025881  0  0  0.09879  0.102421  0  1.0285  0
H  H19  1  0.63454384  0.50975381  0.09379064  1  0  0.096439  0  0.960328  0  0.09438  0  0.104638  0  1.027333  0  0  0.107579  0  1.025882  0  0  0.09881  0.102456  0  1.028497  0
H  H20  1  0.30096711  0.70088661  0.02720412  1  0  0.121694  0  0.924374  0  0.116065  0  0.134407  0  0.975855  0  0  0.137812  0  0.974255  0  0  0.109173  0.131927  0  0.977189  0
H  H21  1  0.69902663  0.29910934  0.97279093  1  0  0.121691  0  0.924359  0  0.116098  0  0.134417  0  0.975827  0  0  0.137823  0  0.974227  0  0  0.109173  0.131937  0  0.977161  0
H  H22  1  0.29030667  0.27633870  0.39980993  1  0  0.327463  0  0.843773  0  0.509774  0  0.319162  0  0.886891  0  0  0.326156  0  0.882089  0  0  0.338654  0.314127  0  0.89051  0
H  H23  1  0.70969266  0.72365877  0.60018976  1  0  0.327464  0  0.84377  0  0.509825  0  0.319153  0  0.886893  0  0  0.32615  0  0.88209  0  0  0.338649  0.314118  0  0.890513  0
H  H24  1  0.11079677  0.73068155  0.20038146  1  0  0.323943  0  0.931926  0  0.553078  0  0.301456  0  0.997709  0  0  0.311035  0  0.990112  0  0  0.30526  0.294739  0  1.003002  0
H  H25  1  0.88921325  0.26931858  0.79961873  1  0  0.323914  0  0.93198  0  0.552982  0  0.301464  0  0.997718  0  0  0.311041  0  0.99012  0  0  0.305274  0.294746  0  1.003012  0
H  H26  1  0.49572127  0.11534599  0.10952495  1  0  0.389456  0  0.817304  0  0.631171  0  0.375419  0  0.869241  0  0  0.383652  0  0.860601  0  0  0.333542  0.369522  0  0.875539  0
H  H27  1  0.50427639  0.88465744  0.89047558  1  0  0.389557  0  0.817151  0  0.631023  0  0.375415  0  0.869237  0  0  0.383647  0  0.860601  0  0  0.333481  0.369518  0  0.875532  0
H  H28  1  0.80148122  0.71205322  0.27162691  1  0  0.36997  0  0.928905  0  0.672405  0  0.347585  0  0.998212  0  0  0.357852  0  0.986694  0  0  0.291059  0.340304  0  1.00635  0
H  H29  1  0.19852838  0.28795287  0.72837344  1  0  0.369948  0  0.928869  0  0.67239  0  0.347573  0  0.99814  0  0  0.357866  0  0.986607  0  0  0.291072  0.34029  0  1.006277  0
C  C30  1  0.43063274  0.24792532  0.22044241  1  0  0.029069  0  3.667132  0  0.472567  0  -0.027873  0  3.932416  0  0  -0.02339  0  3.935774  0  0  -0.058795  -0.030989  0  3.930074  0
C  C31  1  0.56935906  0.75207319  0.77955775  1  0  0.028987  0  3.667559  0  0.47243  0  -0.027808  0  3.932692  0  0  -0.023326  0  3.936053  0  0  -0.058741  -0.030926  0  3.930346  0
C  C32  1  0.50126028  0.22698699  0.32331613  1  0  0.375494  0  3.707382  0  1.056239  0  0.34152  0  3.988077  0  0  0.36008  0  3.999443  0  0  0.232534  0.32926  0  3.979911  0
C  C33  1  0.49874566  0.77301288  0.67668024  1  0  0.375578  0  3.707308  0  1.056644  0  0.341569  0  3.987999  0  0  0.360135  0  3.999366  0  0  0.232594  0.329309  0  3.979832  0
C  C34  1  0.51633886  0.22680894  0.48631438  1  0  0.169488  0  3.796067  0  0.352032  0  0.158657  0  4.04652  0  0  0.164245  0  4.068501  0  0  0.097171  0.154973  0  4.03165  0
C  C35  1  0.48366333  0.77319093  0.51368404  1  0  0.169419  0  3.79589  0  0.35183  0  0.158635  0  4.046255  0  0  0.164223  0  4.068239  0  0  0.097188  0.154953  0  4.031383  0
C  C36  1  0.66248922  0.16974952  0.45119206  1  0  0.135836  0  3.824681  0  0.354322  0  0.136066  0  4.070463  0  0  0.137419  0  4.095806  0  0  0.082805  0.134937  0  4.053407  0
C  C37  1  0.33750938  0.83024420  0.54880384  1  0  0.135726  0  3.825019  0  0.354429  0  0.135945  0  4.070781  0  0  0.137301  0  4.096123  0  0  0.082716  0.134814  0  4.053726  0
C  C38  1  0.78231913  0.11028995  0.51508154  1  0  -0.118068  0  3.665812  0  0.053061  0  -0.150608  0  3.916795  0  0  -0.149432  0  3.93361  0  0  -0.081703  -0.151164  0  3.905503  0
C  C39  1  0.21768878  0.88971261  0.48492083  1  0  -0.117965  0  3.666104  0  0.052901  0  -0.150517  0  3.917073  0  0  -0.14934  0  3.933885  0  0  -0.081649  -0.151071  0  3.905778  0
C  C40  1  0.75373883  0.11166609  0.61444078  1  0  -0.083043  0  3.774604  0  -0.049606  0  -0.064351  0  4.022502  0  0  -0.073867  0  4.047496  0  0  -0.029791  -0.058257  0  4.005789  0
C  C41  1  0.24626543  0.88833867  0.38555932  1  0  -0.083205  0  3.774896  0  -0.049556  0  -0.064498  0  4.022765  0  0  -0.074013  0  4.047762  0  0  -0.029839  -0.058404  0  4.006054  0
C  C42  1  0.61061471  0.17513395  0.64865617  1  0  -0.071397  0  3.74173  0  -0.045958  0  -0.104672  0  4.008037  0  0  -0.104209  0  4.029699  0  0  -0.095381  -0.104737  0  3.993344  0
C  C43  1  0.38938984  0.82487211  0.35134617  1  0  -0.071416  0  3.741776  0  -0.04592  0  -0.104696  0  4.008082  0  0  -0.104237  0  4.029735  0  0  -0.095349  -0.104762  0  3.993393  0
C  C44  1  0.48854629  0.23259996  0.58538177  1  0  -0.159142  0  3.741105  0  -0.06784  0  -0.17551  0  3.996503  0  0  -0.180423  0  4.01557  0  0  -0.100886  -0.172246  0  3.983661  0
C  C45  1  0.51145839  0.76739884  0.41461818  1  0  -0.158989  0  3.741104  0  -0.067826  0  -0.175364  0  3.996457  0  0  -0.180274  0  4.015529  0  0  -0.10085  -0.172098  0  3.983615  0
C  C46  1  0.87103509  0.03772305  0.68481484  1  0  0.63791  0  3.935624  0  1.5843  0  0.58286  0  4.24227  0  0  0.617926  0  4.234197  0  0  0.195452  0.559049  0  4.247016  0
C  C47  1  0.12896596  0.96227691  0.31518645  1  0  0.638121  0  3.935723  0  1.584434  0  0.583068  0  4.242363  0  0  0.618132  0  4.234293  0  0  0.195564  0.559258  0  4.247111  0
C  C48  1  0.91446214  0.53555321  0.32499805  1  0  0.052905  0  3.731266  0  0.50758  0  -0.004178  0  4.003052  0  0  0.001411  0  4.005209  0  0  -0.064569  -0.008057  0  4.001377  0
C  C49  1  0.08553807  0.46445025  0.67500185  1  0  0.052858  0  3.731377  0  0.50792  0  -0.004244  0  4.003041  0  0  0.001337  0  4.005201  0  0  -0.064563  -0.008129  0  4.001372  0
C  C50  1  0.99676149  0.49523160  0.23384344  1  0  0.361569  0  3.706596  0  1.058152  0  0.329765  0  3.984335  0  0  0.348103  0  3.996602  0  0  0.225153  0.317689  0  3.97556  0
C  C51  1  0.00323526  0.50477316  0.76616075  1  0  0.361456  0  3.707034  0  1.058156  0  0.329792  0  3.98461  0  0  0.348126  0  3.99687  0  0  0.225175  0.317716  0  3.975834  0
C  C52  1  0.15067815  0.52353575  0.10671178  1  0  0.16333  0  3.788232  0  0.384903  0  0.152602  0  4.035142  0  0  0.158263  0  4.056655  0  0  0.098262  0.148893  0  4.020616  0
C  C53  1  0.84931979  0.47647109  0.89328448  1  0  0.163101  0  3.788239  0  0.384778  0  0.152431  0  4.035166  0  0  0.158091  0  4.056673  0  0  0.098181  0.148724  0  4.020635  0
C  C54  1  0.08405388  0.35922550  0.11218583  1  0  0.133108  0  3.867598  0  0.343336  0  0.130842  0  4.118827  0  0  0.132855  0  4.143661  0  0  0.080884  0.129317  0  4.102013  0
C  C55  1  0.91594639  0.64078014  0.88780903  1  0  0.133242  0  3.867456  0  0.343483  0  0.13095  0  4.118701  0  0  0.13296  0  4.143538  0  0  0.080908  0.129421  0  4.10189  0
C  C56  1  0.12001984  0.24147263  0.04443863  1  0  -0.134723  0  3.688557  0  0.0061  0  -0.165591  0  3.941402  0  0  -0.16469  0  3.958268  0  0  -0.086173  -0.165971  0  3.930054  0
C  C57  1  0.87997324  0.75852591  0.95556158  1  0  -0.134779  0  3.688506  0  0.006108  0  -0.165632  0  3.941366  0  0  -0.16473  0  3.958232  0  0  -0.086169  -0.166004  0  3.930013  0
C  C58  1  0.22351388  0.29160229  0.97087420  1  0  -0.078245  0  3.772053  0  0.027844  0  -0.058761  0  4.016444  0  0  -0.068131  0  4.040977  0  0  -0.030547  -0.052769  0  4.000048  0
C  C59  1  0.77648286  0.70839512  0.02912539  1  0  -0.078257  0  3.772181  0  0.027289  0  -0.058788  0  4.016564  0  0  -0.068161  0  4.041102  0  0  -0.030579  -0.052808  0  4.000192  0
C  C60  1  0.28684034  0.45616111  0.96507074  1  0  -0.0649  0  3.747199  0  -0.024494  0  -0.097885  0  4.013915  0  0  -0.097505  0  4.035918  0  0  -0.090151  -0.097863  0  3.998974  0
C  C61  1  0.71315735  0.54383393  0.03492882  1  0  -0.064946  0  3.747472  0  -0.024132  0  -0.097908  0  4.014204  0  0  -0.097525  0  4.036206  0  0  -0.090135  -0.097884  0  3.999261  0
C  C62  1  0.25238177  0.57453314  0.03263553  1  0  -0.141081  0  3.722213  0  -0.047106  0  -0.158361  0  3.980807  0  0  -0.16238  0  3.999998  0  0  -0.090072  -0.155739  0  3.967824  0
C  C63  1  0.74761305  0.42546897  0.96736339  1  0  -0.14104  0  3.722314  0  -0.047349  0  -0.158351  0  3.980905  0  0  -0.162373  0  4.000096  0  0  -0.090067  -0.155728  0  3.967918  0
C  C64  1  0.25807417  0.16745746  0.89559461  1  0  0.638018  0  3.930776  0  1.577102  0  0.587793  0  4.223901  0  0  0.623105  0  4.216342  0  0  0.192486  0.563843  0  4.228178  0
C  C65  1  0.74192365  0.83253875  0.10440425  1  0  0.638082  0  3.930535  0  1.576753  0  0.587903  0  4.223586  0  0  0.623215  0  4.216027  0  0  0.192539  0.563959  0  4.227859  0
N  N66  1  0.41847484  0.26354576  0.40335456  1  0  -0.381307  0  3.333194  0  -1.304353  0  -0.329374  0  3.567807  0  0  -0.346683  0  3.577135  0  0  -0.377296  -0.3177  0  3.5613  0
N  N67  1  0.58152703  0.73645068  0.59664739  1  0  -0.381301  0  3.333077  0  -1.304663  0  -0.32936  0  3.567665  0  0  -0.346677  0  3.577  0  0  -0.377297  -0.317686  0  3.561161  0
N  N68  1  0.64923541  0.17403073  0.34885531  1  0  -0.487598  0  3.176672  0  -1.264027  0  -0.416843  0  3.449215  0  0  -0.440638  0  3.463606  0  0  -0.352408  -0.400554  0  3.439075  0
N  N69  1  0.35075875  0.82596661  0.65114417  1  0  -0.487541  0  3.176371  0  -1.264004  0  -0.41679  0  3.448928  0  0  -0.440588  0  3.463317  0  0  -0.35241  -0.4005  0  3.438788  0
N  N70  1  0.98774916  0.34600037  0.19242263  1  0  -0.506191  0  3.167845  0  -1.260025  0  -0.439569  0  3.452397  0  0  -0.464353  0  3.467425  0  0  -0.36333  -0.422503  0  3.441617  0
N  N71  1  0.01224854  0.65399574  0.80757403  1  0  -0.506151  0  3.168304  0  -1.260203  0  -0.439585  0  3.452853  0  0  -0.464368  0  3.46788  0  0  -0.363373  -0.422519  0  3.442074  0
N  N72  1  0.09302665  0.60497776  0.18484645  1  0  -0.379236  0  3.350956  0  -1.326289  0  -0.318283  0  3.578605  0  0  -0.337843  0  3.591307  0  0  -0.369103  -0.305155  0  3.56983  0
N  N73  1  0.90697177  0.39502211  0.81515401  1  0  -0.379052  0  3.35107  0  -1.325957  0  -0.318213  0  3.57869  0  0  -0.337756  0  3.591372  0  0  -0.369084  -0.305085  0  3.569917  0
O  O74  1  0.54869325  0.21040520  0.15241044  1  0  -0.513965  0  2.098954  0  -1.140502  0  -0.459387  0  2.327802  0  0  -0.476372  0  2.317434  0  0  -0.382776  -0.447323  0  2.33469  0
O  O75  1  0.45129730  0.78958703  0.84758291  1  0  -0.514093  0  2.099149  0  -1.140356  0  -0.459434  0  2.328036  0  0  -0.476423  0  2.31767  0  0  -0.382719  -0.447365  0  2.334922  0
O  O76  1  0.95637425  0.93336015  0.64824039  1  0  -0.659772  0  1.989248  0  -1.200836  0  -0.592536  0  2.24462  0  0  -0.622111  0  2.232609  0  0  -0.337212  -0.571787  0  2.252163  0
O  O77  1  0.04362752  0.06663515  0.35176298  1  0  -0.659872  0  1.98923  0  -1.201013  0  -0.592663  0  2.244644  0  0  -0.622237  0  2.232633  0  0  -0.337302  -0.571915  0  2.252187  0
O  O78  1  0.87758598  0.07461179  0.77680695  1  0  -0.633129  0  1.960247  0  -1.22334  0  -0.580405  0  2.1867  0  0  -0.605  0  2.177421  0  0  -0.32802  -0.563227  0  2.192514  0
O  O79  1  0.12241537  0.92538947  0.22319659  1  0  -0.633156  0  1.960317  0  -1.223269  0  -0.580422  0  2.186777  0  0  -0.605018  0  2.177503  0  0  -0.328018  -0.563235  0  2.192567  0
O  O80  1  0.87204286  0.69125650  0.33319289  1  0  -0.530457  0  2.099913  0  -1.196744  0  -0.480688  0  2.316794  0  0  -0.497185  0  2.307531  0  0  -0.405922  -0.46878  0  2.322924  0
O  O81  1  0.12795022  0.30874204  0.66680732  1  0  -0.530396  0  2.099854  0  -1.196658  0  -0.480662  0  2.316798  0  0  -0.49719  0  2.30749  0  0  -0.40596  -0.468749  0  2.322933  0
O  O82  1  0.23013889  0.02036086  0.91630865  1  0  -0.654166  0  1.976865  0  -1.190941  0  -0.586377  0  2.22293  0  0  -0.615954  0  2.210809  0  0  -0.341632  -0.565641  0  2.230454  0
O  O83  1  0.76986195  0.97963787  0.08369187  1  0  -0.654241  0  1.976712  0  -1.190891  0  -0.586468  0  2.222759  0  0  -0.616052  0  2.210651  0  0  -0.341698  -0.565736  0  2.230287  0
O  O84  1  0.30773959  0.20658906  0.81347809  1  0  -0.654076  0  1.977442  0  -1.227226  0  -0.59543  0  2.206055  0  0  -0.621265  0  2.194454  0  0  -0.329941  -0.577257  0  2.213367  0
O  O85  1  0.69226370  0.79340857  0.18652322  1  0  -0.654102  0  1.977354  0  -1.22691  0  -0.595475  0  2.205975  0  0  -0.621302  0  2.194371  0  0  -0.329955  -0.577304  0  2.213286  0
