# generated using pymatgen
data_ErZnH12C15N2O13
_symmetry_space_group_name_H-M   'P 1'
_cell_length_a   9.68047799
_cell_length_b   10.46610630
_cell_length_c   10.88010121
_cell_angle_alpha   80.51822144
_cell_angle_beta   72.03278241
_cell_angle_gamma   75.70820123
_symmetry_Int_Tables_number   1
_chemical_formula_structural   ErZnH12C15N2O13
_chemical_formula_sum   'Er2 Zn2 H24 C30 N4 O26'
_cell_volume   1011.42531477
_cell_formula_units_Z   2
loop_
 _symmetry_equiv_pos_site_id
 _symmetry_equiv_pos_as_xyz
  1  'x, y, z'
loop_
 _atom_site_type_symbol
 _atom_site_label
 _atom_site_symmetry_multiplicity
 _atom_site_fract_x
 _atom_site_fract_y
 _atom_site_fract_z
 _atom_site_occupancy
 _atom_site_pbe_bader_charge
 _atom_site_pbe_bader_spin_density
 _atom_site_pbe_cm5_charge
 _atom_site_pbe_ddec_charge
 _atom_site_pbe_ddec_spin_density
 _atom_site_pbe_ddec_sum_bond_order
 _atom_site_pbe_magmom
Er  Er0  1  0.17525243  0.19349308  0.03280043  1  2.169173  0  1.481186  2.031669  0  2.111432  0
Er  Er1  1  0.82473544  0.80649423  0.96720189  1  2.169082  0  1.481219  2.031628  0  2.11171  0
Zn  Zn2  1  0.30320076  0.36450583  0.61180274  1  1.321264  0  0.697556  0.850314  0  2.334174  0
Zn  Zn3  1  0.69679633  0.63550632  0.38820875  1  1.321377  0  0.697569  0.850288  0  2.334271  0
H  H4  1  0.05730752  0.20720900  0.75306981  1  0.15602  0  0.12682  0.103392  0  1.017524  0
H  H5  1  0.94271061  0.79279242  0.24693016  1  0.156268  0  0.126815  0.103392  0  1.017482  0
H  H6  1  0.83093091  0.17391331  0.70869718  1  0.143273  0  0.111822  0.132837  0  1.02701  0
H  H7  1  0.16908687  0.82607621  0.29130383  1  0.145251  0  0.11184  0.132907  0  1.027068  0
H  H8  1  0.78708804  0.26704996  0.49017320  1  0.079894  0  0.10757  0.107056  0  1.017222  0
H  H9  1  0.21291565  0.73295728  0.50983446  1  0.079709  0  0.107623  0.107114  0  1.017249  0
H  H10  1  0.53238240  0.22509668  0.36742694  1  0.109971  0  0.124261  0.100445  0  0.980201  0
H  H11  1  0.46764521  0.77495047  0.63256508  1  0.109179  0  0.124236  0.100433  0  0.980203  0
H  H12  1  0.75978303  0.04223675  0.33407171  1  0.160647  0  0.11718  0.137179  0  1.001737  0
H  H13  1  0.24025841  0.95781151  0.66591354  1  0.16069  0  0.117176  0.137352  0  1.001546  0
H  H14  1  0.83224772  0.91863661  0.53203670  1  0.093491  0  0.109176  0.106629  0  1.02556  0
H  H15  1  0.16775162  0.08137955  0.46796711  1  0.093626  0  0.109167  0.106553  0  1.025468  0
H  H16  1  0.91131791  0.40291503  0.99257659  1  0.637133  0  0.323673  0.423268  0  0.871621  0
H  H17  1  0.08866497  0.59709707  0.00741680  1  0.637029  0  0.323592  0.423224  0  0.871676  0
H  H18  1  0.04644040  0.41624985  0.86826449  1  0.651029  0  0.300771  0.400245  0  0.937608  0
H  H19  1  0.95355774  0.58375340  0.13173984  1  0.651001  0  0.300774  0.400203  0  0.937671  0
H  H20  1  0.25402752  0.42002420  0.10768925  1  0.654219  0  0.302801  0.410886  0  0.920279  0
H  H21  1  0.74597839  0.57996029  0.89230391  1  0.653875  0  0.302884  0.411005  0  0.920145  0
H  H22  1  0.37089341  0.38535485  0.97512086  1  0.619133  0  0.334998  0.417025  0  0.860218  0
H  H23  1  0.62909980  0.61462362  0.02486481  1  0.618995  0  0.335017  0.417137  0  0.860059  0
H  H24  1  0.51604366  0.50971389  0.63530260  1  0.670703  0  0.294222  0.400337  0  0.933545  0
H  H25  1  0.48397694  0.49027759  0.36470835  1  0.671369  0  0.294139  0.400239  0  0.933727  0
H  H26  1  0.34895333  0.53678256  0.72996901  1  0.604356  0  0.32298  0.404438  0  0.879563  0
H  H27  1  0.65106511  0.46321784  0.27004207  1  0.604517  0  0.323004  0.404526  0  0.879489  0
C  C28  1  0.03325176  0.24435910  0.66079353  1  0.425838  0  0.059667  0.114092  0  3.892054  0
C  C29  1  0.96675698  0.75564522  0.33920952  1  0.425647  0  0.059577  0.11393  0  3.89223  0
C  C30  1  0.90708569  0.22719187  0.63491359  1  0.032508  0  -0.068944  -0.09496  0  3.904726  0
C  C31  1  0.09293218  0.77280162  0.36508310  1  0.030657  0  -0.068865  -0.09481  0  3.904631  0
C  C32  1  0.88489800  0.27679277  0.51427166  1  -0.010947  0  -0.062795  -0.051003  0  3.919751  0
C  C33  1  0.11511112  0.72320560  0.48573406  1  -0.011317  0  -0.062753  -0.05102  0  3.919785  0
C  C34  1  0.98945505  0.34012627  0.42144277  1  0.001443  0  0.005638  -0.070205  0  3.923744  0
C  C35  1  0.01054237  0.65987994  0.57856313  1  0.001699  0  0.005618  -0.070301  0  3.923876  0
C  C36  1  0.11184156  0.35598905  0.45555695  1  0.479874  0  0.111715  0.05744  0  3.959774  0
C  C37  1  0.88816332  0.64401326  0.54444565  1  0.480319  0  0.111722  0.057424  0  3.959669  0
C  C38  1  0.22823160  0.42906389  0.36646500  1  1.613952  0  0.216797  0.558833  0  4.208554  0
C  C39  1  0.77177376  0.57093644  0.63353777  1  1.613774  0  0.216888  0.559034  0  4.208142  0
C  C40  1  0.96957632  0.38152748  0.28799474  1  1.660694  0  0.239115  0.652321  0  4.16984  0
C  C41  1  0.03042336  0.61847381  0.71200579  1  1.660715  0  0.239183  0.652571  0  4.169558  0
C  C42  1  0.56806567  0.16771516  0.44945429  1  0.487668  0  0.053988  0.094294  0  3.940615  0
C  C43  1  0.43195747  0.83231907  0.55053548  1  0.4947  0  0.053939  0.094195  0  3.941311  0
C  C44  1  0.69361477  0.06492533  0.43210460  1  0.005906  0  -0.069323  -0.104823  0  3.924025  0
C  C45  1  0.30641605  0.93511295  0.56787872  1  -0.000358  0  -0.069133  -0.104853  0  3.924148  0
C  C46  1  0.73249609  0.99667822  0.54176142  1  -0.036644  0  -0.056833  -0.05401  0  3.903469  0
C  C47  1  0.26751099  0.00333706  0.45822475  1  -0.036868  0  -0.05691  -0.053934  0  3.903386  0
C  C48  1  0.64398545  0.02825818  0.66622136  1  -0.017845  0  0.017049  -0.030448  0  3.860398  0
C  C49  1  0.35600584  0.97173714  0.33376681  1  -0.017982  0  0.017088  -0.030476  0  3.860391  0
C  C50  1  0.51988584  0.13232537  0.67447200  1  0.480094  0  0.120317  0.08576  0  3.923783  0
C  C51  1  0.48009763  0.86766195  0.32551868  1  0.479795  0  0.120499  0.085911  0  3.923491  0
C  C52  1  0.41154271  0.17140823  0.80126501  1  1.600947  0  0.202552  0.532653  0  4.234578  0
C  C53  1  0.58843271  0.82856313  0.19873224  1  1.601413  0  0.202725  0.533175  0  4.2342  0
C  C54  1  0.68975372  0.95088111  0.78235549  1  1.615043  0  0.194087  0.59183  0  4.261009  0
C  C55  1  0.31023058  0.04910721  0.21763296  1  1.615316  0  0.194115  0.591804  0  4.261699  0
C  C56  1  0.93911071  0.01978727  0.06293012  1  1.601389  0  0.212802  0.507407  0  4.228621  0
C  C57  1  0.06085833  0.98021478  0.93707053  1  1.579537  0  0.213095  0.507906  0  4.228593  0
N  N58  1  0.13072628  0.30842619  0.57352481  1  -1.258775  0  -0.330063  -0.270556  0  3.6228  0
N  N59  1  0.86928245  0.69157814  0.42647732  1  -1.259005  0  -0.330115  -0.270592  0  3.623031  0
N  N60  1  0.48554106  0.20134213  0.56779130  1  -1.254223  0  -0.317435  -0.262456  0  3.569517  0
N  N61  1  0.51445232  0.79866707  0.43220422  1  -1.253699  0  -0.317591  -0.262598  0  3.569798  0
O  O62  1  0.22253565  0.47157915  0.25380680  1  -1.176881  0  -0.301741  -0.519338  0  2.201331  0
O  O63  1  0.77747099  0.52840237  0.74618753  1  -1.176803  0  -0.301753  -0.519389  0  2.201313  0
O  O64  1  0.32542290  0.44535837  0.41847488  1  -1.180654  0  -0.311516  -0.562091  0  2.375242  0
O  O65  1  0.67456764  0.55466268  0.58153061  1  -1.180439  0  -0.31158  -0.562191  0  2.375065  0
O  O66  1  0.03586758  0.29891305  0.20641932  1  -1.187913  0  -0.401913  -0.640706  0  2.396382  0
O  O67  1  0.96411637  0.70107717  0.79359374  1  -1.187874  0  -0.401959  -0.64079  0  2.396373  0
O  O68  1  0.88211603  0.49000522  0.26645155  1  -1.194899  0  -0.300824  -0.55648  0  2.308877  0
O  O69  1  0.11790821  0.51000222  0.73354119  1  -1.194854  0  -0.300844  -0.556588  0  2.308792  0
O  O70  1  0.29717143  0.26522371  0.79738989  1  -1.182026  0  -0.348294  -0.601541  0  2.410317  0
O  O71  1  0.70279949  0.73474856  0.20262134  1  -1.182488  0  -0.348365  -0.601675  0  2.410318  0
O  O72  1  0.42852954  0.11184693  0.90715261  1  -1.138074  0  -0.322213  -0.531389  0  2.229917  0
O  O73  1  0.57145984  0.88812058  0.09283952  1  -1.138067  0  -0.322375  -0.531734  0  2.229924  0
O  O74  1  0.66294861  0.83640513  0.81835056  1  -1.167198  0  -0.355682  -0.609357  0  2.171042  0
O  O75  1  0.33703306  0.16358513  0.18164291  1  -1.167479  0  -0.35589  -0.609536  0  2.171383  0
O  O76  1  0.76678720  0.00020240  0.83135674  1  -1.157444  0  -0.378692  -0.626365  0  2.196669  0
O  O77  1  0.23318525  0.99978577  0.16864881  1  -1.157335  0  -0.378532  -0.626217  0  2.196839  0
O  O78  1  0.95220819  0.11218636  0.11707442  1  -1.170556  0  -0.366293  -0.583579  0  2.269212  0
O  O79  1  0.04777399  0.88781083  0.88292426  1  -1.170496  0  -0.366443  -0.583846  0  2.269219  0
O  O80  1  0.83625678  0.95468747  0.10211862  1  -1.179416  0  -0.378657  -0.61734  0  2.30452  0
O  O81  1  0.16371926  0.04529968  0.89790355  1  -1.17945  0  -0.378737  -0.617527  0  2.304855  0
O  O82  1  0.00474614  0.35296994  0.94171994  1  -1.263914  0  -0.636703  -0.851131  0  2.087999  0
O  O83  1  0.99523835  0.64704016  0.05828159  1  -1.26377  0  -0.636645  -0.851089  0  2.087999  0
O  O84  1  0.26451482  0.40214251  0.01726326  1  -1.242765  0  -0.604639  -0.832016  0  2.036836  0
O  O85  1  0.73547940  0.59784090  0.98273239  1  -1.242279  0  -0.604711  -0.832234  0  2.036559  0
O  O86  1  0.41050896  0.50259170  0.64834612  1  -1.244875  0  -0.576271  -0.750544  0  2.124033  0
O  O87  1  0.58951390  0.49738190  0.35167896  1  -1.245588  0  -0.576212  -0.75056  0  2.124224  0
