# generated using pymatgen
data_Er2H14C18S3O16
_symmetry_space_group_name_H-M   'P 1'
_cell_length_a   5.72850326
_cell_length_b   12.84056897
_cell_length_c   15.93826555
_cell_angle_alpha   80.58854448
_cell_angle_beta   79.71667868
_cell_angle_gamma   77.11997363
_symmetry_Int_Tables_number   1
_chemical_formula_structural   Er2H14C18S3O16
_chemical_formula_sum   'Er4 H28 C36 S6 O32'
_cell_volume   1115.12350442
_cell_formula_units_Z   2
loop_
 _symmetry_equiv_pos_site_id
 _symmetry_equiv_pos_as_xyz
  1  'x, y, z'
loop_
 _atom_site_type_symbol
 _atom_site_label
 _atom_site_symmetry_multiplicity
 _atom_site_fract_x
 _atom_site_fract_y
 _atom_site_fract_z
 _atom_site_occupancy
 _atom_site_hle17_bader_spin_density
 _atom_site_hle17_ddec_charge
 _atom_site_hle17_ddec_spin_density
 _atom_site_hle17_ddec_sum_bond_order
 _atom_site_hle17_magmom
 _atom_site_hse06_10hf_bader_spin_density
 _atom_site_hse06_10hf_ddec_charge
 _atom_site_hse06_10hf_ddec_spin_density
 _atom_site_hse06_10hf_ddec_sum_bond_order
 _atom_site_hse06_10hf_magmom
 _atom_site_hse06_bader_spin_density
 _atom_site_hse06_ddec_charge
 _atom_site_hse06_ddec_spin_density
 _atom_site_hse06_ddec_sum_bond_order
 _atom_site_hse06_magmom
 _atom_site_pbe_bader_charge
 _atom_site_pbe_bader_spin_density
 _atom_site_pbe_cm5_charge
 _atom_site_pbe_ddec_charge
 _atom_site_pbe_ddec_spin_density
 _atom_site_pbe_ddec_sum_bond_order
 _atom_site_pbe_magmom
Er  Er0  1  0.97617017  0.84756227  0.88718563  1  0  2.293594  0  1.581417  0  0  2.234056  0  1.895626  0  0  2.281168  0  1.854071  0  2.199637  0  1.50009  2.118109  0  2.07783  0
Er  Er1  1  0.71044181  0.65247256  0.61293694  1  0  2.293487  0  1.580892  0  0  2.234044  0  1.895115  0  0  2.281181  0  1.853531  0  2.200415  0  1.500323  2.117792  0  2.077782  0
Er  Er2  1  0.02383170  0.15244054  0.11281437  1  0  2.293601  0  1.581349  0  0  2.234048  0  1.895573  0  0  2.281165  0  1.853993  0  2.199717  0  1.500101  2.118056  0  2.077818  0
Er  Er3  1  0.28956348  0.34752542  0.38706230  1  0  2.293425  0  1.581023  0  0  2.233988  0  1.895258  0  0  2.281114  0  1.853671  0  2.200408  0  1.500279  2.117724  0  2.077916  0
H  H4  1  0.05558196  0.68046923  0.08677537  1  0  0.109752  0  0.954356  0  0  0.115526  0  1.025749  0  0  0.11913  0  1.02241  0  0.129098  0  0.107022  0.113483  0  1.026917  0
H  H5  1  0.82189005  0.81980003  0.41297163  1  0  0.109063  0  0.95419  0  0  0.114589  0  1.026254  0  0  0.118114  0  1.022987  0  0.076853  0  0.106676  0.112592  0  1.027411  0
H  H6  1  0.94442005  0.31953277  0.91322671  1  0  0.109762  0  0.954305  0  0  0.115495  0  1.025757  0  0  0.119105  0  1.022414  0  0.129093  0  0.107028  0.113452  0  1.026925  0
H  H7  1  0.17811141  0.18020278  0.58702700  1  0  0.109042  0  0.954176  0  0  0.114561  0  1.026255  0  0  0.118088  0  1.022993  0  0.077154  0  0.106665  0.112562  0  1.027418  0
H  H8  1  0.13048257  0.49347272  0.18859864  1  0  0.133746  0  0.967494  0  0  0.143667  0  1.026344  0  0  0.147125  0  1.024167  0  0.147802  0  0.109479  0.141002  0  1.028167  0
H  H9  1  0.81233833  0.00670028  0.31114272  1  0  0.134649  0  0.967398  0  0  0.144539  0  1.026157  0  0  0.148008  0  1.023996  0  0.152335  0  0.109634  0.141883  0  1.027924  0
H  H10  1  0.86951455  0.50652768  0.81140388  1  0  0.133727  0  0.967514  0  0  0.143664  0  1.026343  0  0  0.147119  0  1.024169  0  0.147838  0  0.109482  0.140997  0  1.028168  0
H  H11  1  0.18766223  0.99330494  0.68885902  1  0  0.134683  0  0.96742  0  0  0.144558  0  1.026185  0  0  0.148041  0  1.02399  0  0.152268  0  0.109659  0.141906  0  1.027948  0
H  H12  1  0.24256333  0.15216986  0.79502832  1  0  0.121546  0  0.968254  0  0  0.127868  0  1.034461  0  0  0.131804  0  1.031242  0  0.109927  0  0.105571  0.124672  0  1.037633  0
H  H13  1  0.19002770  0.34844543  0.70470352  1  0  0.121093  0  0.969361  0  0  0.127757  0  1.035074  0  0  0.131749  0  1.031888  0  0.101521  0  0.105468  0.124539  0  1.038195  0
H  H14  1  0.75743155  0.84783054  0.20496935  1  0  0.121538  0  0.96828  0  0  0.12785  0  1.034496  0  0  0.13179  0  1.031279  0  0.109924  0  0.105572  0.124654  0  1.037667  0
H  H15  1  0.80997278  0.65155497  0.29529387  1  0  0.121113  0  0.969297  0  0  0.127774  0  1.035006  0  0  0.131766  0  1.031817  0  0.101338  0  0.105479  0.124556  0  1.038124  0
H  H16  1  0.43872832  0.91069979  0.81673593  1  0  0.443904  0  0.849541  0  0  0.411793  0  0.915981  0  0  0.422187  0  0.900577  0  0.639591  0  0.308564  0.404538  0  0.926227  0
H  H17  1  0.16585678  0.58928590  0.68351063  1  0  0.444223  0  0.848863  0  0  0.411967  0  0.915589  0  0  0.422367  0  0.900168  0  0.644538  0  0.308621  0.404692  0  0.925868  0
H  H18  1  0.56127270  0.08929980  0.18326491  1  0  0.443928  0  0.849531  0  0  0.411815  0  0.915968  0  0  0.42221  0  0.900563  0  0.639594  0  0.308582  0.404558  0  0.926217  0
H  H19  1  0.83414334  0.41071530  0.31648668  1  0  0.444248  0  0.848827  0  0  0.411985  0  0.915564  0  0  0.422387  0  0.900139  0  0.644538  0  0.308623  0.404711  0  0.925842  0
H  H20  1  0.41931185  0.81578969  0.76547777  1  0  0.445286  0  0.839094  0  0  0.414165  0  0.910119  0  0  0.424736  0  0.894523  0  0.63403  0  0.312316  0.406494  0  0.92105  0
H  H21  1  0.00050690  0.68404535  0.73485128  1  0  0.445074  0  0.838848  0  0  0.413994  0  0.910157  0  0  0.424569  0  0.89455  0  0.663222  0  0.312458  0.406323  0  0.921084  0
H  H22  1  0.58068155  0.18421071  0.23452315  1  0  0.44539  0  0.83908  0  0  0.414269  0  0.909989  0  0  0.424842  0  0.894387  0  0.63401  0  0.312394  0.406599  0  0.920917  0
H  H23  1  0.99949449  0.31595343  0.26514964  1  0  0.445052  0  0.838865  0  0  0.413972  0  0.910188  0  0  0.424541  0  0.894591  0  0.663326  0  0.312445  0.406295  0  0.921124  0
H  H24  1  0.94558587  0.91635036  0.06016252  1  0  0.447407  0  0.842876  0  0  0.418034  0  0.904984  0  0  0.427966  0  0.890179  0  0.649925  0  0.309674  0.410758  0  0.915444  0
H  H25  1  0.92115492  0.58375215  0.44001364  1  0  0.446452  0  0.843716  0  0  0.417277  0  0.905441  0  0  0.427188  0  0.890679  0  0.652676  0  0.309323  0.410033  0  0.915848  0
H  H26  1  0.05441475  0.08365246  0.93983873  1  0  0.447413  0  0.842865  0  0  0.418039  0  0.904972  0  0  0.427969  0  0.890171  0  0.649955  0  0.309684  0.410762  0  0.915436  0
H  H27  1  0.07884485  0.41624664  0.55998180  1  0  0.446434  0  0.84375  0  0  0.417253  0  0.905479  0  0  0.427163  0  0.890718  0  0.652731  0  0.309317  0.410007  0  0.915889  0
H  H28  1  0.67420842  0.95321763  0.04807708  1  0  0.452832  0  0.821727  0  0  0.428351  0  0.87658  0  0  0.437456  0  0.863445  0  0.643517  0  0.314377  0.421039  0  0.887067  0
H  H29  1  0.67514805  0.54648287  0.45182910  1  0  0.45276  0  0.822181  0  0  0.428421  0  0.876541  0  0  0.437519  0  0.863418  0  0.639645  0  0.314323  0.421137  0  0.88697  0
H  H30  1  0.32578936  0.04678599  0.95192123  1  0  0.452783  0  0.821782  0  0  0.428299  0  0.876654  0  0  0.437402  0  0.863522  0  0.64352  0  0.314345  0.420985  0  0.887144  0
H  H31  1  0.32485210  0.45351269  0.54817130  1  0  0.452815  0  0.822079  0  0  0.428469  0  0.876469  0  0  0.437567  0  0.863346  0  0.639243  0  0.314328  0.421183  0  0.886903  0
C  C32  1  0.47118879  0.74778063  0.98080200  1  0  0.751418  0  3.86604  0  0  0.706635  0  4.156291  0  0  0.743405  0  4.142845  0  1.620328  0  0.230927  0.680641  0  4.160872  0
C  C33  1  0.19889050  0.75223487  0.51934667  1  0  0.752683  0  3.862256  0  0  0.707491  0  4.152894  0  0  0.744239  0  4.139447  0  1.603656  0  0.23073  0.681483  0  4.157488  0
C  C34  1  0.52881318  0.25221735  0.01919701  1  0  0.751465  0  3.865698  0  0  0.706562  0  4.156144  0  0  0.743333  0  4.142688  0  1.620445  0  0.230889  0.680544  0  4.160755  0
C  C35  1  0.80111125  0.24776311  0.48065433  1  0  0.752632  0  3.8623  0  0  0.707425  0  4.152969  0  0  0.74416  0  4.139534  0  1.603265  0  0.230701  0.681405  0  4.157573  0
C  C36  1  0.44400272  0.65133665  0.04294516  1  0  -0.174358  0  3.730355  0  0  -0.158167  0  3.996303  0  0  -0.166318  0  4.017186  0  -0.248334  0  -0.02478  -0.153225  0  3.983958  0
C  C37  1  0.13768029  0.84859104  0.45705342  1  0  -0.175046  0  3.731129  0  0  -0.158019  0  3.996048  0  0  -0.166199  0  4.016949  0  -0.226838  0  -0.024887  -0.153054  0  3.983702  0
C  C38  1  0.55599794  0.34866375  0.95705560  1  0  -0.174512  0  3.730392  0  0  -0.158196  0  3.996279  0  0  -0.16635  0  4.017161  0  -0.248307  0  -0.024833  -0.15325  0  3.983944  0
C  C39  1  0.86231979  0.15141016  0.54294925  1  0  -0.175052  0  3.731259  0  0  -0.157962  0  3.996117  0  0  -0.166135  0  4.017015  0  -0.226493  0  -0.024809  -0.152986  0  3.983765  0
C  C40  1  0.23118219  0.62759684  0.09138573  1  0  -0.094628  0  3.81456  0  0  -0.131081  0  4.094436  0  0  -0.129612  0  4.112037  0  -0.006927  0  -0.099634  -0.131497  0  4.081551  0
C  C41  1  0.94960658  0.87249036  0.40844426  1  0  -0.093712  0  3.814883  0  0  -0.130042  0  4.094067  0  0  -0.128514  0  4.111742  0  0.044118  0  -0.099549  -0.130528  0  4.081163  0
C  C42  1  0.76882179  0.37240356  0.90861526  1  0  -0.094519  0  3.814458  0  0  -0.130976  0  4.094355  0  0  -0.129515  0  4.111953  0  -0.006981  0  -0.099549  -0.131391  0  4.081466  0
C  C43  1  0.05039830  0.12751084  0.59155539  1  0  -0.093669  0  3.814863  0  0  -0.130013  0  4.094055  0  0  -0.128496  0  4.11174  0  0.043712  0  -0.099578  -0.130506  0  4.081157  0
C  C44  1  0.26982335  0.52904618  0.14538553  1  0  -0.085757  0  3.742993  0  0  -0.121539  0  4.015223  0  0  -0.121356  0  4.033532  0  0.087216  0  -0.100589  -0.121449  0  4.003145  0
C  C45  1  0.94397360  0.97105310  0.35447322  1  0  -0.086695  0  3.74398  0  0  -0.122723  0  4.016463  0  0  -0.122585  0  4.03476  0  0.023459  0  -0.100758  -0.1226  0  4.004411  0
C  C46  1  0.73018265  0.47095341  0.85461565  1  0  -0.085768  0  3.742993  0  0  -0.121556  0  4.015257  0  0  -0.121367  0  4.033563  0  0.087133  0  -0.100628  -0.121461  0  4.003181  0
C  C47  1  0.05603557  0.02895052  0.64552790  1  0  -0.086732  0  3.743993  0  0  -0.122749  0  4.016475  0  0  -0.122602  0  4.034788  0  0.02339  0  -0.100777  -0.122629  0  4.004423  0
C  C48  1  0.51214987  0.47831027  0.13663987  1  0  -0.161038  0  3.695377  0  0  -0.146098  0  3.965782  0  0  -0.15356  0  3.986155  0  -0.301489  0  -0.023987  -0.141654  0  3.953953  0
C  C49  1  0.12713779  0.02160896  0.36331915  1  0  -0.159363  0  3.694985  0  0  -0.144312  0  3.964916  0  0  -0.151752  0  3.985278  0  -0.261303  0  -0.023125  -0.139898  0  3.953124  0
C  C50  1  0.48785703  0.52169012  0.86335998  1  0  -0.161016  0  3.695119  0  0  -0.146202  0  3.965663  0  0  -0.153662  0  3.986028  0  -0.301441  0  -0.024038  -0.141767  0  3.953842  0
C  C51  1  0.87286381  0.97839627  0.63668334  1  0  -0.159368  0  3.694911  0  0  -0.144363  0  3.964901  0  0  -0.15184  0  3.985298  0  -0.260966  0  -0.023138  -0.139954  0  3.953098  0
C  C52  1  0.62134706  0.37148516  0.17794579  1  0  0.736676  0  3.857222  0  0  0.693144  0  4.144352  0  0  0.729464  0  4.131485  0  1.586025  0  0.230885  0.666925  0  4.15028  0
C  C53  1  0.17114717  0.12836238  0.32200898  1  0  0.735103  0  3.857941  0  0  0.691885  0  4.144594  0  0  0.728223  0  4.131694  0  1.575172  0  0.230415  0.665643  0  4.150555  0
C  C54  1  0.37864819  0.62851202  0.82205684  1  0  0.736718  0  3.856959  0  0  0.693224  0  4.144023  0  0  0.729546  0  4.131162  0  1.586246  0  0.230849  0.667015  0  4.149948  0
C  C55  1  0.82885625  0.87164527  0.67799212  1  0  0.735005  0  3.85804  0  0  0.691788  0  4.144711  0  0  0.728148  0  4.131802  0  1.575246  0  0.230362  0.66556  0  4.150655  0
C  C56  1  0.72251920  0.05804685  0.83995379  1  0  0.655515  0  3.953214  0  0  0.603542  0  4.255508  0  0  0.638164  0  4.246399  0  1.527624  0  0.197958  0.581479  0  4.252211  0
C  C57  1  0.62126493  0.44199001  0.66005331  1  0  0.655476  0  3.95318  0  0  0.603188  0  4.255838  0  0  0.637797  0  4.246719  0  1.519863  0  0.197907  0.581127  0  4.252475  0
C  C58  1  0.27747218  0.94195113  0.16004515  1  0  0.655218  0  3.953565  0  0  0.603196  0  4.255919  0  0  0.637824  0  4.246806  0  1.527505  0  0.19782  0.58114  0  4.252607  0
C  C59  1  0.37873609  0.55800878  0.33994088  1  0  0.655549  0  3.953158  0  0  0.603277  0  4.255783  0  0  0.637889  0  4.246666  0  1.52036  0  0.197911  0.581219  0  4.252428  0
C  C60  1  0.61926906  0.16064813  0.79266246  1  0  -0.142201  0  3.705925  0  0  -0.126756  0  3.972641  0  0  -0.134171  0  3.99363  0  -0.183519  0  -0.020761  -0.122871  0  3.960212  0
C  C61  1  0.57308155  0.33940242  0.70717509  1  0  -0.141425  0  3.707001  0  0  -0.125139  0  3.972552  0  0  -0.132546  0  3.993582  0  -0.181099  0  -0.020353  -0.121235  0  3.96008  0
C  C62  1  0.38072466  0.83935065  0.20733726  1  0  -0.142207  0  3.705953  0  0  -0.126702  0  3.972589  0  0  -0.134115  0  3.993579  0  -0.183552  0  -0.020783  -0.122825  0  3.960171  0
C  C63  1  0.42692172  0.66059637  0.29282395  1  0  -0.14155  0  3.70715  0  0  -0.125292  0  3.972743  0  0  -0.132707  0  3.993778  0  -0.181525  0  -0.020348  -0.121392  0  3.960279  0
C  C64  1  0.38428587  0.19879553  0.77402664  1  0  -0.067  0  3.696883  0  0  -0.100282  0  3.965805  0  0  -0.099469  0  3.983384  0  0.049223  0  -0.091717  -0.100838  0  3.954905  0
C  C65  1  0.35725191  0.30159177  0.72573192  1  0  -0.067428  0  3.697612  0  0  -0.101198  0  3.966458  0  0  -0.100511  0  3.983991  0  -0.012982  0  -0.091745  -0.101691  0  3.955598  0
C  C66  1  0.61570968  0.80120568  0.22597169  1  0  -0.066874  0  3.696727  0  0  -0.100162  0  3.965615  0  0  -0.099359  0  3.983201  0  0.049403  0  -0.091668  -0.100717  0  3.95472  0
C  C67  1  0.64274602  0.69840782  0.27426669  1  0  -0.067491  0  3.697603  0  0  -0.101252  0  3.966481  0  0  -0.100562  0  3.984007  0  -0.012869  0  -0.09181  -0.101748  0  3.955622  0
S  S68  1  0.69008309  0.55101928  0.06174522  1  0  0.217654  0  2.654775  0  0  0.221281  0  2.979512  0  0  0.220082  0  2.991368  0  0.313828  0  0.131382  0.220998  0  2.972852  0
S  S69  1  0.30258171  0.94876581  0.43836742  1  0  0.217192  0  2.654242  0  0  0.220508  0  2.978845  0  0  0.219304  0  2.990703  0  0.312905  0  0.131516  0.220235  0  2.972188  0
S  S70  1  0.30991799  0.44897790  0.93825513  1  0  0.217675  0  2.654693  0  0  0.221344  0  2.979415  0  0  0.220145  0  2.991269  0  0.313916  0  0.131458  0.221063  0  2.972756  0
S  S71  1  0.69741375  0.05123780  0.56163677  1  0  0.217215  0  2.654354  0  0  0.220535  0  2.978967  0  0  0.219344  0  2.990833  0  0.312677  0  0.131534  0.220261  0  2.972303  0
S  S72  1  0.80289143  0.24988268  0.74995068  1  0  0.236066  0  2.789604  0  0  0.247918  0  3.120179  0  0  0.246047  0  3.133574  0  0.319875  0  0.153709  0.248164  0  3.113213  0
S  S73  1  0.19710723  0.75011530  0.25004809  1  0  0.236063  0  2.789707  0  0  0.247911  0  3.120252  0  0  0.24604  0  3.13365  0  0.319829  0  0.153689  0.248157  0  3.113291  0
O  O74  1  0.32796903  0.88091707  0.79072334  1  0  -0.901265  0  1.926847  0  0  -0.862987  0  2.124279  0  0  -0.881463  0  2.093154  0  -1.245951  0  -0.629378  -0.839746  0  2.151289  0
O  O75  1  0.99944244  0.61895905  0.70952598  1  0  -0.90097  0  1.927111  0  0  -0.862851  0  2.125023  0  0  -0.881336  0  2.093931  0  -1.280174  0  -0.629192  -0.839554  0  2.15209  0
O  O76  1  0.67202550  0.11908171  0.20927911  1  0  -0.901391  0  1.926922  0  0  -0.863135  0  2.124288  0  0  -0.8816  0  2.09315  0  -1.245941  0  -0.629462  -0.839884  0  2.151293  0
O  O77  1  0.00055589  0.38104054  0.29047400  1  0  -0.900972  0  1.92703  0  0  -0.862841  0  2.124944  0  0  -0.881323  0  2.093855  0  -1.280261  0  -0.629204  -0.839542  0  2.15201  0
O  O78  1  0.68336530  0.75443500  0.94221123  1  0  -0.742864  0  2.018949  0  0  -0.707042  0  2.278282  0  0  -0.730493  0  2.262557  0  -1.205781  0  -0.4133  -0.677133  0  2.293349  0
O  O79  1  0.37921231  0.74556117  0.55801675  1  0  -0.743904  0  2.016981  0  0  -0.708043  0  2.276633  0  0  -0.731483  0  2.260906  0  -1.200256  0  -0.414193  -0.678062  0  2.291715  0
O  O80  1  0.31663817  0.24555734  0.05778762  1  0  -0.742888  0  2.018912  0  0  -0.707021  0  2.278312  0  0  -0.730471  0  2.262576  0  -1.205912  0  -0.413355  -0.677099  0  2.293386  0
O  O81  1  0.62079204  0.25443520  0.44198254  1  0  -0.743878  0  2.01696  0  0  -0.707995  0  2.276622  0  0  -0.731434  0  2.260895  0  -1.200231  0  -0.414149  -0.678011  0  2.291702  0
O  O82  1  0.82845980  0.91016083  0.02377638  1  0  -0.918927  0  1.881028  0  0  -0.886535  0  2.077326  0  0  -0.903924  0  2.04666  0  -1.270729  0  -0.633178  -0.862857  0  2.104499  0
O  O83  1  0.76151234  0.58971530  0.47625556  1  0  -0.917442  0  1.880703  0  0  -0.885535  0  2.077245  0  0  -0.902778  0  2.046446  0  -1.270087  0  -0.632338  -0.861822  0  2.104387  0
O  O84  1  0.17153947  0.08984037  0.97622355  1  0  -0.918855  0  1.881083  0  0  -0.886468  0  2.077412  0  0  -0.903855  0  2.046756  0  -1.27074  0  -0.63316  -0.862785  0  2.104593  0
O  O85  1  0.23848985  0.41028268  0.52374145  1  0  -0.917469  0  1.880666  0  0  -0.885547  0  2.077248  0  0  -0.902785  0  2.04645  0  -1.269791  0  -0.632342  -0.861832  0  2.104393  0
O  O86  1  0.27967670  0.81841518  0.96926057  1  0  -0.745019  0  2.016307  0  0  -0.698107  0  2.267076  0  0  -0.724058  0  2.254696  0  -1.209442  0  -0.40846  -0.668305  0  2.278075  0
O  O87  1  0.06623273  0.68170424  0.53090993  1  0  -0.745134  0  2.014418  0  0  -0.697996  0  2.265214  0  0  -0.723981  0  2.252876  0  -1.201924  0  -0.407905  -0.668143  0  2.276282  0
O  O88  1  0.72032564  0.18157877  0.03073674  1  0  -0.745062  0  2.016036  0  0  -0.698073  0  2.266787  0  0  -0.724044  0  2.25444  0  -1.209521  0  -0.408419  -0.668261  0  2.277795  0
O  O89  1  0.93376273  0.31829616  0.46909248  1  0  -0.745087  0  2.01438  0  0  -0.697951  0  2.265183  0  0  -0.723928  0  2.252843  0  -1.201911  0  -0.407903  -0.668089  0  2.276246  0
O  O90  1  0.81577101  0.32192303  0.13746097  1  0  -0.738613  0  2.046196  0  0  -0.69872  0  2.298328  0  0  -0.723136  0  2.285609  0  -1.194  0  -0.398017  -0.669872  0  2.310864  0
O  O91  1  0.27545348  0.17794303  0.36259586  1  0  -0.737896  0  2.04383  0  0  -0.698313  0  2.296074  0  0  -0.722724  0  2.283352  0  -1.178428  0  -0.397864  -0.669414  0  2.308603  0
O  O92  1  0.18422607  0.67807737  0.86254691  1  0  -0.738667  0  2.045859  0  0  -0.698816  0  2.298052  0  0  -0.723241  0  2.285345  0  -1.193742  0  -0.398018  -0.669985  0  2.310596  0
O  O93  1  0.72455947  0.82205817  0.63740636  1  0  -0.737795  0  2.043859  0  0  -0.698205  0  2.296082  0  0  -0.722623  0  2.283367  0  -1.178599  0  -0.397786  -0.669316  0  2.308618  0
O  O94  1  0.51849763  0.33288662  0.25100133  1  0  -0.747112  0  2.031819  0  0  -0.700694  0  2.278143  0  0  -0.725958  0  2.265176  0  -1.208526  0  -0.382754  -0.67097  0  2.290268  0
O  O95  1  0.10301560  0.16686263  0.24882288  1  0  -0.746865  0  2.034216  0  0  -0.700444  0  2.280266  0  0  -0.725906  0  2.267606  0  -1.207761  0  -0.383024  -0.670684  0  2.292281  0
O  O96  1  0.48149784  0.66711378  0.74900108  1  0  -0.747046  0  2.031754  0  0  -0.700626  0  2.278032  0  0  -0.725893  0  2.265075  0  -1.208991  0  -0.382711  -0.670908  0  2.290158  0
O  O97  1  0.89698450  0.83314824  0.75117977  1  0  -0.746885  0  2.034217  0  0  -0.70049  0  2.280319  0  0  -0.725959  0  2.267659  0  -1.207481  0  -0.383087  -0.670737  0  2.292335  0
O  O98  1  0.59508922  0.98558717  0.86844275  1  0  -0.702647  0  2.031125  0  0  -0.648329  0  2.260897  0  0  -0.6722  0  2.249547  0  -1.192905  0  -0.341529  -0.623977  0  2.267075  0
O  O99  1  0.44974736  0.51466598  0.63173477  1  0  -0.704897  0  2.031929  0  0  -0.650239  0  2.261337  0  0  -0.674254  0  2.250259  0  -1.199546  0  -0.343445  -0.625865  0  2.267746  0
O  O100  1  0.40489908  0.01441161  0.13156062  1  0  -0.702614  0  2.031241  0  0  -0.648274  0  2.26102  0  0  -0.672146  0  2.24967  0  -1.192858  0  -0.341528  -0.623898  0  2.267149  0
O  O101  1  0.55025529  0.48532877  0.36825646  1  0  -0.704951  0  2.03195  0  0  -0.650258  0  2.261324  0  0  -0.674283  0  2.250249  0  -1.199606  0  -0.343454  -0.625877  0  2.267712  0
O  O102  1  0.94575488  0.03910688  0.85081319  1  0  -0.705992  0  2.025771  0  0  -0.655857  0  2.267937  0  0  -0.679986  0  2.256279  0  -1.194013  0  -0.366934  -0.630026  0  2.274908  0
O  O103  1  0.83647349  0.46075435  0.64910692  1  0  -0.70448  0  2.024497  0  0  -0.654599  0  2.266715  0  0  -0.678717  0  2.255132  0  -1.186036  0  -0.365945  -0.628801  0  2.273663  0
O  O104  1  0.05424119  0.96088626  0.14918374  1  0  -0.705752  0  2.025864  0  0  -0.655629  0  2.268055  0  0  -0.679758  0  2.256395  0  -1.193974  0  -0.366772  -0.629792  0  2.27501  0
O  O105  1  0.16353157  0.53924282  0.35088766  1  0  -0.704393  0  2.024429  0  0  -0.654537  0  2.266655  0  0  -0.678651  0  2.255072  0  -1.186064  0  -0.365896  -0.628741  0  2.273606  0
