# generated using pymatgen
data_FeH2PtC8(N3F)2
_symmetry_space_group_name_H-M   'P 1'
_cell_length_a   7.28549549
_cell_length_b   7.26475658
_cell_length_c   7.47226748
_cell_angle_alpha   89.99249533
_cell_angle_beta   89.99886836
_cell_angle_gamma   99.13991347
_symmetry_Int_Tables_number   1
_chemical_formula_structural   FeH2PtC8(N3F)2
_chemical_formula_sum   'Fe1 H2 Pt1 C8 N6 F2'
_cell_volume   390.46597416
_cell_formula_units_Z   1
loop_
 _symmetry_equiv_pos_site_id
 _symmetry_equiv_pos_as_xyz
  1  'x, y, z'
loop_
 _atom_site_type_symbol
 _atom_site_label
 _atom_site_symmetry_multiplicity
 _atom_site_fract_x
 _atom_site_fract_y
 _atom_site_fract_z
 _atom_site_occupancy
 _atom_site_pbe_bader_charge
 _atom_site_pbe_bader_spin_density
 _atom_site_pbe_cm5_charge
 _atom_site_pbe_ddec_charge
 _atom_site_pbe_ddec_spin_density
 _atom_site_pbe_ddec_sum_bond_order
 _atom_site_pbe_magmom
Fe  Fe0  1  0.49998812  0.00000395  0.50000958  1  1.447752  3.672665  0.793116  0.857495  3.877713  2.880355  3.645
H  H1  1  0.78481923  0.72775292  0.49999642  1  0.183971  0.002971  0.135736  0.140479  0.000834  0.973814  0.002
H  H2  1  0.21520374  0.27225542  0.49997336  1  0.184176  0.002972  0.135674  0.140461  0.000834  0.973886  0.002
Pt  Pt3  1  0.99998506  0.99998490  0.00000825  1  0.533661  0.020291  0.521508  0.072491  0.027  4.686694  0.023
C  C4  1  0.81190326  0.01048680  0.81200769  1  0.851881  0.01643  0.011542  0.091386  0.009206  3.924367  0.019
C  C5  1  0.18806506  0.98947021  0.81200961  1  0.851911  0.016452  0.011414  0.091482  0.009218  3.923698  0.019
C  C6  1  0.18807340  0.98949323  0.18800491  1  0.851957  0.016431  0.011373  0.091207  0.009207  3.924793  0.019
C  C7  1  0.81190861  0.01050849  0.18801905  1  0.85193  0.016421  0.011374  0.09116  0.009202  3.924982  0.019
C  C8  1  0.65703229  0.62716788  0.50000138  1  0.566971  -0.020706  0.056621  -0.043702  -0.024903  3.890897  -0.011
C  C9  1  0.34105164  0.56367979  0.49998563  1  1.063594  -0.003879  0.239762  0.381359  -0.005754  4.061874  0.001
C  C10  1  0.34298820  0.37284191  0.49998446  1  0.567179  -0.02071  0.056751  -0.043852  -0.024906  3.891235  -0.011
C  C11  1  0.65896835  0.43632722  0.50000289  1  1.063989  -0.00389  0.240025  0.381424  -0.005754  4.062119  0.001
N  N12  1  0.70257504  0.01527229  0.69801891  1  -1.347724  0.059526  -0.374358  -0.371929  0.027257  3.389087  0.035
N  N13  1  0.29739133  0.98468553  0.69799532  1  -1.347536  0.0595  -0.37426  -0.372069  0.027255  3.38876  0.035
N  N14  1  0.29740814  0.98472859  0.30199236  1  -1.347666  0.059523  -0.374188  -0.371754  0.027257  3.389492  0.035
N  N15  1  0.70260021  0.01532355  0.30201327  1  -1.348052  0.059537  -0.374169  -0.371714  0.027254  3.389603  0.035
N  N16  1  0.49348755  0.69170776  0.49999474  1  -1.203305  0.021898  -0.296738  -0.256513  0.003944  3.512963  0.019
N  N17  1  0.50653021  0.30830210  0.49999511  1  -1.202251  0.021895  -0.296859  -0.256638  0.003946  3.513605  0.019
F  F18  1  0.17694582  0.62535072  0.49997784  1  -0.611019  0.001338  -0.067134  -0.125372  0.000596  1.390933  0.002
F  F19  1  0.82307194  0.37465914  0.50000398  1  -0.61142  0.001336  -0.067189  -0.125401  0.000596  1.390968  0.002
