# generated using pymatgen
data_DyH21(C7O3)4
_symmetry_space_group_name_H-M   'P 1'
_cell_length_a   9.61392517
_cell_length_b   11.42778207
_cell_length_c   12.45926918
_cell_angle_alpha   75.27449238
_cell_angle_beta   73.89232844
_cell_angle_gamma   73.35611744
_symmetry_Int_Tables_number   1
_chemical_formula_structural   DyH21(C7O3)4
_chemical_formula_sum   'Dy2 H42 C56 O24'
_cell_volume   1237.10426093
_cell_formula_units_Z   2
loop_
 _symmetry_equiv_pos_site_id
 _symmetry_equiv_pos_as_xyz
  1  'x, y, z'
loop_
 _atom_site_type_symbol
 _atom_site_label
 _atom_site_symmetry_multiplicity
 _atom_site_fract_x
 _atom_site_fract_y
 _atom_site_fract_z
 _atom_site_occupancy
 _atom_site_hle17_bader_spin_density
 _atom_site_hle17_ddec_charge
 _atom_site_hle17_ddec_spin_density
 _atom_site_hle17_ddec_sum_bond_order
 _atom_site_hle17_magmom
 _atom_site_hse06_10hf_bader_spin_density
 _atom_site_hse06_10hf_ddec_charge
 _atom_site_hse06_10hf_ddec_spin_density
 _atom_site_hse06_10hf_ddec_sum_bond_order
 _atom_site_hse06_10hf_magmom
 _atom_site_hse06_bader_spin_density
 _atom_site_hse06_ddec_charge
 _atom_site_hse06_ddec_spin_density
 _atom_site_hse06_ddec_sum_bond_order
 _atom_site_hse06_magmom
 _atom_site_pbe_bader_spin_density
 _atom_site_pbe_cm5_charge
 _atom_site_pbe_ddec_charge
 _atom_site_pbe_ddec_spin_density
 _atom_site_pbe_ddec_sum_bond_order
 _atom_site_pbe_magmom
Dy  Dy0  1  0.78229684  0.95517427  0.05364001  1  0  2.232668  0  1.626735  0  0  2.087335  0  2.097273  0  0  2.134961  0  2.056886  0  0  1.513068  2.05  0  2.130361  0
Dy  Dy1  1  0.21770250  0.04482582  0.94636048  1  0  2.232642  0  1.626727  0  0  2.087295  0  2.097288  0  0  2.134947  0  2.056869  0  0  1.513047  2.049972  0  2.130356  0
H  H2  1  0.59483886  0.76660007  0.43691200  1  0  0.092789  0  0.949287  0  0  0.10406  0  1.009848  0  0  0.107194  0  1.007622  0  0  0.104608  0.101679  0  1.011672  0
H  H3  1  0.40516073  0.23339909  0.56308785  1  0  0.092771  0  0.949318  0  0  0.104036  0  1.009888  0  0  0.107168  0  1.00766  0  0  0.104605  0.101655  0  1.011711  0
H  H4  1  0.43787282  0.76366894  0.63487418  1  0  0.087189  0  0.962374  0  0  0.097943  0  1.024873  0  0  0.100617  0  1.024383  0  0  0.098127  0.095913  0  1.025619  0
H  H5  1  0.56212977  0.23633118  0.36512638  1  0  0.08719  0  0.9624  0  0  0.097949  0  1.024892  0  0  0.100621  0  1.024404  0  0  0.098146  0.095918  0  1.025639  0
H  H6  1  0.20512825  0.92839208  0.66983749  1  0  0.103496  0  0.945788  0  0  0.115109  0  1.001492  0  0  0.118097  0  0.999426  0  0  0.107797  0.112871  0  1.003258  0
H  H7  1  0.79487191  0.07160896  0.33016339  1  0  0.103519  0  0.945763  0  0  0.115131  0  1.001465  0  0  0.118118  0  0.999399  0  0  0.107805  0.112893  0  1.003232  0
H  H8  1  0.12464991  0.08869609  0.50935786  1  0  0.11059  0  0.956636  0  0  0.122902  0  1.014151  0  0  0.125766  0  1.013783  0  0  0.106283  0.121293  0  1.01345  0
H  H9  1  0.87535077  0.91130308  0.49064175  1  0  0.110618  0  0.956596  0  0  0.122934  0  1.014102  0  0  0.125797  0  1.013735  0  0  0.1063  0.121325  0  1.0134  0
H  H10  1  0.30003640  0.27131523  0.39341528  1  0  0.112538  0  0.959564  0  0  0.123451  0  1.020044  0  0  0.126176  0  1.019552  0  0  0.107734  0.121341  0  1.020936  0
H  H11  1  0.69996450  0.72868300  0.60658209  1  0  0.11255  0  0.959616  0  0  0.123472  0  1.020083  0  0  0.126196  0  1.019593  0  0  0.107729  0.121361  0  1.020975  0
H  H12  1  0.13542525  0.48622844  0.39007697  1  0  0.100431  0  0.964427  0  0  0.107889  0  1.02957  0  0  0.110223  0  1.029301  0  0  0.103661  0.10626  0  1.029704  0
H  H13  1  0.86457971  0.51377075  0.60991927  1  0  0.100499  0  0.964344  0  0  0.107919  0  1.029528  0  0  0.110255  0  1.029258  0  0  0.103682  0.10629  0  1.029663  0
H  H14  1  0.86141538  0.39632842  0.21664860  1  0  0.097923  0  0.979833  0  0  0.105136  0  1.045469  0  0  0.106771  0  1.046553  0  0  0.104414  0.103748  0  1.045104  0
H  H15  1  0.13857993  0.60367071  0.78335462  1  0  0.09796  0  0.979812  0  0  0.105174  0  1.045439  0  0  0.106809  0  1.046524  0  0  0.10441  0.103788  0  1.045072  0
H  H16  1  0.03120687  0.18378411  0.21437240  1  0  0.131309  0  0.939217  0  0  0.139645  0  0.999335  0  0  0.143268  0  0.997752  0  0  0.115862  0.136964  0  1.000821  0
H  H17  1  0.96878869  0.81621409  0.78563018  1  0  0.131305  0  0.939247  0  0  0.139646  0  0.999359  0  0  0.143268  0  0.997777  0  0  0.115855  0.136964  0  1.000847  0
H  H18  1  0.48543130  0.51139156  0.66903701  1  0  0.107596  0  0.96906  0  0  0.117493  0  1.032143  0  0  0.120701  0  1.031249  0  0  0.104118  0.115291  0  1.032639  0
H  H19  1  0.51456883  0.48860946  0.33096227  1  0  0.107616  0  0.969041  0  0  0.117504  0  1.032131  0  0  0.120712  0  1.031236  0  0  0.104125  0.115303  0  1.032627  0
H  H20  1  0.65487498  0.48021760  0.48308448  1  0  0.08648  0  0.958868  0  0  0.097449  0  1.01896  0  0  0.099959  0  1.017665  0  0  0.099236  0.09558  0  1.019996  0
H  H21  1  0.34512542  0.51978250  0.51691497  1  0  0.08648  0  0.958877  0  0  0.097452  0  1.018966  0  0  0.099961  0  1.017671  0  0  0.099244  0.095584  0  1.020002  0
H  H22  1  0.86198427  0.28992467  0.47022432  1  0  0.081944  0  0.998553  0  0  0.089949  0  1.065847  0  0  0.091322  0  1.068584  0  0  0.092896  0.088924  0  1.064116  0
H  H23  1  0.13801508  0.71007542  0.52977697  1  0  0.08194  0  0.998571  0  0  0.089945  0  1.065869  0  0  0.091318  0  1.068608  0  0  0.09289  0.088919  0  1.06414  0
H  H24  1  0.89234941  0.13008780  0.64540818  1  0  0.095626  0  0.945382  0  0  0.108446  0  1.002352  0  0  0.111454  0  1.000088  0  0  0.106254  0.106192  0  1.004039  0
H  H25  1  0.10765020  0.86991136  0.35459247  1  0  0.09561  0  0.94542  0  0  0.108438  0  1.00238  0  0  0.111447  0  1.000111  0  0  0.106251  0.106185  0  1.004067  0
H  H26  1  0.24431472  0.35514166  0.99004998  1  0  0.135146  0  0.955089  0  0  0.143142  0  1.016663  0  0  0.147492  0  1.013909  0  0  0.112417  0.139968  0  1.018837  0
H  H27  1  0.75568381  0.64485749  0.00995091  1  0  0.135145  0  0.955113  0  0  0.143148  0  1.016672  0  0  0.147497  0  1.013919  0  0  0.112413  0.139972  0  1.018847  0
H  H28  1  0.05749590  0.54482540  0.04882506  1  0  0.09906  0  0.961977  0  0  0.108408  0  1.025341  0  0  0.110639  0  1.024743  0  0  0.104546  0.106989  0  1.025441  0
H  H29  1  0.94250452  0.45517470  0.95117519  1  0  0.099061  0  0.962  0  0  0.108424  0  1.025346  0  0  0.110656  0  1.024746  0  0  0.10455  0.107006  0  1.025445  0
H  H30  1  0.37207486  0.76919500  0.86725633  1  0  0.111938  0  0.956792  0  0  0.120187  0  1.019996  0  0  0.124248  0  1.016226  0  0  0.112404  0.117245  0  1.022808  0
H  H31  1  0.62792502  0.23080323  0.13274529  1  0  0.111963  0  0.9567  0  0  0.120213  0  1.019896  0  0  0.124274  0  1.016127  0  0  0.112422  0.117273  0  1.022709  0
H  H32  1  0.55898549  0.58092021  0.81141397  1  0  0.110442  0  0.957978  0  0  0.120449  0  1.018613  0  0  0.123124  0  1.019041  0  0  0.103805  0.11861  0  1.01832  0
H  H33  1  0.44101277  0.41907988  0.18858676  1  0  0.110449  0  0.95791  0  0  0.120469  0  1.018532  0  0  0.123144  0  1.018959  0  0  0.10381  0.118628  0  1.018244  0
H  H34  1  0.64748858  0.88972399  0.89278059  1  0  0.445913  0  0.825803  0  0  0.415981  0  0.89634  0  0  0.42551  0  0.882381  0  0  0.316551  0.409123  0  0.906423  0
H  H35  1  0.35251156  0.11027704  0.10721869  1  0  0.445918  0  0.825801  0  0  0.415982  0  0.896339  0  0  0.425512  0  0.882379  0  0  0.316549  0.409124  0  0.906423  0
H  H36  1  0.55119346  0.85019324  0.01311840  1  0  0.459189  0  0.833178  0  0  0.426435  0  0.89926  0  0  0.437964  0  0.882306  0  0  0.309724  0.418347  0  0.911123  0
H  H37  1  0.44880558  0.14980778  0.98688033  1  0  0.459186  0  0.83318  0  0  0.426429  0  0.899265  0  0  0.437958  0  0.882312  0  0  0.309718  0.41834  0  0.911131  0
H  H38  1  0.89793200  0.81940298  0.25901792  1  0  0.435191  0  0.864248  0  0  0.405375  0  0.926407  0  0  0.416267  0  0.910556  0  0  0.296181  0.397583  0  0.937777  0
H  H39  1  0.10206867  0.18059619  0.74098169  1  0  0.435126  0  0.864337  0  0  0.405316  0  0.926486  0  0  0.416209  0  0.910633  0  0  0.296163  0.397524  0  0.937854  0
H  H40  1  0.98717311  0.92673658  0.19806353  1  0  0.436216  0  0.868973  0  0  0.406285  0  0.931367  0  0  0.417253  0  0.915351  0  0  0.297673  0.398652  0  0.942506  0
H  H41  1  0.01282729  0.07326351  0.80193512  1  0  0.436218  0  0.868963  0  0  0.40628  0  0.931369  0  0  0.417249  0  0.915351  0  0  0.29767  0.398645  0  0.942511  0
H  H42  1  0.70961109  0.68945936  0.26318540  1  0  0.418445  0  0.866498  0  0  0.38525  0  0.948688  0  0  0.398234  0  0.933068  0  0  0.312708  0.376038  0  0.959045  0
H  H43  1  0.29039256  0.31054076  0.73681332  1  0  0.418436  0  0.866536  0  0  0.385245  0  0.948719  0  0  0.39823  0  0.93308  0  0  0.312698  0.376034  0  0.959073  0
C  C44  1  0.55317299  0.93178868  0.24924289  1  0  0.676258  0  3.883261  0  0  0.624873  0  4.178321  0  0  0.660466  0  4.168141  0  0  0.204109  0.600633  0  4.184629  0
C  C45  1  0.44682876  0.06821050  0.75075648  1  0  0.676168  0  3.883343  0  0  0.624833  0  4.178341  0  0  0.660427  0  4.168163  0  0  0.204077  0.600597  0  4.184643  0
C  C46  1  0.45021043  0.92889849  0.36286544  1  0  -0.166019  0  3.735296  0  0  -0.149435  0  3.975688  0  0  -0.161277  0  3.99823  0  0  -0.023565  -0.141708  0  3.960761  0
C  C47  1  0.54978754  0.07110252  0.63713433  1  0  -0.166072  0  3.735413  0  0  -0.149497  0  3.97579  0  0  -0.16134  0  3.99833  0  0  -0.023583  -0.141773  0  3.960862  0
C  C48  1  0.49096743  0.83623288  0.45421812  1  0  -0.042403  0  3.745078  0  0  -0.066383  0  3.995275  0  0  -0.064062  0  4.01616  0  0  -0.077979  -0.067962  0  3.981048  0
C  C49  1  0.50903406  0.16376722  0.54578108  1  0  -0.042365  0  3.745087  0  0  -0.066343  0  3.995272  0  0  -0.064016  0  4.016151  0  0  -0.07796  -0.067919  0  3.981044  0
C  C50  1  0.40412997  0.83501163  0.56414931  1  0  -0.098142  0  3.779442  0  0  -0.116184  0  4.040453  0  0  -0.121344  0  4.062528  0  0  -0.100681  -0.112525  0  4.025494  0
C  C51  1  0.59587016  0.16498940  0.43584918  1  0  -0.098068  0  3.779329  0  0  -0.116116  0  4.040351  0  0  -0.121275  0  4.062421  0  0  -0.100668  -0.11246  0  4.025395  0
C  C52  1  0.27293110  0.92658357  0.58395577  1  0  -0.011921  0  3.737272  0  0  -0.028525  0  3.991318  0  0  -0.025701  0  4.00991  0  0  -0.078335  -0.030326  0  3.978274  0
C  C53  1  0.72707039  0.07341653  0.41604424  1  0  -0.011973  0  3.737234  0  0  -0.028579  0  3.991291  0  0  -0.025756  0  4.009884  0  0  -0.078343  -0.03038  0  3.978249  0
C  C54  1  0.22807327  0.01819017  0.49428016  1  0  -0.199293  0  3.748456  0  0  -0.220077  0  4.004401  0  0  -0.227447  0  4.024726  0  0  -0.103166  -0.214482  0  3.988707  0
C  C55  1  0.77192550  0.98181177  0.50571761  1  0  -0.199362  0  3.748491  0  0  -0.220141  0  4.004424  0  0  -0.227512  0  4.02475  0  0  -0.103206  -0.214552  0  3.988737  0
C  C56  1  0.31628752  0.01974186  0.38420012  1  0  0.278578  0  3.737848  0  0  0.258854  0  4.002189  0  0  0.271874  0  4.017373  0  0  0.096798  0.249795  0  3.991859  0
C  C57  1  0.68371206  0.98025729  0.61579893  1  0  0.278638  0  3.737684  0  0  0.258939  0  4.002026  0  0  0.27196  0  4.017208  0  0  0.096817  0.249883  0  3.991689  0
C  C58  1  0.17359927  0.21708857  0.30349214  1  0  0.289495  0  3.764547  0  0  0.277873  0  4.026103  0  0  0.290258  0  4.040436  0  0  0.095498  0.269284  0  4.016398  0
C  C59  1  0.82640031  0.78291059  0.69650691  1  0  0.289379  0  3.764572  0  0  0.277809  0  4.026105  0  0  0.290194  0  4.040438  0  0  0.095458  0.26922  0  4.016395  0
C  C60  1  0.20433388  0.30022199  0.35433029  1  0  -0.183496  0  3.737938  0  0  -0.201871  0  3.988675  0  0  -0.208228  0  4.007592  0  0  -0.096161  -0.197819  0  3.976441  0
C  C61  1  0.79566813  0.69977625  0.64566844  1  0  -0.183439  0  3.737954  0  0  -0.201823  0  3.988661  0  0  -0.208179  0  4.007579  0  0  -0.096133  -0.197774  0  3.976426  0
C  C62  1  0.11234199  0.41905124  0.35298535  1  0  -0.031307  0  3.728076  0  0  -0.055575  0  3.975061  0  0  -0.052509  0  3.994548  0  0  -0.073457  -0.057416  0  3.96179  0
C  C63  1  0.88766109  0.58094700  0.64701234  1  0  -0.031372  0  3.728069  0  0  -0.055613  0  3.97507  0  0  -0.052548  0  3.994555  0  0  -0.073476  -0.057454  0  3.9618  0
C  C64  1  0.98833841  0.45441059  0.30349664  1  0  -0.103635  0  3.784638  0  0  -0.082024  0  4.019578  0  0  -0.092931  0  4.04337  0  0  -0.02363  -0.075105  0  4.003842  0
C  C65  1  0.01166308  0.54558951  0.69650257  1  0  -0.103616  0  3.784676  0  0  -0.082008  0  4.019617  0  0  -0.092914  0  4.04341  0  0  -0.023641  -0.07509  0  4.003883  0
C  C66  1  0.95775274  0.36907275  0.25473911  1  0  -0.037498  0  3.723729  0  0  -0.059131  0  3.969757  0  0  -0.056264  0  3.989475  0  0  -0.074726  -0.060794  0  3.956751  0
C  C67  1  0.04224606  0.63092547  0.74526274  1  0  -0.037579  0  3.723732  0  0  -0.059212  0  3.969768  0  0  -0.056347  0  3.989488  0  0  -0.074735  -0.060877  0  3.956763  0
C  C68  1  0.05083822  0.25077965  0.25362637  1  0  -0.171473  0  3.701455  0  0  -0.193906  0  3.958907  0  0  -0.199957  0  3.977027  0  0  -0.091992  -0.190014  0  3.946958  0
C  C69  1  0.94916057  0.74921857  0.74637468  1  0  -0.171432  0  3.701492  0  0  -0.193867  0  3.958916  0  0  -0.199917  0  3.977033  0  0  -0.091977  -0.189975  0  3.946967  0
C  C70  1  0.89342739  0.58235042  0.30207485  1  0  0.656296  0  3.811445  0  0  0.604688  0  4.111096  0  0  0.63865  0  4.101499  0  0  0.235224  0.581412  0  4.117473  0
C  C71  1  0.10657514  0.41764969  0.69792171  1  0  0.656223  0  3.81143  0  0  0.604608  0  4.111086  0  0  0.638569  0  4.101489  0  0  0.235202  0.581332  0  4.117463  0
C  C72  1  0.73120930  0.12852094  0.85434315  1  0  0.672743  0  3.870953  0  0  0.620444  0  4.164617  0  0  0.656266  0  4.154184  0  0  0.20277  0.596176  0  4.171133  0
C  C73  1  0.26879273  0.87148103  0.14565549  1  0  0.672842  0  3.8709  0  0  0.620486  0  4.16464  0  0  0.656306  0  4.15421  0  0  0.202825  0.596219  0  4.17116  0
C  C74  1  0.71087723  0.23052693  0.75559930  1  0  -0.175516  0  3.712895  0  0  -0.161446  0  3.958218  0  0  -0.173939  0  3.97888  0  0  -0.027638  -0.1534  0  3.945156  0
C  C75  1  0.28912076  0.76947408  0.24440127  1  0  -0.175522  0  3.712905  0  0  -0.161429  0  3.958237  0  0  -0.173924  0  3.978901  0  0  -0.027627  -0.153384  0  3.945179  0
C  C76  1  0.59654336  0.34050712  0.76241564  1  0  0.302535  0  3.714422  0  0  0.282044  0  3.974099  0  0  0.297471  0  3.987669  0  0  0.104825  0.271177  0  3.965  0
C  C77  1  0.40345598  0.65949297  0.23758485  1  0  0.302527  0  3.714374  0  0  0.282051  0  3.974041  0  0  0.297477  0  3.987614  0  0  0.104829  0.271181  0  3.964948  0
C  C78  1  0.57724063  0.42953219  0.66380867  1  0  -0.209155  0  3.762488  0  0  -0.230792  0  4.019154  0  0  -0.238649  0  4.038908  0  0  -0.107933  -0.225423  0  4.005275  0
C  C79  1  0.42275954  0.57046885  0.33619222  1  0  -0.209154  0  3.762445  0  0  -0.230778  0  4.019112  0  0  -0.238635  0  4.038866  0  0  -0.107907  -0.225409  0  4.005235  0
C  C80  1  0.67247261  0.41092891  0.55948847  1  0  -0.028237  0  3.76225  0  0  -0.039254  0  4.008106  0  0  -0.036749  0  4.027473  0  0  -0.083423  -0.040435  0  3.994629  0
C  C81  1  0.32752754  0.58907212  0.44051161  1  0  -0.028239  0  3.762187  0  0  -0.039257  0  4.008051  0  0  -0.036754  0  4.027418  0  0  -0.083435  -0.040436  0  3.994574  0
C  C82  1  0.78824222  0.30432822  0.55180861  1  0  -0.095322  0  3.784524  0  0  -0.111644  0  4.041046  0  0  -0.117418  0  4.064199  0  0  -0.101855  -0.107866  0  4.025051  0
C  C83  1  0.21175793  0.69567281  0.44819147  1  0  -0.095303  0  3.784528  0  0  -0.111629  0  4.041065  0  0  -0.117404  0  4.064221  0  0  -0.101855  -0.10785  0  4.025073  0
C  C84  1  0.80576206  0.21559933  0.64932708  1  0  -0.025556  0  3.73744  0  0  -0.052506  0  3.990447  0  0  -0.048299  0  4.0085  0  0  -0.077111  -0.055355  0  3.978329  0
C  C85  1  0.19423620  0.78440076  0.35067365  1  0  -0.025594  0  3.737512  0  0  -0.052551  0  3.990529  0  0  -0.048342  0  4.008581  0  0  -0.077141  -0.055401  0  3.978419  0
C  C86  1  0.40807060  0.45942964  0.89367392  1  0  0.302502  0  3.758382  0  0  0.288275  0  4.020954  0  0  0.301731  0  4.035012  0  0  0.096948  0.279046  0  4.011359  0
C  C87  1  0.59192874  0.54057045  0.10632657  1  0  0.30242  0  3.758465  0  0  0.288168  0  4.021092  0  0  0.301617  0  4.03516  0  0  0.096889  0.278944  0  4.011491  0
C  C88  1  0.26990488  0.44652786  0.96431252  1  0  -0.170287  0  3.704022  0  0  -0.193917  0  3.960958  0  0  -0.199889  0  3.977835  0  0  -0.094283  -0.189912  0  3.949499  0
C  C89  1  0.73009312  0.55347316  0.03568885  1  0  -0.170267  0  3.704045  0  0  -0.193886  0  3.960982  0  0  -0.199856  0  3.977863  0  0  -0.094264  -0.189881  0  3.949522  0
C  C90  1  0.08200158  0.78009148  0.98387199  1  0  0.702806  0  3.87994  0  0  0.65795  0  4.166358  0  0  0.694106  0  4.154685  0  0  0.222669  0.633297  0  4.173582  0
C  C91  1  0.91799747  0.21990954  0.01612754  1  0  0.702866  0  3.879935  0  0  0.657985  0  4.166395  0  0  0.694141  0  4.154721  0  0  0.222697  0.633332  0  4.173618  0
C  C92  1  0.20114601  0.66898553  0.95912051  1  0  -0.103699  0  3.769081  0  0  -0.083315  0  4.005394  0  0  -0.095009  0  4.029659  0  0  -0.028065  -0.075859  0  3.989202  0
C  C93  1  0.79885442  0.33101457  0.04088053  1  0  -0.103671  0  3.769086  0  0  -0.083282  0  4.00541  0  0  -0.094975  0  4.029673  0  0  -0.028001  -0.075826  0  3.989217  0
C  C94  1  0.16740407  0.55148953  0.99662772  1  0  -0.041682  0  3.742597  0  0  -0.063978  0  3.989644  0  0  -0.06128  0  4.010027  0  0  -0.079803  -0.065456  0  3.975366  0
C  C95  1  0.83259475  0.44851242  0.00337325  1  0  -0.041717  0  3.742535  0  0  -0.064032  0  3.989596  0  0  -0.061331  0  4.009971  0  0  -0.079839  -0.06551  0  3.975317  0
C  C96  1  0.34329444  0.67901211  0.89351802  1  0  -0.025693  0  3.702088  0  0  -0.052527  0  3.954066  0  0  -0.048396  0  3.971379  0  0  -0.074627  -0.054999  0  3.942246  0
C  C97  1  0.65670571  0.32098892  0.10648207  1  0  -0.025744  0  3.702043  0  0  -0.052567  0  3.954024  0  0  -0.048437  0  3.971338  0  0  -0.074636  -0.055036  0  3.942199  0
C  C98  1  0.44773844  0.57413766  0.86096150  1  0  -0.205155  0  3.761944  0  0  -0.222199  0  4.015549  0  0  -0.229895  0  4.035771  0  0  -0.102963  -0.21697  0  4.001728  0
C  C99  1  0.55226090  0.42586243  0.13903899  1  0  -0.205118  0  3.761893  0  0  -0.222158  0  4.015488  0  0  -0.229851  0  4.035712  0  0  -0.10297  -0.216934  0  4.001665  0
O  O100  1  0.65336136  0.86144557  0.97277619  1  0  -0.905369  0  1.851527  0  0  -0.860608  0  2.064512  0  0  -0.878792  0  2.033065  0  0  -0.63462  -0.847369  0  2.086471  0
O  O101  1  0.34663879  0.13855545  0.02722390  1  0  -0.905363  0  1.851516  0  0  -0.860604  0  2.064511  0  0  -0.87879  0  2.033063  0  0  -0.634618  -0.847366  0  2.086472  0
O  O102  1  0.88806500  0.90607689  0.21481842  1  0  -0.930512  0  1.888501  0  0  -0.881082  0  2.081625  0  0  -0.901414  0  2.051672  0  0  -0.653335  -0.866118  0  2.102464  0
O  O103  1  0.11193514  0.09392413  0.78518087  1  0  -0.930442  0  1.888559  0  0  -0.88101  0  2.081671  0  0  -0.901348  0  2.051721  0  0  -0.653313  -0.866047  0  2.102506  0
O  O104  1  0.56189599  0.03550287  0.18183776  1  0  -0.687217  0  1.992321  0  0  -0.639314  0  2.237432  0  0  -0.662495  0  2.226231  0  0  -0.378358  -0.622942  0  2.244889  0
O  O105  1  0.43810361  0.96449629  0.81816289  1  0  -0.687217  0  1.992313  0  0  -0.639323  0  2.237405  0  0  -0.662509  0  2.226204  0  0  -0.378364  -0.622954  0  2.244858  0
O  O106  1  0.63886253  0.83111536  0.21841963  1  0  -0.697021  0  2.030471  0  0  -0.633802  0  2.268082  0  0  -0.660144  0  2.258551  0  0  -0.356112  -0.614939  0  2.273882  0
O  O107  1  0.36113896  0.16888475  0.78157958  1  0  -0.696968  0  2.03042  0  0  -0.633772  0  2.268017  0  0  -0.660114  0  2.258481  0  0  -0.356101  -0.614914  0  2.273815  0
O  O108  1  0.84872234  0.03855064  0.84743956  1  0  -0.716963  0  2.02482  0  0  -0.660126  0  2.263847  0  0  -0.685234  0  2.253388  0  0  -0.36501  -0.642093  0  2.270492  0
O  O109  1  0.15127509  0.96144851  0.15256078  1  0  -0.716964  0  2.024726  0  0  -0.660137  0  2.263813  0  0  -0.685252  0  2.253364  0  0  -0.365021  -0.642106  0  2.270458  0
O  O110  1  0.63435877  0.12618057  0.94820124  1  0  -0.703667  0  2.126037  0  0  -0.649994  0  2.373798  0  0  -0.674453  0  2.363662  0  0  -0.369495  -0.632677  0  2.380195  0
O  O111  1  0.36564058  0.87381952  0.05180005  1  0  -0.703717  0  2.126091  0  0  -0.650023  0  2.373878  0  0  -0.674484  0  2.363742  0  0  -0.369533  -0.632708  0  2.380273  0
O  O112  1  0.11104763  0.88801135  0.95674414  1  0  -0.807633  0  2.12716  0  0  -0.750476  0  2.39395  0  0  -0.775986  0  2.381419  0  0  -0.428014  -0.732243  0  2.401575  0
O  O113  1  0.88895385  0.11198876  0.04325506  1  0  -0.807656  0  2.127083  0  0  -0.750498  0  2.393892  0  0  -0.776002  0  2.381361  0  0  -0.428033  -0.732267  0  2.401522  0
O  O114  1  0.76405369  0.59800682  0.27421601  1  0  -0.555385  0  2.109789  0  0  -0.504847  0  2.340917  0  0  -0.526888  0  2.325768  0  0  -0.325232  -0.48932  0  2.350283  0
O  O115  1  0.23594888  0.40199329  0.72578296  1  0  -0.555363  0  2.109752  0  0  -0.50483  0  2.340886  0  0  -0.52687  0  2.32572  0  0  -0.325221  -0.489302  0  2.350245  0
O  O116  1  0.93170122  0.66626182  0.32521880  1  0  -0.567811  0  1.958161  0  0  -0.520421  0  2.173707  0  0  -0.541879  0  2.165519  0  0  -0.288336  -0.505612  0  2.178987  0
O  O117  1  0.06830243  0.33373830  0.67477992  1  0  -0.567748  0  1.958232  0  0  -0.520354  0  2.173775  0  0  -0.541819  0  2.165606  0  0  -0.288325  -0.505548  0  2.179055  0
O  O118  1  0.50335504  0.35035923  0.86648164  1  0  -0.271273  0  2.430964  0  0  -0.19416  0  2.650343  0  0  -0.214713  0  2.654353  0  0  -0.129586  -0.179513  0  2.647256  0
O  O119  1  0.49664293  0.64964178  0.13351733  1  0  -0.271199  0  2.430944  0  0  -0.194113  0  2.650362  0  0  -0.214662  0  2.654376  0  0  -0.129559  -0.179464  0  2.647276  0
O  O120  1  0.26926404  0.10226470  0.29183130  1  0  -0.295962  0  2.389901  0  0  -0.222829  0  2.614652  0  0  -0.241751  0  2.616422  0  0  -0.141528  -0.209023  0  2.613024  0
O  O121  1  0.73073501  0.89773259  0.70816912  1  0  -0.295891  0  2.389814  0  0  -0.222841  0  2.614625  0  0  -0.241765  0  2.616395  0  0  -0.141495  -0.209039  0  2.612992  0
O  O122  1  0.94956002  0.76673660  0.02839269  1  0  -0.709048  0  1.989547  0  0  -0.660972  0  2.24011  0  0  -0.685061  0  2.229408  0  0  -0.397871  -0.643745  0  2.246992  0
O  O123  1  0.05044121  0.23326443  0.97160715  1  0  -0.709112  0  1.989598  0  0  -0.661012  0  2.240147  0  0  -0.685119  0  2.229472  0  0  -0.397911  -0.64379  0  2.247037  0
