# generated using pymatgen
data_AlH15C21(NO2)3
_symmetry_space_group_name_H-M   'P 1'
_cell_length_a   4.05027808
_cell_length_b   24.63427305
_cell_length_c   24.63431810
_cell_angle_alpha   120.00023824
_cell_angle_beta   90.00025227
_cell_angle_gamma   89.99996245
_symmetry_Int_Tables_number   1
_chemical_formula_structural   AlH15C21(NO2)3
_chemical_formula_sum   'Al2 H30 C42 N6 O12'
_cell_volume   2128.60327679
_cell_formula_units_Z   2
loop_
 _symmetry_equiv_pos_site_id
 _symmetry_equiv_pos_as_xyz
  1  'x, y, z'
loop_
 _atom_site_type_symbol
 _atom_site_label
 _atom_site_symmetry_multiplicity
 _atom_site_fract_x
 _atom_site_fract_y
 _atom_site_fract_z
 _atom_site_occupancy
 _atom_site_pbe_bader_charge
 _atom_site_pbe_bader_spin_density
 _atom_site_pbe_cm5_charge
 _atom_site_pbe_ddec_charge
 _atom_site_pbe_ddec_spin_density
 _atom_site_pbe_ddec_sum_bond_order
 _atom_site_pbe_magmom
Al  Al0  1  0.96430737  0.49999932  0.50000180  1  2.507506  0  0.43226  1.60516  0  2.564911  0
Al  Al1  1  0.96376420  0.16666636  0.83333437  1  2.508021  0  0.432094  1.605012  0  2.564742  0
H  H2  1  0.72337792  0.48974678  0.66289611  1  0.050177  0  0.103204  0.114915  0  0.994199  0
H  H3  1  0.72314894  0.17689248  0.67044021  1  0.052278  0  0.103322  0.115031  0  0.994121  0
H  H4  1  0.19529308  0.32864511  0.82194361  1  0.070203  0  0.09894  0.106204  0  1.001813  0
H  H5  1  0.20000546  0.38601395  0.76236506  1  0.065594  0  0.09254  0.086135  0  1.053112  0
H  H6  1  0.19557787  0.33801556  0.51136414  1  0.069011  0  0.098903  0.106276  0  1.001955  0
H  H7  1  0.20007967  0.28063406  0.57093425  1  0.065947  0  0.092599  0.08627  0  1.05295  0
H  H8  1  0.72337807  0.67314615  0.51025458  1  0.048143  0  0.103235  0.114962  0  0.994191  0
H  H9  1  0.72310262  0.99354552  0.82311206  1  0.046738  0  0.103276  0.11495  0  0.994125  0
H  H10  1  0.19533934  0.99329584  0.67135030  1  0.058764  0  0.098922  0.106152  0  1.001883  0
H  H11  1  0.20003723  0.87634677  0.61398149  1  0.070358  0  0.092557  0.08612  0  1.053086  0
H  H12  1  0.19557432  0.67334761  0.66198515  1  0.057889  0  0.098879  0.106226  0  1.001948  0
H  H13  1  0.20007826  0.79029866  0.71936579  1  0.070751  0  0.092576  0.086227  0  1.052978  0
H  H14  1  0.72338859  0.33710522  0.32685329  1  0.039733  0  0.103259  0.115011  0  0.994164  0
H  H15  1  0.72313011  0.32956078  0.00645514  1  0.040138  0  0.103332  0.115031  0  0.994082  0
H  H16  1  0.19530983  0.17805353  0.00670219  1  0.059145  0  0.098879  0.106118  0  1.001917  0
H  H17  1  0.20001217  0.23763172  0.12365080  1  0.069496  0  0.092514  0.086094  0  1.053237  0
H  H18  1  0.19555790  0.48863438  0.32665269  1  0.059284  0  0.098888  0.106275  0  1.001905  0
H  H19  1  0.20005987  0.42906460  0.20970218  1  0.070046  0  0.092566  0.086243  0  1.052865  0
H  H20  1  0.68849039  0.42219717  0.76330457  1  0.434731  0  0.293246  0.281536  0  0.996508  0
H  H21  1  0.77793838  0.48688579  0.75798318  1  0.41784  0  0.302163  0.290354  0  0.950532  0
H  H22  1  0.68856717  0.24444537  0.57002517  1  0.43458  0  0.293311  0.281785  0  0.996097  0
H  H23  1  0.77789949  0.17974960  0.57534977  1  0.417003  0  0.302155  0.290353  0  0.950923  0
H  H24  1  0.68851933  0.84110453  0.57780384  1  0.43845  0  0.293276  0.28158  0  0.996456  0
H  H25  1  0.77795197  0.77109405  0.51311549  1  0.415246  0  0.302153  0.290345  0  0.950569  0
H  H26  1  0.68855378  0.82557765  0.75555844  1  0.438223  0  0.293271  0.281702  0  0.996301  0
H  H27  1  0.77785454  0.89559867  0.82025504  1  0.414505  0  0.302101  0.290204  0  0.950884  0
H  H28  1  0.68850501  0.23669562  0.15889471  1  0.434364  0  0.293248  0.281531  0  0.996473  0
H  H29  1  0.77795904  0.24201760  0.22890369  1  0.41605  0  0.302164  0.290313  0  0.950525  0
H  H30  1  0.68854685  0.42997597  0.17442352  1  0.434992  0  0.293285  0.281767  0  0.996219  0
H  H31  1  0.77787809  0.42465239  0.10440407  1  0.415776  0  0.302138  0.290281  0  0.950775  0
C  C32  1  0.46420226  0.45124346  0.40370711  1  1.634595  0  0.285127  0.681379  0  4.027602  0
C  C33  1  0.46420169  0.45246122  0.54875561  1  1.56165  0  0.28519  0.681621  0  4.027522  0
C  C34  1  0.46419649  0.59629235  0.54753945  1  1.542094  0  0.285131  0.68136  0  4.027818  0
C  C35  1  0.46365214  0.21419900  0.78457809  1  1.566721  0  0.284744  0.680559  0  4.028316  0
C  C36  1  0.46364500  0.07037675  0.78580079  1  1.541239  0  0.284752  0.68072  0  4.028289  0
C  C37  1  0.46365157  0.21542115  0.92962302  1  1.632071  0  0.284726  0.680545  0  4.028363  0
C  C38  1  0.46308130  0.41724476  0.58366587  1  -0.024476  0  -0.01219  -0.007773  0  4.012013  0
C  C39  1  0.46273564  0.24940352  0.74965542  1  -0.0267  0  -0.012191  -0.007291  0  4.012132  0
C  C40  1  0.60480810  0.44394134  0.64297899  1  -0.007387  0  -0.102049  -0.226414  0  3.956737  0
C  C41  1  0.60568014  0.41210962  0.67699536  1  0.361594  0  0.097287  0.263522  0  4.066367  0
C  C42  1  0.60460171  0.22269936  0.69035168  1  -0.011543  0  -0.102192  -0.226745  0  3.956299  0
C  C43  1  0.60552213  0.25452857  0.65632483  1  0.363412  0  0.097252  0.263377  0  4.065649  0
C  C44  1  0.31755820  0.30879879  0.77657748  1  0.060231  0  -0.109553  -0.148318  0  4.04337  0
C  C45  1  0.32185124  0.34060790  0.74312770  1  -0.108012  0  -0.100817  -0.130817  0  4.059037  0
C  C46  1  0.31779719  0.35785228  0.55673433  1  0.059208  0  -0.10941  -0.148081  0  4.043345  0
C  C47  1  0.32199740  0.32603733  0.59017780  1  -0.108256  0  -0.100949  -0.131194  0  4.059224  0
C  C48  1  0.46483771  0.35132922  0.64984260  1  0.045767  0  -0.018195  -0.025282  0  3.941197  0
C  C49  1  0.46479871  0.31531564  0.68347481  1  0.010974  0  -0.018241  -0.025126  0  3.941067  0
C  C50  1  0.46306851  0.66641987  0.58275495  1  0.023865  0  -0.012236  -0.007722  0  4.011975  0
C  C51  1  0.46273114  0.00024987  0.75059765  1  0.025834  0  -0.012225  -0.007508  0  4.012243  0
C  C52  1  0.60480652  0.69903369  0.55605911  1  -0.052903  0  -0.102097  -0.226489  0  3.956951  0
C  C53  1  0.60568330  0.76488260  0.58788989  1  0.473401  0  0.097174  0.263357  0  4.066644  0
C  C54  1  0.60457193  0.96764981  0.77730256  1  -0.053775  0  -0.10212  -0.226535  0  3.95627  0
C  C55  1  0.60549996  0.90179472  0.74547310  1  0.472956  0  0.097296  0.263404  0  4.065488  0
C  C56  1  0.31758063  0.96777717  0.69119880  1  0.034787  0  -0.109528  -0.148182  0  4.043339  0
C  C57  1  0.32186398  0.90251770  0.65939075  1  -0.112714  0  -0.100893  -0.130884  0  4.058887  0
C  C58  1  0.31779031  0.69887961  0.64214865  1  0.035617  0  -0.109401  -0.148041  0  4.043159  0
C  C59  1  0.32199280  0.76413911  0.67396235  1  -0.114756  0  -0.100914  -0.131129  0  4.059146  0
C  C60  1  0.46483939  0.79850892  0.64866955  1  -0.079778  0  -0.018125  -0.02517  0  3.941101  0
C  C61  1  0.46480271  0.86815627  0.68468265  1  0.019523  0  -0.018284  -0.025226  0  3.940771  0
C  C62  1  0.46307309  0.41633428  0.33357948  1  -0.114144  0  -0.012208  -0.007605  0  4.011905  0
C  C63  1  0.46273397  0.25034315  0.99975081  1  -0.112633  0  -0.012257  -0.007374  0  4.012277  0
C  C64  1  0.60480871  0.35702219  0.30096578  1  0.074513  0  -0.102126  -0.226593  0  3.956753  0
C  C65  1  0.60568192  0.32300432  0.23511607  1  0.364383  0  0.097184  0.263359  0  4.066375  0
C  C66  1  0.60459047  0.30964758  0.03235011  1  0.073755  0  -0.102177  -0.226675  0  3.956361  0
C  C67  1  0.60550479  0.34367457  0.09820612  1  0.363986  0  0.097224  0.263335  0  4.065664  0
C  C68  1  0.31756588  0.22341961  0.03222383  1  -0.098253  0  -0.109474  -0.148169  0  4.04342  0
C  C69  1  0.32185034  0.25687178  0.09748393  1  -0.043313  0  -0.100819  -0.130817  0  4.059137  0
C  C70  1  0.31777889  0.44326461  0.30111946  1  -0.097132  0  -0.109384  -0.148136  0  4.043134  0
C  C71  1  0.32198768  0.40981903  0.23585846  1  -0.044061  0  -0.100859  -0.131062  0  4.058988  0
C  C72  1  0.46483678  0.35015651  0.20148999  1  0.120002  0  -0.018148  -0.025201  0  3.941235  0
C  C73  1  0.46479642  0.31652496  0.13184407  1  0.010745  0  -0.01829  -0.025256  0  3.94105  0
N  N74  1  0.75725070  0.43960198  0.73541447  1  -1.225175  0  -0.598758  -0.617604  0  3.366069  0
N  N75  1  0.75725914  0.22703114  0.59791667  1  -1.224449  0  -0.598737  -0.617796  0  3.365882  0
N  N76  1  0.75726754  0.79580881  0.56039893  1  -1.224348  0  -0.598667  -0.617516  0  3.366053  0
N  N77  1  0.75723563  0.87088262  0.77297124  1  -1.223092  0  -0.598659  -0.617576  0  3.365861  0
N  N78  1  0.75726133  0.26458644  0.20419156  1  -1.213725  0  -0.59869  -0.617458  0  3.36588  0
N  N79  1  0.75724777  0.40208452  0.12911764  1  -1.213578  0  -0.598649  -0.617662  0  3.365729  0
O  O80  1  0.69968422  0.56907894  0.55888719  1  -1.25856  0  -0.23685  -0.600944  0  2.342066  0
O  O81  1  0.69967774  0.48980587  0.43092331  1  -1.263672  0  -0.236887  -0.60095  0  2.342008  0
O  O82  1  0.69968874  0.44111279  0.51019478  1  -1.257402  0  -0.236856  -0.601036  0  2.342053  0
O  O83  1  0.22900971  0.56865868  0.50900809  1  -1.261162  0  -0.238165  -0.602061  0  2.339636  0
O  O84  1  0.22901051  0.49099194  0.55965282  1  -1.261359  0  -0.238234  -0.60219  0  2.339456  0
O  O85  1  0.22900891  0.44034630  0.43134094  1  -1.26138  0  -0.238171  -0.602123  0  2.339504  0
O  O86  1  0.69908450  0.17685238  0.90239966  1  -1.261501  0  -0.236637  -0.600542  0  2.342677  0
O  O87  1  0.69908091  0.22554530  0.82314865  1  -1.261941  0  -0.23669  -0.600617  0  2.342715  0
O  O88  1  0.69907555  0.09760014  0.77445473  1  -1.259225  0  -0.236673  -0.600616  0  2.342719  0
O  O89  1  0.22836611  0.22632285  0.90200952  1  -1.26156  0  -0.237882  -0.601697  0  2.339478  0
O  O90  1  0.22836778  0.09799190  0.82431629  1  -1.259629  0  -0.237861  -0.601757  0  2.339392  0
O  O91  1  0.22836699  0.17568448  0.77367820  1  -1.262311  0  -0.237925  -0.601744  0  2.339419  0
