# generated using pymatgen
data_CdH10C12N2O5
_symmetry_space_group_name_H-M   'P 1'
_cell_length_a   12.53583135
_cell_length_b   15.31820455
_cell_length_c   18.69241138
_cell_angle_alpha   89.99983047
_cell_angle_beta   90.00002337
_cell_angle_gamma   89.99983673
_symmetry_Int_Tables_number   1
_chemical_formula_structural   CdH10C12N2O5
_chemical_formula_sum   'Cd8 H80 C96 N16 O40'
_cell_volume   3589.43700235
_cell_formula_units_Z   8
loop_
 _symmetry_equiv_pos_site_id
 _symmetry_equiv_pos_as_xyz
  1  'x, y, z'
loop_
 _atom_site_type_symbol
 _atom_site_label
 _atom_site_symmetry_multiplicity
 _atom_site_fract_x
 _atom_site_fract_y
 _atom_site_fract_z
 _atom_site_occupancy
 _atom_site_pbe_bader_charge
 _atom_site_pbe_bader_spin_density
 _atom_site_pbe_cm5_charge
 _atom_site_pbe_ddec_charge
 _atom_site_pbe_ddec_spin_density
 _atom_site_pbe_ddec_sum_bond_order
 _atom_site_pbe_magmom
Cd  Cd0  1  0.20097082  0.22396801  0.31326271  1  1.259097  0  0.762483  0.855087  0  2.12537  0
Cd  Cd1  1  0.70096881  0.27602900  0.68673726  1  1.259137  0  0.762508  0.855079  0  2.125505  0
Cd  Cd2  1  0.79903155  0.72397132  0.18673489  1  1.259018  0  0.762506  0.855214  0  2.125314  0
Cd  Cd3  1  0.29903212  0.77602908  0.81325961  1  1.25908  0  0.762484  0.855105  0  2.125414  0
Cd  Cd4  1  0.79903163  0.77602939  0.68673452  1  1.258996  0  0.762499  0.855175  0  2.125357  0
Cd  Cd5  1  0.29903045  0.72396971  0.31325890  1  1.259137  0  0.762485  0.855077  0  2.125444  0
Cd  Cd6  1  0.20096771  0.27603065  0.81326180  1  1.259075  0  0.762493  0.855136  0  2.125386  0
Cd  Cd7  1  0.70096554  0.22397093  0.18673816  1  1.259069  0  0.762505  0.855115  0  2.125481  0
H  H8  1  0.41813926  0.39865632  0.48835069  1  0.099868  0  0.11157  0.121582  0  0.995177  0
H  H9  1  0.91814971  0.10134345  0.51165468  1  0.100021  0  0.111585  0.121546  0  0.995276  0
H  H10  1  0.58185213  0.89865097  0.01165077  1  0.099847  0  0.111554  0.121465  0  0.995319  0
H  H11  1  0.08186301  0.60134928  0.98834903  1  0.100038  0  0.111541  0.121521  0  0.995152  0
H  H12  1  0.58184883  0.60134499  0.51165190  1  0.09985  0  0.111596  0.121563  0  0.995244  0
H  H13  1  0.08186471  0.89865330  0.48835218  1  0.099881  0  0.111572  0.12159  0  0.99522  0
H  H14  1  0.41814554  0.10134904  0.98834539  1  0.10015  0  0.111588  0.121606  0  0.995235  0
H  H15  1  0.91814822  0.39864682  0.01165623  1  0.10011  0  0.111582  0.121534  0  0.995313  0
H  H16  1  0.55116676  0.40580435  0.58967416  1  0.091572  0  0.1158  0.084361  0  1.000714  0
H  H17  1  0.05117807  0.09419758  0.41033165  1  0.091609  0  0.115752  0.084392  0  1.000774  0
H  H18  1  0.44882335  0.90579982  0.91032880  1  0.091592  0  0.115787  0.084378  0  1.000718  0
H  H19  1  0.94882317  0.59419632  0.08966519  1  0.091588  0  0.115753  0.084382  0  1.000706  0
H  H20  1  0.44882134  0.59419893  0.41033056  1  0.091584  0  0.115749  0.084348  0  1.000744  0
H  H21  1  0.94883316  0.90580113  0.58967200  1  0.091674  0  0.115775  0.084302  0  1.000791  0
H  H22  1  0.55117192  0.09419693  0.08966789  1  0.091642  0  0.115766  0.08434  0  1.000774  0
H  H23  1  0.05117450  0.40579716  0.91033311  1  0.091706  0  0.115748  0.084349  0  1.00068  0
H  H24  1  0.63066971  0.14576469  0.56453327  1  0.110395  0  0.115246  0.083749  0  1.017532  0
H  H25  1  0.13067773  0.35423771  0.43547631  1  0.109084  0  0.115249  0.083786  0  1.017428  0
H  H26  1  0.36932290  0.64576286  0.93547193  1  0.109146  0  0.115222  0.083756  0  1.017452  0
H  H27  1  0.86932578  0.85423542  0.06452740  1  0.108949  0  0.11525  0.083781  0  1.017458  0
H  H28  1  0.36933114  0.85423990  0.43546878  1  0.110315  0  0.115246  0.08374  0  1.017449  0
H  H29  1  0.86932632  0.64576426  0.56452360  1  0.109161  0  0.115246  0.083842  0  1.017412  0
H  H30  1  0.63066918  0.35423780  0.06453279  1  0.110337  0  0.11525  0.083768  0  1.017412  0
H  H31  1  0.13067587  0.14575676  0.93547144  1  0.110228  0  0.115236  0.083778  0  1.017428  0
H  H32  1  0.49799004  0.12732813  0.46403581  1  0.112712  0  0.11434  0.126402  0  0.9873  0
H  H33  1  0.99798918  0.37267146  0.53597011  1  0.112617  0  0.114273  0.126361  0  0.987236  0
H  H34  1  0.50200470  0.62732484  0.03596684  1  0.112565  0  0.114329  0.126388  0  0.987256  0
H  H35  1  0.00201460  0.87267625  0.96403668  1  0.112856  0  0.114294  0.126401  0  0.987268  0
H  H36  1  0.50201082  0.87267318  0.53596570  1  0.11265  0  0.114326  0.126411  0  0.987257  0
H  H37  1  0.00200689  0.62733117  0.46402551  1  0.112627  0  0.114285  0.126379  0  0.987246  0
H  H38  1  0.49799775  0.37267517  0.96403253  1  0.112582  0  0.114333  0.126395  0  0.987233  0
H  H39  1  0.99799104  0.12731789  0.03596643  1  0.112745  0  0.114274  0.126344  0  0.987158  0
H  H40  1  0.22142703  0.42857612  0.33908203  1  0.127713  0  0.119149  0.101996  0  1.017469  0
H  H41  1  0.72142174  0.07142737  0.66091901  1  0.127694  0  0.119177  0.102086  0  1.01742  0
H  H42  1  0.77857223  0.92858414  0.16091400  1  0.127307  0  0.119113  0.10199  0  1.017456  0
H  H43  1  0.27858231  0.57141435  0.83908691  1  0.127454  0  0.119169  0.101993  0  1.017543  0
H  H44  1  0.77856664  0.57142062  0.66091788  1  0.127517  0  0.119155  0.102028  0  1.0174  0
H  H45  1  0.27857035  0.92857787  0.33907715  1  0.127414  0  0.119153  0.102055  0  1.017458  0
H  H46  1  0.22142384  0.07141979  0.83908269  1  0.127747  0  0.119137  0.101993  0  1.01746  0
H  H47  1  0.72143450  0.42858436  0.16091781  1  0.127338  0  0.119135  0.101951  0  1.0174  0
H  H48  1  0.11760758  0.56603364  0.32050319  1  0.179547  0  0.110564  0.133469  0  1.046334  0
H  H49  1  0.61760820  0.93396718  0.67950143  1  0.179662  0  0.110582  0.133516  0  1.046214  0
H  H50  1  0.88239695  0.06603904  0.17949426  1  0.179472  0  0.110546  0.133451  0  1.046278  0
H  H51  1  0.38240494  0.43395886  0.82050147  1  0.179631  0  0.11057  0.133488  0  1.04622  0
H  H52  1  0.88239168  0.43396441  0.67949404  1  0.17946  0  0.110562  0.13345  0  1.046358  0
H  H53  1  0.38238708  0.06603675  0.32049634  1  0.179598  0  0.11062  0.133549  0  1.046211  0
H  H54  1  0.11760630  0.93396358  0.82050137  1  0.179555  0  0.110576  0.133482  0  1.046323  0
H  H55  1  0.61761346  0.56604246  0.17949790  1  0.17941  0  0.110588  0.133457  0  1.046338  0
H  H56  1  0.91321597  0.42037100  0.17661459  1  0.147252  0  0.107313  0.124613  0  1.043859  0
H  H57  1  0.41321804  0.07962943  0.82339666  1  0.147019  0  0.107243  0.124514  0  1.043932  0
H  H58  1  0.08677933  0.92036697  0.32338842  1  0.147232  0  0.107294  0.124647  0  1.043856  0
H  H59  1  0.58678358  0.57963066  0.67660924  1  0.147115  0  0.107285  0.124618  0  1.04378  0
H  H60  1  0.08677212  0.57962705  0.82339067  1  0.147277  0  0.107295  0.124616  0  1.04386  0
H  H61  1  0.58678122  0.92037123  0.17660592  1  0.147122  0  0.107284  0.124605  0  1.043872  0
H  H62  1  0.91321834  0.07962912  0.67660935  1  0.147132  0  0.107313  0.124656  0  1.043799  0
H  H63  1  0.41322685  0.42037393  0.32339067  1  0.147252  0  0.107319  0.124663  0  1.043871  0
H  H64  1  0.02377062  0.28923846  0.20314733  1  0.12939  0  0.116512  0.097001  0  1.01498  0
H  H65  1  0.52376971  0.21076679  0.79685954  1  0.129117  0  0.11656  0.097152  0  1.014976  0
H  H66  1  0.97620999  0.78923836  0.29685920  1  0.129179  0  0.116534  0.097122  0  1.014868  0
H  H67  1  0.47622986  0.71076164  0.70315246  1  0.129471  0  0.116521  0.097013  0  1.014983  0
H  H68  1  0.97620870  0.71075698  0.79686274  1  0.129209  0  0.116556  0.097187  0  1.01482  0
H  H69  1  0.47622477  0.78923714  0.20314090  1  0.129216  0  0.116544  0.097089  0  1.014896  0
H  H70  1  0.02377172  0.21076165  0.70314552  1  0.129289  0  0.116493  0.097005  0  1.014968  0
H  H71  1  0.52378456  0.28924229  0.29685387  1  0.129246  0  0.116549  0.097095  0  1.014972  0
H  H72  1  0.27634370  0.12930363  0.20692663  1  0.590778  0  0.30362  0.385439  0  0.914369  0
H  H73  1  0.77634461  0.37069190  0.79307014  1  0.590845  0  0.303695  0.385603  0  0.914301  0
H  H74  1  0.72366140  0.62931325  0.29306959  1  0.590933  0  0.303739  0.385663  0  0.914255  0
H  H75  1  0.22364881  0.87069450  0.70692756  1  0.590887  0  0.303726  0.38561  0  0.914182  0
H  H76  1  0.72365875  0.87068724  0.79307114  1  0.59094  0  0.303748  0.385659  0  0.914243  0
H  H77  1  0.22364827  0.62930876  0.20692174  1  0.590951  0  0.303711  0.385635  0  0.914208  0
H  H78  1  0.27634583  0.37069590  0.70692817  1  0.590784  0  0.303691  0.385531  0  0.914255  0
H  H79  1  0.77634328  0.12930877  0.29307128  1  0.590848  0  0.303694  0.3856  0  0.914314  0
H  H80  1  0.38347413  0.17819889  0.22321608  1  0.640687  0  0.282605  0.385015  0  0.95636  0
H  H81  1  0.88347520  0.32179704  0.77677911  1  0.640642  0  0.282632  0.385061  0  0.956292  0
H  H82  1  0.61652841  0.67820491  0.27677949  1  0.64068  0  0.282634  0.385075  0  0.956267  0
H  H83  1  0.11651919  0.82179853  0.72321925  1  0.640559  0  0.282614  0.385033  0  0.956308  0
H  H84  1  0.61652593  0.82179590  0.77677954  1  0.640655  0  0.282651  0.385092  0  0.956242  0
H  H85  1  0.11651847  0.67820297  0.22321705  1  0.64058  0  0.28257  0.384941  0  0.956452  0
H  H86  1  0.38347644  0.32180033  0.72321721  1  0.64068  0  0.282661  0.385098  0  0.956227  0
H  H87  1  0.88347369  0.17820279  0.27677638  1  0.640652  0  0.282632  0.385041  0  0.956315  0
C  C88  1  0.36503970  0.25324457  0.41145762  1  1.566491  0  0.194145  0.551963  0  4.241015  0
C  C89  1  0.86504012  0.24675663  0.58854560  1  1.566064  0  0.194145  0.551748  0  4.241206  0
C  C90  1  0.63496177  0.75324209  0.08853937  1  1.56638  0  0.194134  0.551805  0  4.24109  0
C  C91  1  0.13496650  0.74675739  0.91146043  1  1.566406  0  0.194174  0.551813  0  4.241164  0
C  C92  1  0.63495876  0.74675413  0.58854229  1  1.566502  0  0.194132  0.551906  0  4.241172  0
C  C93  1  0.13495994  0.75324861  0.41145378  1  1.566497  0  0.194181  0.551867  0  4.241072  0
C  C94  1  0.36504068  0.24676380  0.91145625  1  1.566551  0  0.194099  0.551797  0  4.241025  0
C  C95  1  0.86504233  0.25323610  0.08854696  1  1.566646  0  0.194244  0.551893  0  4.240718  0
C  C96  1  0.44767164  0.26181457  0.46954536  1  -0.032675  0  0.007436  0.026597  0  3.93917  0
C  C97  1  0.94768082  0.23818252  0.53046429  1  -0.032688  0  0.007344  0.02643  0  3.939541  0
C  C98  1  0.55232103  0.76181052  0.03045749  1  -0.032546  0  0.007378  0.026712  0  3.939136  0
C  C99  1  0.05232902  0.73818914  0.96954550  1  -0.032985  0  0.007424  0.026698  0  3.939239  0
C  C100  1  0.55232204  0.73818544  0.53045668  1  -0.032512  0  0.007488  0.026642  0  3.939418  0
C  C101  1  0.05232243  0.76181814  0.46953775  1  -0.032464  0  0.007382  0.026585  0  3.939434  0
C  C102  1  0.44768302  0.23818883  0.96953760  1  -0.032726  0  0.007382  0.026528  0  3.939507  0
C  C103  1  0.94767583  0.26180695  0.03046189  1  -0.033299  0  0.007377  0.026469  0  3.939499  0
C  C104  1  0.46386429  0.34147657  0.50447923  1  0.006406  0  -0.076361  -0.141836  0  3.945886  0
C  C105  1  0.96387533  0.15852310  0.49552829  1  0.006663  0  -0.07644  -0.141826  0  3.946277  0
C  C106  1  0.53612923  0.84147218  0.99552389  1  0.006544  0  -0.076337  -0.141803  0  3.946051  0
C  C107  1  0.03613765  0.65852752  0.00447749  1  0.006692  0  -0.07635  -0.141849  0  3.945936  0
C  C108  1  0.53612699  0.65852475  0.49552496  1  0.006398  0  -0.07641  -0.141884  0  3.946174  0
C  C109  1  0.03613669  0.84147560  0.50447750  1  0.006364  0  -0.076442  -0.142001  0  3.946172  0
C  C110  1  0.46386844  0.15852587  0.00447120  1  0.006304  0  -0.076393  -0.141921  0  3.946045  0
C  C111  1  0.96386720  0.34146858  0.99552830  1  0.006561  0  -0.076371  -0.141804  0  3.946056  0
C  C112  1  0.53692209  0.34536195  0.56037465  1  0.478201  0  0.047375  0.094863  0  3.96187  0
C  C113  1  0.03693560  0.15463870  0.43963437  1  0.47785  0  0.047422  0.094811  0  3.962185  0
C  C114  1  0.46306903  0.84535859  0.93962901  1  0.478301  0  0.047455  0.094969  0  3.961913  0
C  C115  1  0.96306862  0.65463817  0.06036553  1  0.478249  0  0.047487  0.094926  0  3.961898  0
C  C116  1  0.46306920  0.65464002  0.43963008  1  0.478289  0  0.047479  0.095015  0  3.961939  0
C  C117  1  0.96307324  0.84536131  0.56036874  1  0.478036  0  0.047515  0.095086  0  3.961917  0
C  C118  1  0.53692864  0.15463881  0.06036876  1  0.47815  0  0.047484  0.095027  0  3.961692  0
C  C119  1  0.03692825  0.34535662  0.93963277  1  0.47778  0  0.047503  0.095055  0  3.961822  0
C  C120  1  0.58078620  0.19973455  0.54660293  1  0.473719  0  0.046886  0.091951  0  3.955835  0
C  C121  1  0.08079522  0.30026731  0.45340717  1  0.474676  0  0.046837  0.091718  0  3.955733  0
C  C122  1  0.41920383  0.69973254  0.95340215  1  0.474966  0  0.046848  0.091823  0  3.955763  0
C  C123  1  0.91921167  0.80026824  0.04659934  1  0.474828  0  0.046855  0.091816  0  3.955719  0
C  C124  1  0.41920987  0.80026873  0.45339965  1  0.473392  0  0.04684  0.091905  0  3.955626  0
C  C125  1  0.91920803  0.69973401  0.54659220  1  0.474586  0  0.046856  0.091665  0  3.95578  0
C  C126  1  0.58079224  0.30026616  0.04659776  1  0.473395  0  0.046881  0.091869  0  3.95569  0
C  C127  1  0.08079078  0.19972786  0.95340110  1  0.473695  0  0.046855  0.091813  0  3.955647  0
C  C128  1  0.50851975  0.18990525  0.49077065  1  -0.002209  0  -0.074689  -0.134284  0  3.933388  0
C  C129  1  0.00852638  0.31009416  0.50923890  1  -0.001681  0  -0.07452  -0.134025  0  3.933212  0
C  C130  1  0.49147556  0.68990012  0.00923078  1  -0.002198  0  -0.074624  -0.134168  0  3.933333  0
C  C131  1  0.99147842  0.81009854  0.99076698  1  -0.002274  0  -0.074591  -0.134192  0  3.933356  0
C  C132  1  0.49147791  0.81009672  0.50923193  1  -0.002106  0  -0.074665  -0.134231  0  3.933274  0
C  C133  1  0.99147607  0.68990585  0.49076208  1  -0.001856  0  -0.074537  -0.134128  0  3.933357  0
C  C134  1  0.50852529  0.31009794  0.99076699  1  -0.001626  0  -0.074602  -0.134108  0  3.933459  0
C  C135  1  0.00852084  0.18989886  0.00923400  1  -0.001707  0  -0.074575  -0.134062  0  3.933228  0
C  C136  1  0.15251894  0.42992368  0.30363822  1  0.47814  0  0.045043  0.08843  0  3.941631  0
C  C137  1  0.65251687  0.07007866  0.69636654  1  0.478173  0  0.045145  0.088509  0  3.941448  0
C  C138  1  0.84747872  0.92992815  0.19635995  1  0.478816  0  0.045141  0.088521  0  3.941523  0
C  C139  1  0.34748798  0.57007083  0.80364045  1  0.478102  0  0.045104  0.088576  0  3.9416  0
C  C140  1  0.84747393  0.57007306  0.69636222  1  0.478584  0  0.045162  0.088449  0  3.941454  0
C  C141  1  0.34747442  0.92992592  0.30363069  1  0.478393  0  0.045143  0.088407  0  3.941584  0
C  C142  1  0.15251895  0.07007382  0.80363622  1  0.477933  0  0.045073  0.088427  0  3.941589  0
C  C143  1  0.65252643  0.42992918  0.19636374  1  0.478582  0  0.045178  0.088541  0  3.941454  0
C  C144  1  0.09504117  0.50645297  0.29245926  1  -0.080119  0  -0.081052  -0.147562  0  3.924923  0
C  C145  1  0.59504239  0.99355051  0.70754803  1  -0.080841  0  -0.081141  -0.147756  0  3.925048  0
C  C146  1  0.90495879  0.00645430  0.20753780  1  -0.080529  0  -0.081038  -0.14754  0  3.924727  0
C  C147  1  0.40496496  0.49354289  0.79246008  1  -0.080681  0  -0.081093  -0.147689  0  3.924686  0
C  C148  1  0.90495490  0.49354443  0.70753904  1  -0.08049  0  -0.081097  -0.147478  0  3.924746  0
C  C149  1  0.40495368  0.00645211  0.29245188  1  -0.080966  0  -0.081182  -0.147677  0  3.924904  0
C  C150  1  0.09504446  0.99354310  0.79245569  1  -0.080558  0  -0.081113  -0.147583  0  3.924832  0
C  C151  1  0.59504946  0.50645777  0.20754197  1  -0.080554  0  -0.081131  -0.147509  0  3.924723  0
C  C152  1  0.00709645  0.50453844  0.24641596  1  -0.035329  0  0.000107  0.0114  0  3.959161  0
C  C153  1  0.50710248  0.99546198  0.75359344  1  -0.034435  0  0.000129  0.011444  0  3.959316  0
C  C154  1  0.99290112  0.00453679  0.25358324  1  -0.03506  0  0.000101  0.011448  0  3.959104  0
C  C155  1  0.49290326  0.49545955  0.74641145  1  -0.034981  0  9.2e-05  0.011532  0  3.958851  0
C  C156  1  0.99289803  0.49546157  0.75358394  1  -0.034766  0  7.7e-05  0.011238  0  3.959298  0
C  C157  1  0.49289279  0.00453868  0.24640807  1  -0.034425  0  0.000127  0.011414  0  3.959218  0
C  C158  1  0.00710133  0.99545996  0.74641025  1  -0.034813  0  0.000107  0.011394  0  3.95918  0
C  C159  1  0.50710717  0.50454242  0.25358792  1  -0.03487  0  0.000121  0.01141  0  3.959224  0
C  C160  1  0.98094024  0.42573768  0.21284587  1  -0.026422  0  -0.081645  -0.144805  0  3.931029  0
C  C161  1  0.48094231  0.07426456  0.78716486  1  -0.031087  0  -0.081614  -0.144565  0  3.930918  0
C  C162  1  0.01905583  0.92573524  0.28715552  1  -0.026299  0  -0.081666  -0.144845  0  3.931028  0
C  C163  1  0.51906412  0.57426189  0.71284426  1  -0.026216  0  -0.081573  -0.144786  0  3.930833  0
C  C164  1  0.01905024  0.57426103  0.78715671  1  -0.026567  0  -0.08162  -0.144631  0  3.931112  0
C  C165  1  0.51905376  0.92573806  0.21283665  1  -0.031175  0  -0.081639  -0.144733  0  3.931024  0
C  C166  1  0.98094422  0.07426086  0.71283957  1  -0.026484  0  -0.081678  -0.144862  0  3.931066  0
C  C167  1  0.48094950  0.42574204  0.28715779  1  -0.026217  0  -0.081641  -0.144788  0  3.931084  0
C  C168  1  0.04261091  0.35229213  0.22688791  1  0.466309  0  0.044511  0.096784  0  3.927832  0
C  C169  1  0.54261100  0.14771111  0.77312004  1  0.47108  0  0.044406  0.096442  0  3.928031  0
C  C170  1  0.95737905  0.85229281  0.27311526  1  0.466605  0  0.044448  0.09661  0  3.927895  0
C  C171  1  0.45739039  0.64770527  0.72688837  1  0.466195  0  0.044496  0.096783  0  3.927822  0
C  C172  1  0.95737559  0.64770396  0.77311842  1  0.466457  0  0.044419  0.096476  0  3.927927  0
C  C173  1  0.45738347  0.85229216  0.22688093  1  0.471246  0  0.044412  0.096601  0  3.927935  0
C  C174  1  0.04261303  0.14770590  0.72688464  1  0.466406  0  0.044571  0.096809  0  3.92801  0
C  C175  1  0.54262084  0.35229670  0.27311475  1  0.466496  0  0.044422  0.096644  0  3.927845  0
C  C176  1  0.94251890  0.58562784  0.23255421  1  1.565256  0  0.200747  0.555181  0  4.236329  0
C  C177  1  0.44252454  0.91437224  0.76745317  1  1.565205  0  0.200645  0.554814  0  4.236833  0
C  C178  1  0.05747917  0.08562502  0.26744533  1  1.564848  0  0.20067  0.554862  0  4.236714  0
C  C179  1  0.55748149  0.41437166  0.73254925  1  1.565121  0  0.200582  0.554836  0  4.236888  0
C  C180  1  0.05747717  0.41437218  0.76744570  1  1.565052  0  0.200844  0.555251  0  4.236537  0
C  C181  1  0.55747233  0.08562843  0.23254674  1  1.56516  0  0.200746  0.555025  0  4.236614  0
C  C182  1  0.94252248  0.91437107  0.73254976  1  1.565075  0  0.200774  0.555161  0  4.236405  0
C  C183  1  0.44252735  0.58562965  0.26745012  1  1.564825  0  0.200735  0.555025  0  4.236839  0
N  N184  1  0.59375291  0.27564611  0.58166627  1  -1.234248  0  -0.322035  -0.233472  0  3.496958  0
N  N185  1  0.09376457  0.22435506  0.41834330  1  -1.234191  0  -0.321993  -0.233349  0  3.497064  0
N  N186  1  0.40624164  0.77564361  0.91833648  1  -1.234476  0  -0.322057  -0.23353  0  3.496989  0
N  N187  1  0.90624339  0.72435263  0.08165857  1  -1.234013  0  -0.322082  -0.233511  0  3.496928  0
N  N188  1  0.40624396  0.72435652  0.41833739  1  -1.234189  0  -0.322057  -0.233577  0  3.496993  0
N  N189  1  0.90624586  0.77564495  0.58165874  1  -1.23408  0  -0.322091  -0.233437  0  3.496929  0
N  N190  1  0.59375602  0.22435445  0.08166182  1  -1.234332  0  -0.322104  -0.233556  0  3.496818  0
N  N191  1  0.09375747  0.27564150  0.91833866  1  -1.233942  0  -0.322096  -0.233616  0  3.497108  0
N  N192  1  0.12646894  0.35375231  0.27205758  1  -1.236124  0  -0.326582  -0.240591  0  3.507675  0
N  N193  1  0.62646662  0.14625270  0.72794878  1  -1.23587  0  -0.326555  -0.240521  0  3.507642  0
N  N194  1  0.87352340  0.85375530  0.22794291  1  -1.236099  0  -0.326589  -0.24065  0  3.507604  0
N  N195  1  0.37353637  0.64624493  0.77206124  1  -1.235509  0  -0.326593  -0.240681  0  3.507634  0
N  N196  1  0.87352154  0.64624444  0.72794607  1  -1.236122  0  -0.326573  -0.240586  0  3.507664  0
N  N197  1  0.37352706  0.85375122  0.27205059  1  -1.23582  0  -0.326517  -0.240486  0  3.507811  0
N  N198  1  0.12646948  0.14624471  0.77205432  1  -1.235587  0  -0.326541  -0.240564  0  3.507798  0
N  N199  1  0.62647725  0.35375573  0.22794349  1  -1.2361  0  -0.326606  -0.24066  0  3.507578  0
O  O200  1  0.34429769  0.17697656  0.38820977  1  -1.154488  0  -0.328526  -0.548701  0  2.202953  0
O  O201  1  0.84430104  0.32302469  0.61179344  1  -1.154129  0  -0.328451  -0.548491  0  2.202939  0
O  O202  1  0.65570326  0.67697590  0.11179062  1  -1.1545  0  -0.328552  -0.548708  0  2.203055  0
O  O203  1  0.15571169  0.82302287  0.88820920  1  -1.154501  0  -0.328557  -0.548655  0  2.203085  0
O  O204  1  0.65570477  0.82302084  0.61179120  1  -1.154416  0  -0.328565  -0.548715  0  2.20295  0
O  O205  1  0.15570301  0.67698316  0.38820112  1  -1.154306  0  -0.328483  -0.54855  0  2.202918  0
O  O206  1  0.34429999  0.32303129  0.88820929  1  -1.154309  0  -0.328534  -0.548634  0  2.202946  0
O  O207  1  0.84429315  0.17696865  0.11179124  1  -1.15434  0  -0.328573  -0.548686  0  2.202832  0
O  O208  1  0.31891579  0.32211762  0.38945502  1  -1.178012  0  -0.327287  -0.572555  0  2.205152  0
O  O209  1  0.81891327  0.17788369  0.61054605  1  -1.177999  0  -0.327305  -0.572458  0  2.205184  0
O  O210  1  0.68108544  0.82211625  0.11054020  1  -1.177875  0  -0.327243  -0.572508  0  2.205169  0
O  O211  1  0.18108801  0.67788442  0.88945534  1  -1.177968  0  -0.327293  -0.572512  0  2.205138  0
O  O212  1  0.68108667  0.67788239  0.61054168  1  -1.178009  0  -0.327268  -0.572537  0  2.205287  0
O  O213  1  0.18108440  0.82212220  0.38945226  1  -1.178223  0  -0.327335  -0.572549  0  2.205172  0
O  O214  1  0.31891302  0.17789159  0.88945275  1  -1.178269  0  -0.327213  -0.572475  0  2.20507  0
O  O215  1  0.81892721  0.32211298  0.11055420  1  -1.178371  0  -0.327275  -0.572425  0  2.204891  0
O  O216  1  0.98749784  0.65968084  0.23853088  1  -1.179594  0  -0.312023  -0.561592  0  2.236845  0
O  O217  1  0.48750453  0.84032109  0.76147490  1  -1.179658  0  -0.312046  -0.561438  0  2.236963  0
O  O218  1  0.01249758  0.15967880  0.26147490  1  -1.179496  0  -0.312001  -0.561423  0  2.236954  0
O  O219  1  0.51250176  0.34031929  0.73852074  1  -1.179523  0  -0.312011  -0.561527  0  2.237081  0
O  O220  1  0.01249743  0.34031917  0.76147384  1  -1.17959  0  -0.312023  -0.561564  0  2.2369  0
O  O221  1  0.51249393  0.15968023  0.23852447  1  -1.179747  0  -0.312012  -0.561466  0  2.236979  0
O  O222  1  0.98750008  0.84031664  0.73852608  1  -1.17965  0  -0.312054  -0.561625  0  2.236879  0
O  O223  1  0.48750389  0.65968333  0.26147703  1  -1.179432  0  -0.31198  -0.561477  0  2.237059  0
O  O224  1  0.84534068  0.57612360  0.21391937  1  -1.162162  0  -0.325471  -0.552296  0  2.202714  0
O  O225  1  0.34534310  0.92387735  0.78608691  1  -1.162128  0  -0.325371  -0.552113  0  2.202814  0
O  O226  1  0.15465743  0.07612246  0.28608447  1  -1.161981  0  -0.325392  -0.552121  0  2.202823  0
O  O227  1  0.65466130  0.42387270  0.71391495  1  -1.162133  0  -0.325372  -0.552115  0  2.202967  0
O  O228  1  0.15465460  0.42387641  0.78608107  1  -1.162047  0  -0.325589  -0.552378  0  2.202889  0
O  O229  1  0.65465297  0.07612528  0.21391514  1  -1.162076  0  -0.325509  -0.552302  0  2.202846  0
O  O230  1  0.84534342  0.92387494  0.71391704  1  -1.162094  0  -0.325503  -0.552296  0  2.202735  0
O  O231  1  0.34534833  0.57612535  0.28608496  1  -1.161992  0  -0.325534  -0.552312  0  2.202904  0
O  O232  1  0.30608315  0.18801282  0.21106033  1  -1.202333  0  -0.589801  -0.738264  0  1.99082  0
O  O233  1  0.80608586  0.31198199  0.78893646  1  -1.202332  0  -0.589902  -0.738458  0  1.990802  0
O  O234  1  0.69391856  0.68802187  0.28893469  1  -1.202461  0  -0.589962  -0.738558  0  1.990749  0
O  O235  1  0.19390936  0.81198465  0.71106086  1  -1.202341  0  -0.589892  -0.738414  0  1.990672  0
O  O236  1  0.69391611  0.81197871  0.78893477  1  -1.202414  0  -0.589971  -0.738554  0  1.990744  0
O  O237  1  0.19390702  0.68801867  0.21105810  1  -1.202417  0  -0.589838  -0.73837  0  1.990786  0
O  O238  1  0.30608629  0.31198597  0.71106201  1  -1.202306  0  -0.589919  -0.738405  0  1.99071  0
O  O239  1  0.80608432  0.18801798  0.28893477  1  -1.202322  0  -0.589898  -0.738436  0  1.990839  0
