# generated using pymatgen
data_RbH12C6SNO3
_symmetry_space_group_name_H-M   'P 1'
_cell_length_a   6.39486802
_cell_length_b   8.62626035
_cell_length_c   17.47882266
_cell_angle_alpha   93.58327035
_cell_angle_beta   100.53794652
_cell_angle_gamma   89.98733034
_symmetry_Int_Tables_number   1
_chemical_formula_structural   RbH12C6SNO3
_chemical_formula_sum   'Rb4 H48 C24 S4 N4 O12'
_cell_volume   946.02111631
_cell_formula_units_Z   4
loop_
 _symmetry_equiv_pos_site_id
 _symmetry_equiv_pos_as_xyz
  1  'x, y, z'
loop_
 _atom_site_type_symbol
 _atom_site_label
 _atom_site_symmetry_multiplicity
 _atom_site_fract_x
 _atom_site_fract_y
 _atom_site_fract_z
 _atom_site_occupancy
 _atom_site_hle17_bader_spin_density
 _atom_site_hle17_ddec_charge
 _atom_site_hle17_ddec_spin_density
 _atom_site_hle17_ddec_sum_bond_order
 _atom_site_hle17_magmom
 _atom_site_hse06_10hf_bader_spin_density
 _atom_site_hse06_10hf_ddec_charge
 _atom_site_hse06_10hf_ddec_spin_density
 _atom_site_hse06_10hf_ddec_sum_bond_order
 _atom_site_hse06_10hf_magmom
 _atom_site_hse06_bader_spin_density
 _atom_site_hse06_ddec_charge
 _atom_site_hse06_ddec_spin_density
 _atom_site_hse06_ddec_sum_bond_order
 _atom_site_hse06_magmom
 _atom_site_pbe_bader_spin_density
 _atom_site_pbe_cm5_charge
 _atom_site_pbe_ddec_charge
 _atom_site_pbe_ddec_spin_density
 _atom_site_pbe_ddec_sum_bond_order
 _atom_site_pbe_magmom
Rb  Rb0  1  0.28798294  0.88306921  0.43558121  1  0  0.949489  0  0.559247  0  0  0.899046  0  0.784985  0  0  0.914129  0  0.761171  0  0  0.919618  0.887673  0  0.802744  0
Rb  Rb1  1  0.85256581  0.61699327  0.56434743  1  0  0.949324  0  0.559223  0  0  0.898618  0  0.785052  0  0  0.913606  0  0.761434  0  0  0.919163  0.887402  0  0.80252  0
Rb  Rb2  1  0.71202799  0.11693205  0.56442327  1  0  0.94947  0  0.559239  0  0  0.899011  0  0.784988  0  0  0.914099  0  0.761176  0  0  0.919594  0.887649  0  0.802736  0
Rb  Rb3  1  0.14743717  0.38300680  0.43565533  1  0  0.949308  0  0.559239  0  0  0.89862  0  0.785062  0  0  0.913609  0  0.761437  0  0  0.919153  0.887398  0  0.802529  0
H  H4  1  0.92683643  0.74618856  0.23698591  1  0  0.038516  0  0.915499  0  0  0.05656  0  0.973013  0  0  0.056337  0  0.973927  0  0  0.110494  0.056651  0  0.97237  0
H  H5  1  0.69007385  0.75373260  0.76293839  1  0  0.038102  0  0.914488  0  0  0.056033  0  0.97215  0  0  0.055787  0  0.973056  0  0  0.110305  0.056123  0  0.971496  0
H  H6  1  0.07316644  0.25380455  0.76301780  1  0  0.038463  0  0.915686  0  0  0.056486  0  0.973182  0  0  0.056261  0  0.974102  0  0  0.110467  0.056576  0  0.972544  0
H  H7  1  0.30991966  0.24627088  0.23705981  1  0  0.038128  0  0.91443  0  0  0.05597  0  0.97216  0  0  0.055737  0  0.97308  0  0  0.110274  0.056059  0  0.971509  0
H  H8  1  0.59418071  0.99770044  0.19473216  1  0  0.074667  0  0.925919  0  0  0.096196  0  0.982071  0  0  0.096612  0  0.983251  0  0  0.09163  0.095829  0  0.981401  0
H  H9  1  0.40025139  0.50194730  0.80523927  1  0  0.074646  0  0.927234  0  0  0.095721  0  0.983969  0  0  0.096122  0  0.985193  0  0  0.091838  0.095345  0  0.983294  0
H  H10  1  0.40581571  0.00228567  0.80526864  1  0  0.074727  0  0.925753  0  0  0.096189  0  0.981971  0  0  0.096605  0  0.983154  0  0  0.091649  0.095824  0  0.981296  0
H  H11  1  0.59975169  0.49805853  0.19476022  1  0  0.074627  0  0.927267  0  0  0.095677  0  0.983994  0  0  0.096085  0  0.98522  0  0  0.09181  0.095301  0  0.983318  0
H  H12  1  0.53913095  0.80043272  0.20577275  1  0  0.077997  0  0.957865  0  0  0.09127  0  1.026046  0  0  0.092931  0  1.025463  0  0  0.089136  0.090015  0  1.026754  0
H  H13  1  0.33369894  0.69929227  0.79421289  1  0  0.078609  0  0.955986  0  0  0.091854  0  1.024322  0  0  0.093482  0  1.023772  0  0  0.088961  0.090617  0  1.025018  0
H  H14  1  0.46086078  0.19956157  0.79423195  1  0  0.077991  0  0.958033  0  0  0.091286  0  1.026121  0  0  0.092948  0  1.025536  0  0  0.089122  0.090029  0  1.026835  0
H  H15  1  0.66629944  0.30071701  0.20578466  1  0  0.07858  0  0.956104  0  0  0.091821  0  1.024413  0  0  0.093451  0  1.023864  0  0  0.088954  0.090582  0  1.025104  0
H  H16  1  0.71493289  0.71833161  0.09415622  1  0  0.049129  0  0.949842  0  0  0.068909  0  1.014494  0  0  0.069386  0  1.015041  0  0  0.08323  0.068488  0  1.014037  0
H  H17  1  0.62101669  0.78146765  0.90579801  1  0  0.049349  0  0.950637  0  0  0.068953  0  1.015295  0  0  0.069388  0  1.015888  0  0  0.083216  0.068566  0  1.014793  0
H  H18  1  0.28506659  0.28164876  0.90584920  1  0  0.049171  0  0.949659  0  0  0.06892  0  1.01443  0  0  0.069392  0  1.014989  0  0  0.08325  0.068506  0  1.013966  0
H  H19  1  0.37898022  0.21854974  0.09419852  1  0  0.049342  0  0.950713  0  0  0.068954  0  1.015375  0  0  0.069388  0  1.015972  0  0  0.083202  0.068566  0  1.014873  0
H  H20  1  0.51179321  0.85186717  0.06421871  1  0  0.056787  0  0.942002  0  0  0.075843  0  1.004565  0  0  0.07668  0  1.0049  0  0  0.08619  0.074851  0  1.004946  0
H  H21  1  0.44813405  0.64769973  0.93573157  1  0  0.057575  0  0.941547  0  0  0.076412  0  1.003924  0  0  0.077226  0  1.004286  0  0  0.086145  0.075448  0  1.004277  0
H  H22  1  0.48819365  0.14811659  0.93578079  1  0  0.056794  0  0.942  0  0  0.075874  0  1.004576  0  0  0.07673  0  1.004888  0  0  0.086179  0.074882  0  1.004958  0
H  H23  1  0.55186437  0.35231304  0.06426665  1  0  0.057585  0  0.94152  0  0  0.076481  0  1.003849  0  0  0.077299  0  1.004205  0  0  0.086201  0.075511  0  1.00421  0
H  H24  1  0.84765593  0.91196210  0.01505207  1  0  0.056878  0  0.957813  0  0  0.077126  0  1.018577  0  0  0.077532  0  1.019485  0  0  0.085706  0.076724  0  1.018044  0
H  H25  1  0.83329000  0.58792951  0.98483140  1  0  0.0569  0  0.957448  0  0  0.077039  0  1.018301  0  0  0.077531  0  1.019102  0  0  0.085509  0.076585  0  1.017823  0
H  H26  1  0.15234035  0.08801119  0.98494551  1  0  0.056913  0  0.957915  0  0  0.077224  0  1.01855  0  0  0.077626  0  1.019467  0  0  0.085808  0.07682  0  1.018019  0
H  H27  1  0.16671652  0.41209491  0.01516941  1  0  0.056914  0  0.957551  0  0  0.077029  0  1.018396  0  0  0.077521  0  1.019195  0  0  0.085484  0.076572  0  1.017922  0
H  H28  1  0.77705605  0.06608402  0.07670165  1  0  0.055433  0  0.937109  0  0  0.076683  0  0.997761  0  0  0.077165  0  0.998373  0  0  0.085326  0.076212  0  0.997264  0
H  H29  1  0.70130929  0.43372669  0.92324282  1  0  0.055309  0  0.937328  0  0  0.076152  0  0.998027  0  0  0.076581  0  0.998721  0  0  0.085082  0.07572  0  0.997493  0
H  H30  1  0.22294351  0.93389504  0.92329402  1  0  0.055598  0  0.937081  0  0  0.076834  0  0.997711  0  0  0.077318  0  0.998318  0  0  0.085406  0.076361  0  0.997214  0
H  H31  1  0.29869391  0.56628845  0.07675866  1  0  0.055272  0  0.93755  0  0  0.076092  0  0.998254  0  0  0.076523  0  0.998944  0  0  0.085045  0.075655  0  0.997721  0
H  H32  1  0.16410716  0.01732624  0.11235913  1  0  0.052207  0  0.960484  0  0  0.067739  0  1.03019  0  0  0.068742  0  1.029996  0  0  0.08355  0.067336  0  1.030013  0
H  H33  1  0.05255384  0.48271394  0.88747184  1  0  0.052596  0  0.960916  0  0  0.068027  0  1.030897  0  0  0.069052  0  1.030683  0  0  0.083511  0.067606  0  1.03073  0
H  H34  1  0.83588619  0.98266445  0.88763700  1  0  0.052205  0  0.960291  0  0  0.067722  0  1.030046  0  0  0.068727  0  1.029841  0  0  0.083539  0.067319  0  1.02986  0
H  H35  1  0.94744289  0.51729187  0.11252607  1  0  0.05265  0  0.960886  0  0  0.068033  0  1.030894  0  0  0.06906  0  1.030681  0  0  0.083478  0.067609  0  1.030728  0
H  H36  1  0.11600463  0.81920807  0.12270296  1  0  0.056347  0  0.937189  0  0  0.078008  0  0.9962  0  0  0.078112  0  0.997619  0  0  0.086944  0.078173  0  0.994955  0
H  H37  1  0.99362278  0.68079560  0.87714543  1  0  0.055934  0  0.936611  0  0  0.078332  0  0.995126  0  0  0.078379  0  0.996651  0  0  0.086882  0.078495  0  0.993876  0
H  H38  1  0.88399503  0.18078270  0.87729932  1  0  0.056331  0  0.937227  0  0  0.077991  0  0.996249  0  0  0.078093  0  0.997668  0  0  0.086946  0.078136  0  0.995026  0
H  H39  1  0.00637720  0.31921367  0.12285108  1  0  0.055986  0  0.936495  0  0  0.078313  0  0.995051  0  0  0.078393  0  0.996532  0  0  0.086877  0.078475  0  0.993804  0
H  H40  1  0.19070710  0.96248897  0.25283862  1  0  0.076904  0  0.938288  0  0  0.092174  0  1.004381  0  0  0.093979  0  1.003326  0  0  0.096044  0.090679  0  1.005525  0
H  H41  1  0.93832397  0.53758666  0.74704616  1  0  0.076812  0  0.938705  0  0  0.091811  0  1.004658  0  0  0.093658  0  1.003551  0  0  0.096155  0.090286  0  1.005845  0
H  H42  1  0.80929273  0.03751105  0.74716049  1  0  0.07691  0  0.938351  0  0  0.092174  0  1.004477  0  0  0.093979  0  1.003423  0  0  0.096028  0.090681  0  1.005626  0
H  H43  1  0.06166954  0.46241565  0.25295087  1  0  0.076879  0  0.938675  0  0  0.091858  0  1.004617  0  0  0.093708  0  1.003514  0  0  0.09616  0.09033  0  1.005803  0
H  H44  1  0.98417405  0.09427359  0.22342077  1  0  0.077188  0  0.927078  0  0  0.097054  0  0.986799  0  0  0.097816  0  0.987231  0  0  0.096659  0.096421  0  0.98656  0
H  H45  1  0.76158795  0.40557804  0.77643154  1  0  0.076902  0  0.9278  0  0  0.096666  0  0.987312  0  0  0.097395  0  0.987767  0  0  0.096173  0.096056  0  0.987061  0
H  H46  1  0.01582258  0.90572407  0.77657577  1  0  0.077157  0  0.92714  0  0  0.097045  0  0.986869  0  0  0.097805  0  0.987301  0  0  0.096657  0.096412  0  0.98663  0
H  H47  1  0.23840721  0.59443011  0.22356862  1  0  0.076918  0  0.927719  0  0  0.096653  0  0.98726  0  0  0.097386  0  0.987717  0  0  0.096162  0.096038  0  0.987015  0
H  H48  1  0.80973519  0.01842150  0.33293436  1  0  0.314867  0  0.930389  0  0  0.298421  0  0.994467  0  0  0.306214  0  0.987802  0  0  0.302452  0.292443  0  0.999999  0
H  H49  1  0.47698161  0.48150726  0.66700331  1  0  0.313678  0  0.932663  0  0  0.297727  0  0.996181  0  0  0.30542  0  0.989601  0  0  0.302168  0.291843  0  1.001582  0
H  H50  1  0.19026777  0.98157740  0.66706780  1  0  0.314872  0  0.930424  0  0  0.298426  0  0.994479  0  0  0.306211  0  0.987828  0  0  0.302447  0.292451  0  1.000004  0
H  H51  1  0.52301185  0.51849276  0.33299594  1  0  0.313638  0  0.932818  0  0  0.297737  0  0.996263  0  0  0.305427  0  0.989686  0  0  0.302226  0.291856  0  1.001651  0
C  C52  1  0.87112758  0.86702841  0.24058233  1  0  0.20379  0  3.592123  0  0  0.186006  0  3.837187  0  0  0.190601  0  3.851897  0  0  0.005715  0.182798  0  3.826838  0
C  C53  1  0.63089848  0.63284975  0.75935111  1  0  0.205056  0  3.592744  0  0  0.187525  0  3.83766  0  0  0.192206  0  3.852092  0  0  0.005959  0.184359  0  3.827313  0
C  C54  1  0.12886902  0.13296929  0.75941708  1  0  0.20395  0  3.592211  0  0  0.186164  0  3.837212  0  0  0.190756  0  3.851919  0  0  0.005767  0.182959  0  3.826864  0
C  C55  1  0.36909830  0.36715956  0.24064805  1  0  0.205176  0  3.592778  0  0  0.187729  0  3.837569  0  0  0.192343  0  3.852132  0  0  0.00602  0.184558  0  3.827227  0
C  C56  1  0.65314838  0.87845998  0.18715710  1  0  -0.175806  0  3.655934  0  0  -0.21786  0  3.913468  0  0  -0.219827  0  3.92713  0  0  -0.170901  -0.216168  0  3.90398  0
C  C57  1  0.46646615  0.62127745  0.81280538  1  0  -0.175465  0  3.658524  0  0  -0.217506  0  3.915465  0  0  -0.219499  0  3.929127  0  0  -0.170601  -0.215829  0  3.905981  0
C  C58  1  0.34685608  0.12153313  0.81284672  1  0  -0.176027  0  3.655848  0  0  -0.217939  0  3.913267  0  0  -0.219906  0  3.926931  0  0  -0.170919  -0.216245  0  3.903782  0
C  C59  1  0.53353058  0.37872836  0.18719311  1  0  -0.175593  0  3.658721  0  0  -0.217532  0  3.915535  0  0  -0.219521  0  3.929234  0  0  -0.170585  -0.215856  0  3.906048  0
C  C60  1  0.66872928  0.84096710  0.10165523  1  0  -0.096543  0  3.702935  0  0  -0.138135  0  3.968622  0  0  -0.139069  0  3.983735  0  0  -0.167243  -0.1374  0  3.958289  0
C  C61  1  0.56761515  0.65876061  0.89827709  1  0  -0.099946  0  3.708863  0  0  -0.140828  0  3.973206  0  0  -0.141734  0  3.988353  0  0  -0.167864  -0.140118  0  3.962842  0
C  C62  1  0.33126698  0.15900860  0.89834813  1  0  -0.096522  0  3.703025  0  0  -0.13826  0  3.968868  0  0  -0.139203  0  3.983977  0  0  -0.167347  -0.137535  0  3.958546  0
C  C63  1  0.43238493  0.34125680  0.10172080  1  0  -0.099845  0  3.708881  0  0  -0.140883  0  3.973303  0  0  -0.141785  0  3.988447  0  0  -0.167887  -0.140172  0  3.962938  0
C  C64  1  0.83313716  0.94494570  0.07566076  1  0  -0.11283  0  3.696091  0  0  -0.152589  0  3.957038  0  0  -0.153631  0  3.972214  0  0  -0.16947  -0.151538  0  3.946513  0
C  C65  1  0.75818779  0.55490997  0.92423420  1  0  -0.110487  0  3.698869  0  0  -0.149458  0  3.958771  0  0  -0.150527  0  3.973937  0  0  -0.167978  -0.148403  0  3.94825  0
C  C66  1  0.16685282  0.05503459  0.92433943  1  0  -0.113082  0  3.696429  0  0  -0.152803  0  3.957341  0  0  -0.153846  0  3.972518  0  0  -0.169578  -0.151748  0  3.946807  0
C  C67  1  0.24181225  0.44510633  0.07576709  1  0  -0.11044  0  3.699175  0  0  -0.149357  0  3.958968  0  0  -0.150426  0  3.974146  0  0  -0.167941  -0.148296  0  3.948435  0
C  C68  1  0.05009967  0.93656931  0.12942022  1  0  -0.099737  0  3.702066  0  0  -0.140426  0  3.967622  0  0  -0.141361  0  3.98274  0  0  -0.166348  -0.139897  0  3.956971  0
C  C69  1  0.92127549  0.56336568  0.87044451  1  0  -0.100645  0  3.704545  0  0  -0.142556  0  3.970635  0  0  -0.143517  0  3.985739  0  0  -0.166989  -0.142001  0  3.959968  0
C  C70  1  0.94989206  0.06342023  0.87057691  1  0  -0.099559  0  3.70172  0  0  -0.140256  0  3.967336  0  0  -0.141186  0  3.982446  0  0  -0.166301  -0.139711  0  3.956672  0
C  C71  1  0.07872606  0.43664599  0.12955733  1  0  -0.100866  0  3.704794  0  0  -0.142647  0  3.970691  0  0  -0.143622  0  3.985798  0  0  -0.166969  -0.142089  0  3.960021  0
C  C72  1  0.03448833  0.97294328  0.21494680  1  0  -0.162446  0  3.648087  0  0  -0.206784  0  3.909711  0  0  -0.208294  0  3.92224  0  0  -0.16166  -0.205387  0  3.901068  0
C  C73  1  0.82001178  0.52697818  0.78494559  1  0  -0.163255  0  3.650447  0  0  -0.206651  0  3.911213  0  0  -0.208174  0  3.923686  0  0  -0.161413  -0.205237  0  3.902525  0
C  C74  1  0.96550346  0.02705091  0.78505104  1  0  -0.162515  0  3.647996  0  0  -0.206941  0  3.909773  0  0  -0.208448  0  3.922298  0  0  -0.161725  -0.205541  0  3.901129  0
C  C75  1  0.17998648  0.47302417  0.21505406  1  0  -0.163335  0  3.650556  0  0  -0.206683  0  3.911173  0  0  -0.208231  0  3.923746  0  0  -0.161424  -0.205266  0  3.902481  0
S  S76  1  0.77478017  0.78073069  0.37583471  1  0  1.462475  0  5.797907  0  0  1.357267  0  6.328367  0  0  1.408349  0  6.29914  0  0  0.521521  1.32152  0  6.348427  0
S  S77  1  0.39921589  0.71929296  0.62418167  1  0  1.458698  0  5.80404  0  0  1.353517  0  6.334928  0  0  1.404523  0  6.305764  0  0  0.519909  1.317823  0  6.354932  0
S  S78  1  0.22523240  0.21927406  0.62417055  1  0  1.462458  0  5.798538  0  0  1.357203  0  6.329023  0  0  1.408285  0  6.299788  0  0  0.521413  1.321464  0  6.349065  0
S  S79  1  0.60078391  0.28070590  0.37581798  1  0  1.458639  0  5.804299  0  0  1.353515  0  6.335161  0  0  1.40452  0  6.306001  0  0  0.519918  1.317816  0  6.355177  0
N  N80  1  0.86766430  0.90824634  0.32346025  1  0  -0.657982  0  3.128743  0  0  -0.606539  0  3.396966  0  0  -0.624489  0  3.395396  0  0  -0.539578  -0.593245  0  3.398158  0
N  N81  1  0.54442188  0.59167624  0.67650005  1  0  -0.655511  0  3.132219  0  0  -0.604973  0  3.401033  0  0  -0.622664  0  3.399339  0  0  -0.538851  -0.591894  0  3.402285  0
N  N82  1  0.13234828  0.09175602  0.67654095  1  0  -0.65794  0  3.128877  0  0  -0.606391  0  3.396933  0  0  -0.624332  0  3.395377  0  0  -0.5395  -0.593108  0  3.398126  0
N  N83  1  0.45558279  0.40832841  0.32349837  1  0  -0.655497  0  3.132261  0  0  -0.605065  0  3.401126  0  0  -0.622736  0  3.399456  0  0  -0.538957  -0.59198  0  3.402372  0
O  O84  1  0.78200627  0.86630793  0.45212184  1  0  -0.813609  0  1.986204  0  0  -0.768347  0  2.25163  0  0  -0.789171  0  2.236382  0  0  -0.497298  -0.753634  0  2.262145  0
O  O85  1  0.33023059  0.63383433  0.54784800  1  0  -0.812736  0  1.986076  0  0  -0.767356  0  2.251328  0  0  -0.788157  0  2.236103  0  0  -0.496932  -0.752673  0  2.261837  0
O  O86  1  0.21800955  0.13370028  0.54788145  1  0  -0.813749  0  1.986235  0  0  -0.768514  0  2.251728  0  0  -0.789335  0  2.236478  0  0  -0.497336  -0.753796  0  2.26223  0
O  O87  1  0.66976923  0.36616568  0.45215111  1  0  -0.812723  0  1.986121  0  0  -0.767331  0  2.251338  0  0  -0.788132  0  2.236115  0  0  -0.496902  -0.75265  0  2.261855  0
O  O88  1  0.55617125  0.72999142  0.34004427  1  0  -0.714649  0  1.94612  0  0  -0.660275  0  2.190439  0  0  -0.680766  0  2.175334  0  0  -0.40209  -0.645944  0  2.201967  0
O  O89  1  0.21638416  0.76989233  0.66002030  1  0  -0.713501  0  1.94744  0  0  -0.658854  0  2.191701  0  0  -0.679363  0  2.176624  0  0  -0.400873  -0.644506  0  2.203214  0
O  O90  1  0.44383325  0.27000876  0.65996604  1  0  -0.714603  0  1.946411  0  0  -0.660225  0  2.19075  0  0  -0.680715  0  2.175649  0  0  -0.402012  -0.645893  0  2.202268  0
O  O91  1  0.78361261  0.23011459  0.33997479  1  0  -0.713425  0  1.94745  0  0  -0.658821  0  2.191727  0  0  -0.679331  0  2.176651  0  0  -0.400825  -0.644473  0  2.203248  0
O  O92  1  0.92498387  0.65113937  0.37929532  1  0  -0.76882  0  1.952814  0  0  -0.727159  0  2.217472  0  0  -0.747689  0  2.202506  0  0  -0.469783  -0.712494  0  2.228152  0
O  O93  1  0.54584207  0.84891188  0.62076832  1  0  -0.768225  0  1.954878  0  0  -0.726384  0  2.219282  0  0  -0.746985  0  2.204503  0  0  -0.46933  -0.711702  0  2.229899  0
O  O94  1  0.07503989  0.34886410  0.62070209  1  0  -0.768746  0  1.953048  0  0  -0.727066  0  2.217687  0  0  -0.747629  0  2.202792  0  0  -0.469715  -0.712411  0  2.22838  0
O  O95  1  0.45415310  0.15109506  0.37922838  1  0  -0.768155  0  1.954999  0  0  -0.726329  0  2.2194  0  0  -0.746928  0  2.204623  0  0  -0.469301  -0.711644  0  2.230023  0
