# generated using pymatgen
data_CoH29C32N7O2
_symmetry_space_group_name_H-M   'P 1'
_cell_length_a   8.56771942
_cell_length_b   14.87376569
_cell_length_c   15.75416903
_cell_angle_alpha   118.16336907
_cell_angle_beta   104.99994062
_cell_angle_gamma   89.98262391
_symmetry_Int_Tables_number   1
_chemical_formula_structural   CoH29C32N7O2
_chemical_formula_sum   'Co2 H58 C64 N14 O4'
_cell_volume   1692.02685233
_cell_formula_units_Z   2
loop_
 _symmetry_equiv_pos_site_id
 _symmetry_equiv_pos_as_xyz
  1  'x, y, z'
loop_
 _atom_site_type_symbol
 _atom_site_label
 _atom_site_symmetry_multiplicity
 _atom_site_fract_x
 _atom_site_fract_y
 _atom_site_fract_z
 _atom_site_occupancy
 _atom_site_pbe_bader_charge
 _atom_site_pbe_bader_spin_density
 _atom_site_pbe_cm5_charge
 _atom_site_pbe_ddec_charge
 _atom_site_pbe_ddec_spin_density
 _atom_site_pbe_ddec_sum_bond_order
 _atom_site_pbe_magmom
Co  Co0  1  0.50463518  0.22183363  0.56564814  1  0.927559  2.087346  0.518222  0.433797  2.219678  2.707693  2.018
Co  Co1  1  0.49540458  0.65636969  0.43452384  1  0.926025  2.08866  0.51825  0.434504  2.220569  2.70603  2.019
H  H2  1  0.67427441  0.02555149  0.46785951  1  0.113607  0.000805  0.121339  0.120334  7.8e-05  0.995958  0.001
H  H3  1  0.62266725  0.91318929  0.26067668  1  0.109233  0.001177  0.121528  0.122185  0.000527  1.00846  0.0
H  H4  1  0.30195991  0.13781717  0.32754920  1  0.100174  0.000662  0.124598  0.084589  -0.000776  1.044562  0.001
H  H5  1  0.72478122  0.22451074  0.42618039  1  0.108905  0.000283  0.111436  0.105525  -0.000383  1.031772  0.0
H  H6  1  0.92686075  0.40378069  0.49036580  1  0.09911  8.7e-05  0.1177  0.114435  3e-05  1.037458  0.0
H  H7  1  0.63970654  0.45897077  0.68841965  1  0.172788  -0.000174  0.134167  0.103145  -0.000904  1.019766  0.001
H  H8  1  0.43652144  0.07873120  0.64709034  1  0.153794  -0.000491  0.135257  0.103474  -0.001423  1.007696  0.0
H  H9  1  0.97596192  0.18333610  0.66216955  1  0.172259  0.000965  0.122136  0.134373  0.000476  1.047641  0.0
H  H10  1  0.12790058  0.27088552  0.57862571  1  0.084043  0.00126  0.113721  0.102926  0.000777  1.014724  0.001
H  H11  1  0.31405032  0.13060688  0.17899042  1  0.057648  -0.001166  0.102935  0.101977  -0.001253  1.024013  0.0
H  H12  1  0.16778058  0.06739824  0.00000247  1  0.097751  -0.000179  0.106728  0.116204  -4e-05  0.998946  0.0
H  H13  1  0.27773226  0.76176434  0.93074692  1  0.058802  -0.000413  0.103737  0.112328  -0.000333  1.003571  0.0
H  H14  1  0.41564216  0.82336617  0.11010305  1  0.063211  -0.000198  0.10808  0.113978  -0.000106  0.990452  0.0
H  H15  1  0.40218043  0.95119487  0.85181222  1  0.096506  -0.000553  0.100298  0.108288  -0.000531  1.04317  0.0
H  H16  1  0.43689710  0.05736805  0.77419675  1  0.081046  -0.000878  0.107  0.104936  -0.000902  1.037406  0.0
H  H17  1  0.91292397  0.04182082  0.67280341  1  0.10859  0.000289  0.108309  0.120337  0.00028  1.011529  0.0
H  H18  1  0.88142762  0.93640755  0.75265639  1  0.044611  -0.000531  0.098368  0.099757  -0.000429  1.045337  0.0
H  H19  1  0.08724885  0.75339526  0.65270278  1  0.058694  -0.000179  0.100546  0.106824  -8.7e-05  1.0281  0.0
H  H20  1  0.94428118  0.57656024  0.54573839  1  0.043831  -0.000205  0.100786  0.102895  -0.000301  1.053739  0.0
H  H21  1  0.83424132  0.58500410  0.80179360  1  0.068944  -0.000375  0.109097  0.117127  -0.000316  0.997287  0.0
H  H22  1  0.96546500  0.76539096  0.90649398  1  0.093047  -0.000501  0.101711  0.108761  -0.000474  1.026389  0.0
H  H23  1  0.89227636  0.20519615  0.81719239  1  0.035087  0.000849  0.082629  0.086943  0.000373  1.028623  0.0
H  H24  1  0.94720197  0.33405337  0.84834474  1  0.037817  -9.7e-05  0.095474  0.106462  -0.000174  0.981495  0.0
H  H25  1  0.88389533  0.33424662  0.99265087  1  0.015853  0.000391  0.084905  0.075892  0.00015  1.026018  0.0
H  H26  1  0.73686370  0.39129270  0.93983429  1  0.037699  0.000416  0.087938  0.085746  0.000224  0.985542  0.0
H  H27  1  0.54209930  0.23191542  0.85004968  1  0.031491  -0.000528  0.084588  0.075578  -0.000617  1.014136  0.0
H  H28  1  0.68728510  0.16690820  0.89317365  1  -0.049115  -0.000205  0.075679  0.061411  -0.000117  0.997697  0.0
H  H29  1  0.64350855  0.36491140  0.05990445  1  0.035236  -1.7e-05  0.087058  0.079065  -3e-06  0.984826  0.0
H  H30  1  0.64507801  0.24335707  0.05218839  1  0.017604  -0.000295  0.076687  0.068107  -0.000256  1.025663  0.0
H  H31  1  0.32590553  0.55746850  0.53222232  1  0.133109  0.000808  0.121384  0.120911  8.1e-05  0.995384  0.001
H  H32  1  0.37806028  0.65207308  0.73941469  1  0.111235  0.00117  0.121983  0.123018  0.000529  1.007695  0.0
H  H33  1  0.69823209  0.80989018  0.67242007  1  0.112149  0.000695  0.124651  0.084482  -0.000782  1.045007  0.001
H  H34  1  0.27432328  0.79839376  0.57347157  1  0.096773  0.000285  0.111582  0.105461  -0.000377  1.03137  0.0
H  H35  1  0.07284831  0.91377370  0.50921939  1  0.104014  9.2e-05  0.117446  0.114069  3.4e-05  1.037783  0.0
H  H36  1  0.35965797  0.77009757  0.31110192  1  0.114834  -0.000254  0.134414  0.103783  -0.000904  1.020043  0.001
H  H37  1  0.56458142  0.43238426  0.35365238  1  0.142475  -0.000518  0.135295  0.103544  -0.001417  1.0073  0.0
H  H38  1  0.02450040  0.52168785  0.33782448  1  0.159753  0.000981  0.122337  0.13484  0.000472  1.047181  0.0
H  H39  1  0.87266716  0.69281747  0.42155714  1  0.071145  0.001259  0.113874  0.102745  0.00076  1.014637  0.001
H  H40  1  0.68626982  0.95115447  0.82066126  1  0.03607  -0.001229  0.103311  0.102596  -0.001279  1.024471  0.0
H  H41  1  0.83200613  0.06727229  0.99964101  1  0.098176  -0.000178  0.106514  0.115661  -3.8e-05  0.999465  0.0
H  H42  1  0.72132664  0.83166997  0.06966777  1  0.059195  -0.000428  0.103764  0.112625  -0.000339  1.003926  0.0
H  H43  1  0.58415105  0.71349321  0.89030848  1  0.052727  -0.000201  0.107912  0.114036  -0.000104  0.991168  0.0
H  H44  1  0.59718679  0.10039275  0.14869247  1  0.078956  -0.00056  0.100104  0.108425  -0.000534  1.043025  0.0
H  H45  1  0.56332963  0.28437150  0.22650208  1  0.081422  -0.000868  0.107024  0.105048  -0.000898  1.037507  0.0
H  H46  1  0.08742652  0.36910974  0.32704480  1  0.115107  0.000295  0.108533  0.120919  0.000281  1.011292  0.0
H  H47  1  0.11802980  0.18366570  0.24683619  1  0.049332  -0.000524  0.098603  0.100145  -0.000432  1.04473  0.0
H  H48  1  0.91357975  0.10149114  0.34761206  1  0.082137  -0.000174  0.100666  0.107124  -8.7e-05  1.02824  0.0
H  H49  1  0.05667359  0.03127989  0.45429461  1  0.043919  -0.000218  0.100506  0.102812  -0.000304  1.054528  0.0
H  H50  1  0.16477374  0.78330404  0.19766349  1  0.065424  -0.000382  0.109288  0.117632  -0.00032  0.996619  0.0
H  H51  1  0.03341659  0.85928503  0.09322550  1  0.050061  -0.00052  0.101735  0.108948  -0.000476  1.026814  0.0
H  H52  1  0.10833177  0.38826267  0.18305931  1  0.02107  0.000852  0.082864  0.086923  0.000371  1.027816  0.0
H  H53  1  0.05301550  0.48606199  0.15209074  1  0.030201  -9.8e-05  0.095058  0.105536  -0.000174  0.981692  0.0
H  H54  1  0.11591394  0.34200641  0.00748387  1  0.015697  0.000393  0.084799  0.075766  0.00015  1.026744  0.0
H  H55  1  0.26270685  0.45187643  0.06018441  1  0.02862  0.000413  0.088074  0.085821  0.000224  0.985334  0.0
H  H56  1  0.45806224  0.38223396  0.14974103  1  0.020261  -0.000517  0.084753  0.076011  -0.000606  1.013088  0.0
H  H57  1  0.31326284  0.27389288  0.10643199  1  -0.030668  -0.000202  0.07567  0.061288  -0.000117  0.998647  0.0
H  H58  1  0.35846270  0.30731087  0.94081547  1  -0.007564  -1.7e-05  0.087006  0.079763  -3e-06  0.983956  0.0
H  H59  1  0.35270328  0.19238606  0.94646931  1  0.02915  -0.000293  0.076583  0.068291  -0.000256  1.025772  0.0
C  C60  1  0.58841913  0.03133166  0.40722324  1  0.383781  0.001117  -0.002001  -0.028623  -2.2e-05  3.997109  0.002
C  C61  1  0.56309791  0.97487863  0.30513254  1  0.311032  0.001998  -0.00859  -0.119591  0.001211  3.952408  0.002
C  C62  1  0.39966714  0.09503388  0.33912007  1  0.913624  -0.055215  0.117132  0.061405  -0.058748  3.910214  -0.035
C  C63  1  0.73617774  0.30045471  0.49003186  1  0.396797  -0.001202  -0.009942  -0.038441  -0.00234  4.010772  0.0
C  C64  1  0.83586345  0.38870783  0.52022104  1  0.27798  0.001833  -0.010137  -0.119169  0.000755  3.957223  0.002
C  C65  1  0.68753142  0.41951991  0.62502743  1  0.930179  -0.021975  0.131763  0.084883  -0.023443  3.891382  -0.013
C  C66  1  0.33459734  0.12050724  0.64093149  1  0.920135  -0.038537  0.130692  0.078582  -0.043249  3.894951  -0.025
C  C67  1  0.09374791  0.17534439  0.64733372  1  0.311769  0.004529  -0.004042  -0.111528  0.002207  3.895319  0.003
C  C68  1  0.17083341  0.21765508  0.60544516  1  0.364233  0.005199  -0.002985  -0.03165  0.00436  4.00351  0.005
C  C69  1  0.71368391  0.26476490  0.73998685  1  1.548926  -0.00417  0.183828  0.602196  -0.005508  4.159701  -0.005
C  C70  1  0.37201030  0.98100980  0.15790063  1  0.299585  -0.01607  0.08089  0.140599  -0.018556  4.048071  -0.011
C  C71  1  0.30299419  0.04909247  0.12508871  1  -0.075074  -0.017497  -0.098792  -0.16837  -0.017775  4.027089  -0.01
C  C72  1  0.22149956  0.01371500  0.02408707  1  -0.008918  0.001123  -0.095343  -0.157959  -0.0008  3.992298  0.002
C  C73  1  0.20815069  0.90929913  0.95229299  1  0.336611  -0.021886  0.088984  0.171468  -0.023276  4.028795  -0.015
C  C74  1  0.28379109  0.84248811  0.98524214  1  0.003174  -0.007077  -0.098345  -0.167147  -0.007481  4.014433  -0.003
C  C75  1  0.36299394  0.87743969  0.08628673  1  0.014229  -0.004059  -0.094625  -0.156714  -0.00451  4.028232  -0.001
C  C76  1  0.13943621  0.93560646  0.80624933  1  0.325505  -0.01764  0.081619  0.157961  -0.018889  4.053623  -0.012
C  C77  1  0.29544575  0.97042844  0.81185005  1  -0.0528  8e-06  -0.09266  -0.150456  -0.001334  3.996856  0.002
C  C78  1  0.31467286  0.02944105  0.76753338  1  -0.03066  -0.013487  -0.091484  -0.162991  -0.013772  4.012294  -0.007
C  C79  1  0.17743245  0.05531375  0.71671060  1  0.347107  -0.015157  0.091645  0.156531  -0.017098  4.02922  -0.011
C  C80  1  0.02047531  0.02130586  0.71109066  1  -0.038672  -0.001917  -0.09299  -0.162225  -0.002475  3.990104  0.0
C  C81  1  0.00270082  0.96218902  0.75595076  1  -0.027931  -0.00754  -0.095007  -0.155501  -0.007749  4.000141  -0.003
C  C82  1  0.03926976  0.77204816  0.78820920  1  0.344265  -0.008534  0.086359  0.163476  -0.009244  4.051145  -0.006
C  C83  1  0.03123791  0.71711656  0.68568168  1  0.007823  -0.000408  -0.10224  -0.176458  -0.000931  4.021763  0.0
C  C84  1  0.95212306  0.61637780  0.62539786  1  0.022592  -0.003776  -0.095869  -0.150947  -0.004053  4.003722  -0.002
C  C85  1  0.88169731  0.56759823  0.66649397  1  0.322882  -0.004254  0.085923  0.155742  -0.005135  4.027643  -0.003
C  C86  1  0.88796152  0.62196330  0.76848422  1  -0.006897  -0.004002  -0.095599  -0.16161  -0.00415  4.01382  -0.002
C  C87  1  0.96385823  0.72320248  0.82794575  1  -0.064148  -0.000681  -0.101762  -0.168368  -0.001081  4.035542  0.0
C  C88  1  0.84487774  0.27850242  0.83342914  1  -0.062997  0.003787  -0.172892  -0.295906  0.002247  3.964807  0.003
C  C89  1  0.78275213  0.31784788  0.92562093  1  -0.028802  0.000748  -0.170053  -0.131361  0.000445  3.971374  0.0
C  C90  1  0.64649553  0.24303745  0.91381396  1  0.008566  -0.000536  -0.169397  -0.135457  -0.000638  3.926933  0.0
C  C91  1  0.59241464  0.28276909  0.00966218  1  -0.070533  -0.000257  -0.170925  -0.138535  -0.000282  3.931385  0.0
C  C92  1  0.41181534  0.62384927  0.59281746  1  0.407104  0.001149  -0.001904  -0.030231  -2e-06  3.998647  0.002
C  C93  1  0.43741921  0.66938015  0.69492161  1  0.265828  0.001996  -0.009323  -0.120379  0.001208  3.95342  0.002
C  C94  1  0.60053676  0.75560109  0.66089640  1  0.909985  -0.055631  0.117189  0.060662  -0.059086  3.911333  -0.035
C  C95  1  0.26304334  0.81043060  0.50958800  1  0.43958  -0.001207  -0.010147  -0.038624  -0.002357  4.008952  0.0
C  C96  1  0.16364938  0.86860908  0.47934257  1  0.242819  0.001868  -0.009172  -0.117991  0.000787  3.956233  0.002
C  C97  1  0.31179785  0.79419949  0.37450459  1  0.963369  -0.022022  0.132238  0.084723  -0.023661  3.891301  -0.013
C  C98  1  0.66634256  0.48027264  0.35964655  1  0.937893  -0.038265  0.131383  0.079081  -0.042936  3.895265  -0.025
C  C99  1  0.90686617  0.52858016  0.35284040  1  0.225264  0.00455  -0.00386  -0.11269  0.002196  3.89382  0.003
C  C100  1  0.82986362  0.61280228  0.39487589  1  0.441906  0.005174  -0.003025  -0.030391  0.004321  4.002666  0.005
C  C101  1  0.28692600  0.52490362  0.26008338  1  1.545595  -0.004192  0.183112  0.600939  -0.005524  4.160857  -0.005
C  C102  1  0.62812299  0.82294631  0.84212131  1  0.3103  -0.016233  0.081435  0.14107  -0.018773  4.047001  -0.011
C  C103  1  0.69713562  0.92375036  0.87471604  1  -0.009881  -0.017771  -0.100072  -0.17109  -0.018087  4.029199  -0.01
C  C104  1  0.77818288  0.98959985  0.97572420  1  -0.022475  0.001156  -0.094406  -0.155743  -0.000785  3.991884  0.003
C  C105  1  0.79114584  0.95732160  0.04774216  1  0.357034  -0.022106  0.08854  0.171418  -0.023541  4.02847  -0.015
C  C106  1  0.71558945  0.85763027  0.01500129  1  -0.008743  -0.007164  -0.098188  -0.166327  -0.007576  4.015491  -0.003
C  C107  1  0.63676851  0.79131444  0.91395983  1  -0.01648  -0.00404  -0.094804  -0.158433  -0.004509  4.029947  -0.001
C  C108  1  0.85992791  0.12985757  0.19376024  1  0.326932  -0.017629  0.080731  0.157294  -0.018804  4.053844  -0.012
C  C109  1  0.70411132  0.15940864  0.18855783  1  -0.025223  1e-05  -0.091478  -0.150032  -0.001328  3.995306  0.002
C  C110  1  0.68538990  0.26282699  0.23292337  1  -0.023072  -0.01347  -0.091492  -0.162475  -0.013783  4.013612  -0.007
C  C111  1  0.82293465  0.33921086  0.28354829  1  0.303813  -0.015132  0.091712  0.156355  -0.017052  4.030481  -0.011
C  C112  1  0.97968140  0.31050040  0.28889268  1  -0.032248  -0.00192  -0.093677  -0.163576  -0.002428  3.991777  0.0
C  C113  1  0.99694194  0.20647417  0.24380887  1  -0.034076  -0.007524  -0.094705  -0.15521  -0.007789  3.999892  -0.004
C  C114  1  0.96039875  0.98440960  0.21179926  1  0.245142  -0.008577  0.086816  0.164728  -0.009255  4.053397  -0.006
C  C115  1  0.96911588  0.03204768  0.31443786  1  0.015822  -0.000409  -0.102109  -0.176712  -0.000919  4.021891  0.0
C  C116  1  0.04831828  0.99140696  0.37456245  1  0.030442  -0.003766  -0.096489  -0.151859  -0.004058  4.004396  -0.002
C  C117  1  0.11820334  0.90131747  0.33320255  1  0.327878  -0.004271  0.085956  0.156452  -0.005131  4.028884  -0.003
C  C118  1  0.11129994  0.85367277  0.23113173  1  -0.018701  -0.004011  -0.096048  -0.162203  -0.004163  4.014786  -0.002
C  C119  1  0.03537180  0.89565451  0.17183091  1  0.03143  -0.000673  -0.101438  -0.168911  -0.001101  4.036797  0.0
C  C120  1  0.15543776  0.44535446  0.16676620  1  -0.062945  0.003784  -0.173111  -0.294104  0.00224  3.963146  0.003
C  C121  1  0.21716846  0.39259575  0.07442003  1  0.004458  0.000737  -0.170398  -0.132764  0.000446  3.971585  0.0
C  C122  1  0.35365442  0.32963434  0.08597729  1  -0.014704  -0.000526  -0.168699  -0.134042  -0.000627  3.927809  0.0
C  C123  1  0.40747591  0.27393545  0.99003514  1  0.014428  -0.000247  -0.170573  -0.140255  -0.000272  3.933434  0.0
N  N124  1  0.48603731  0.10625725  0.42800906  1  -1.178626  0.035921  -0.366958  -0.261685  0.016899  3.695778  0.034
N  N125  1  0.44282614  0.01579065  0.26145209  1  -1.287672  -0.009164  -0.233305  0.002191  -0.007374  3.832454  -0.002
N  N126  1  0.64487479  0.32013427  0.55639135  1  -1.20647  0.025404  -0.368559  -0.261231  0.011174  3.714385  0.013
N  N127  1  0.80428783  0.46442256  0.60629872  1  -1.267116  -0.003082  -0.229824  0.014267  -0.003107  3.809951  -0.001
N  N128  1  0.32085294  0.18301406  0.60157960  1  -1.20302  0.022075  -0.366341  -0.255426  0.010435  3.704366  0.01
N  N129  1  0.19974341  0.11392134  0.67070998  1  -1.28399  -0.006188  -0.233703  -0.004733  -0.004312  3.82853  0.0
N  N130  1  0.12180297  0.87350331  0.85037074  1  -1.230918  -0.003779  -0.260839  -0.15824  -0.002241  3.700568  0.002
N  N131  1  0.51398537  0.67805925  0.57200606  1  -1.196891  0.035734  -0.367092  -0.260956  0.016856  3.696052  0.033
N  N132  1  0.55758247  0.75397787  0.73859316  1  -1.285683  -0.00904  -0.233428  0.003891  -0.007383  3.831688  -0.002
N  N133  1  0.35432562  0.76353951  0.44324423  1  -1.184556  0.025206  -0.368967  -0.261448  0.01122  3.711457  0.013
N  N134  1  0.19533498  0.85808778  0.39325126  1  -1.257922  -0.003088  -0.230431  0.013233  -0.003134  3.811891  -0.001
N  N135  1  0.68001243  0.58210972  0.39894952  1  -1.195961  0.022106  -0.36683  -0.256748  0.010558  3.702685  0.011
N  N136  1  0.80100807  0.44385993  0.32968024  1  -1.261135  -0.006103  -0.234565  -0.004857  -0.00428  3.828984  0.0
N  N137  1  0.87730239  0.02360449  0.14967038  1  -1.21029  -0.003745  -0.260867  -0.159519  -0.002254  3.705064  0.002
O  O138  1  0.62453315  0.33421004  0.74775489  1  -1.173559  0.040565  -0.341291  -0.56523  0.019687  2.133095  0.034
O  O139  1  0.69902431  0.18215109  0.65539564  1  -1.186588  0.056119  -0.345216  -0.570894  0.027019  2.210373  0.051
O  O140  1  0.37606561  0.58652301  0.25227211  1  -1.182532  0.040323  -0.340554  -0.564621  0.019625  2.132139  0.033
O  O141  1  0.30170633  0.52681770  0.34465684  1  -1.175538  0.056367  -0.345024  -0.570637  0.027079  2.21291  0.051
