# generated using pymatgen
data_AgH12C12N3O2
_symmetry_space_group_name_H-M   'P 1'
_cell_length_a   10.69081962
_cell_length_b   11.03887986
_cell_length_c   12.47500000
_cell_angle_alpha   114.96270492
_cell_angle_beta   109.48954525
_cell_angle_gamma   91.81098257
_symmetry_Int_Tables_number   1
_chemical_formula_structural   AgH12C12N3O2
_chemical_formula_sum   'Ag4 H48 C48 N12 O8'
_cell_volume   1232.35827637
_cell_formula_units_Z   4
loop_
 _symmetry_equiv_pos_site_id
 _symmetry_equiv_pos_as_xyz
  1  'x, y, z'
loop_
 _atom_site_type_symbol
 _atom_site_label
 _atom_site_symmetry_multiplicity
 _atom_site_fract_x
 _atom_site_fract_y
 _atom_site_fract_z
 _atom_site_occupancy
 _atom_site_hle17_bader_spin_density
 _atom_site_hle17_ddec_charge
 _atom_site_hle17_ddec_spin_density
 _atom_site_hle17_ddec_sum_bond_order
 _atom_site_hle17_magmom
 _atom_site_hse06_10hf_bader_spin_density
 _atom_site_hse06_10hf_ddec_charge
 _atom_site_hse06_10hf_ddec_spin_density
 _atom_site_hse06_10hf_ddec_sum_bond_order
 _atom_site_hse06_10hf_magmom
 _atom_site_hse06_bader_spin_density
 _atom_site_hse06_ddec_charge
 _atom_site_hse06_ddec_spin_density
 _atom_site_hse06_ddec_sum_bond_order
 _atom_site_hse06_magmom
 _atom_site_pbe_bader_charge
 _atom_site_pbe_bader_spin_density
 _atom_site_pbe_cm5_charge
 _atom_site_pbe_ddec_charge
 _atom_site_pbe_ddec_spin_density
 _atom_site_pbe_ddec_sum_bond_order
 _atom_site_pbe_magmom
Ag  Ag0  1  0.33841561  0.63907528  0.21375175  1  0  0.554797  0  1.391463  0  0  0.420457  0  1.81869  0  0  0.450226  0  1.773713  0  0.588247  0  0.477924  0.400337  0  1.850024  0
Ag  Ag1  1  0.66158346  0.36092548  0.78624819  1  0  0.554831  0  1.391439  0  0  0.420493  0  1.818654  0  0  0.450264  0  1.773677  0  0.588262  0  0.477944  0.400372  0  1.849988  0
Ag  Ag2  1  0.60938947  0.46765771  0.31279395  1  0  0.569642  0  1.383621  0  0  0.43763  0  1.820647  0  0  0.467152  0  1.774186  0  0.604146  0  0.458098  0.417765  0  1.852278  0
Ag  Ag3  1  0.39061059  0.53234305  0.68720627  1  0  0.56964  0  1.383634  0  0  0.437625  0  1.820654  0  0  0.467142  0  1.774202  0  0.604149  0  0.458096  0.417771  0  1.852267  0
H  H4  1  0.95659458  0.38000033  0.25714028  1  0  0.126905  0  0.955781  0  0  0.138444  0  1.012418  0  0  0.141546  0  1.013558  0  0.060138  0  0.104406  0.13629  0  1.01171  0
H  H5  1  0.04340429  0.61999941  0.74285922  1  0  0.126898  0  0.955781  0  0  0.138423  0  1.012438  0  0  0.141525  0  1.013579  0  0.060149  0  0.104399  0.136268  0  1.011731  0
H  H6  1  0.06523802  0.60258648  0.13823118  1  0  0.10981  0  0.962163  0  0  0.126485  0  1.034841  0  0  0.12942  0  1.031403  0  0.028809  0  0.091464  0.124172  0  1.037607  0
H  H7  1  0.93476224  0.39741530  0.86176948  1  0  0.109803  0  0.96219  0  0  0.126483  0  1.034859  0  0  0.129417  0  1.031421  0  0.02882  0  0.091462  0.12417  0  1.037626  0
H  H8  1  0.92997828  0.47627542  0.10658499  1  0  0.128848  0  0.959666  0  0  0.146584  0  1.020842  0  0  0.148685  0  1.020731  0  0.068097  0  0.094392  0.145009  0  1.021008  0
H  H9  1  0.07002099  0.52372636  0.89341539  1  0  0.128865  0  0.95965  0  0  0.146605  0  1.02082  0  0  0.148706  0  1.020709  0  0.067928  0  0.09441  0.145031  0  1.020986  0
H  H10  1  0.06966035  0.42744107  0.06194825  1  0  0.132628  0  0.945752  0  0  0.155703  0  1.002011  0  0  0.157392  0  1.002218  0  0.07031  0  0.102172  0.154291  0  1.002267  0
H  H11  1  0.93033950  0.57255867  0.93805073  1  0  0.132594  0  0.945808  0  0  0.155683  0  1.002053  0  0  0.157372  0  1.002261  0  0.070298  0  0.102153  0.154271  0  1.00231  0
H  H12  1  0.11728656  0.41959464  0.57878595  1  0  0.114202  0  0.964834  0  0  0.128389  0  1.042982  0  0  0.131363  0  1.040511  0  0.042466  0  0.091392  0.126341  0  1.044554  0
H  H13  1  0.88271371  0.58040714  0.42121631  1  0  0.114243  0  0.964831  0  0  0.128417  0  1.042981  0  0  0.13139  0  1.04051  0  0.042376  0  0.091405  0.12637  0  1.044552  0
H  H14  1  0.14531907  0.27157353  0.46626639  1  0  0.126639  0  0.951925  0  0  0.147735  0  1.011638  0  0  0.149205  0  1.011885  0  0.074139  0  0.099303  0.146532  0  1.011658  0
H  H15  1  0.85468000  0.72842723  0.53373435  1  0  0.126664  0  0.951911  0  0  0.147768  0  1.011598  0  0  0.149239  0  1.011846  0  0.074135  0  0.099316  0.146566  0  1.011618  0
H  H16  1  0.98384657  0.31648007  0.42620883  1  0  0.121966  0  0.93977  0  0  0.146469  0  0.99124  0  0  0.148135  0  0.9912  0  0.058508  0  0.095909  0.145213  0  0.991416  0
H  H17  1  0.01615349  0.68352069  0.57379219  1  0  0.121984  0  0.939765  0  0  0.146476  0  0.991241  0  0  0.148142  0  0.991202  0  0.058505  0  0.095911  0.14522  0  0.991417  0
H  H18  1  0.66228724  0.00694150  0.96740237  1  0  0.123747  0  0.976186  0  0  0.133918  0  1.036533  0  0  0.136389  0  1.038726  0  0.08239  0  0.102914  0.132309  0  1.03503  0
H  H19  1  0.33771262  0.99305824  0.03259902  1  0  0.123757  0  0.976168  0  0  0.133928  0  1.036514  0  0  0.1364  0  1.038707  0  0.0824  0  0.102924  0.132319  0  1.035012  0
H  H20  1  0.57140082  0.07240628  0.69651624  1  0  0.143258  0  0.961358  0  0  0.161726  0  1.022366  0  0  0.164211  0  1.020977  0  0.09517  0  0.099973  0.159878  0  1.023464  0
H  H21  1  0.42860003  0.92759346  0.30348543  1  0  0.143266  0  0.96129  0  0  0.161764  0  1.022281  0  0  0.164256  0  1.020885  0  0.095142  0  0.099996  0.159907  0  1.023388  0
H  H22  1  0.64304185  0.95825993  0.75602763  1  0  0.130111  0  0.948761  0  0  0.150511  0  1.005576  0  0  0.152817  0  1.004501  0  0.049199  0  0.095351  0.148801  0  1.006558  0
H  H23  1  0.35695900  0.04173981  0.24397404  1  0  0.13009  0  0.948767  0  0  0.150509  0  1.005568  0  0  0.152816  0  1.004492  0  0.049199  0  0.095376  0.148799  0  1.006549  0
H  H24  1  0.74873018  0.09056600  0.76140159  1  0  0.115174  0  0.957261  0  0  0.13384  0  1.028366  0  0  0.135186  0  1.028012  0  0.062559  0  0.094076  0.13274  0  1.02889  0
H  H25  1  0.25126968  0.90943374  0.23859980  1  0  0.115149  0  0.957277  0  0  0.133816  0  1.028389  0  0  0.135159  0  1.028038  0  0.062537  0  0.094073  0.132715  0  1.028913  0
H  H26  1  0.73978859  0.23946551  0.30354170  1  0  0.115892  0  0.956028  0  0  0.133823  0  1.022573  0  0  0.135964  0  1.021229  0  0.046868  0  0.09205  0.132235  0  1.02356  0
H  H27  1  0.26021068  0.76053627  0.69645948  1  0  0.11588  0  0.95602  0  0  0.133808  0  1.022562  0  0  0.13595  0  1.021217  0  0.046853  0  0.092038  0.132221  0  1.023549  0
H  H28  1  0.69164423  0.06358657  0.18610175  1  0  0.125333  0  0.937213  0  0  0.146675  0  0.992448  0  0  0.148353  0  0.992519  0  0.065818  0  0.095821  0.145432  0  0.992387  0
H  H29  1  0.30835604  0.93641521  0.81389891  1  0  0.125342  0  0.937129  0  0  0.146671  0  0.992382  0  0  0.14835  0  0.992453  0  0.065763  0  0.095831  0.145428  0  0.992322  0
H  H30  1  0.56690403  0.16242340  0.21658479  1  0  0.135238  0  0.948866  0  0  0.155319  0  1.009121  0  0  0.15771  0  1.008296  0  0.077898  0  0.099821  0.153509  0  1.009852  0
H  H31  1  0.43309504  0.83757736  0.78341594  1  0  0.135253  0  0.948851  0  0  0.155326  0  1.009112  0  0  0.157718  0  1.008285  0  0.077912  0  0.099828  0.153517  0  1.009843  0
H  H32  1  0.68573644  0.06255616  0.54132800  1  0  0.115415  0  0.952495  0  0  0.123162  0  1.017273  0  0  0.127128  0  1.014363  0  0.115347  0  0.107278  0.119942  0  1.019965  0
H  H33  1  0.31426322  0.93744256  0.45867214  1  0  0.115403  0  0.952477  0  0  0.123114  0  1.017309  0  0  0.127078  0  1.014399  0  0.115324  0  0.107264  0.119895  0  1.019999  0
H  H34  1  0.91049618  0.22074467  0.64739258  1  0  0.090035  0  0.973615  0  0  0.101607  0  1.036601  0  0  0.104002  0  1.03633  0  0.063556  0  0.096309  0.099895  0  1.036928  0
H  H35  1  0.08950348  0.77925404  0.35260836  1  0  0.090047  0  0.973595  0  0  0.101638  0  1.036558  0  0  0.104036  0  1.036285  0  0.063526  0  0.096317  0.099926  0  1.036885  0
H  H36  1  0.84671399  0.74027390  0.32100384  1  0  0.098602  0  0.957645  0  0  0.110235  0  1.019386  0  0  0.113618  0  1.017391  0  0.095017  0  0.103965  0.107853  0  1.020734  0
H  H37  1  0.15328905  0.25972686  0.67899643  1  0  0.098643  0  0.957592  0  0  0.110273  0  1.019338  0  0  0.113657  0  1.017341  0  0.095026  0  0.103976  0.10789  0  1.020686  0
H  H38  1  0.19729555  0.18160231  0.23683798  1  0  0.100574  0  0.950323  0  0  0.112051  0  1.010638  0  0  0.115335  0  1.008709  0  0.072495  0  0.103119  0.109619  0  1.012172  0
H  H39  1  0.80270510  0.81839640  0.76316084  1  0  0.100548  0  0.950314  0  0  0.112021  0  1.01064  0  0  0.115307  0  1.008705  0  0.072483  0  0.103114  0.10959  0  1.012173  0
H  H40  1  0.03212582  0.01625805  0.23746125  1  0  0.091171  0  0.956482  0  0  0.102874  0  1.016271  0  0  0.105083  0  1.016741  0  0.056307  0  0.098691  0.101271  0  1.015971  0
H  H41  1  0.96787363  0.98373965  0.76253766  1  0  0.091177  0  0.956482  0  0  0.102887  0  1.016261  0  0  0.105094  0  1.016733  0  0.056287  0  0.098707  0.101291  0  1.015951  0
H  H42  1  0.16492198  0.17880898  0.88345166  1  0  0.099707  0  0.950361  0  0  0.109372  0  1.011171  0  0  0.112839  0  1.009323  0  0.078454  0  0.100127  0.106739  0  1.012751  0
H  H43  1  0.83507490  0.82119076  0.11654647  1  0  0.099765  0  0.950363  0  0  0.109457  0  1.011139  0  0  0.112926  0  1.009288  0  0.078312  0  0.100153  0.106822  0  1.012722  0
H  H44  1  0.47731244  0.72112661  0.47317824  1  0  0.342003  0  0.939113  0  0  0.319637  0  1.00797  0  0  0.328511  0  1.000187  0  0.523768  0  0.292146  0.313294  0  1.013676  0
H  H45  1  0.52268742  0.27887313  0.52682154  1  0  0.341919  0  0.93921  0  0  0.319576  0  1.008021  0  0  0.32845  0  1.000238  0  0.523774  0  0.292131  0.313234  0  1.013722  0
H  H46  1  0.50148515  0.66383575  0.59110754  1  0  0.35222  0  0.917693  0  0  0.331503  0  0.9849  0  0  0.340033  0  0.977031  0  0.526972  0  0.299152  0.325503  0  0.990377  0
H  H47  1  0.49851450  0.33616297  0.40889100  1  0  0.352217  0  0.917656  0  0  0.3315  0  0.984867  0  0  0.34003  0  0.976997  0  0.52695  0  0.299167  0.3255  0  0.990343  0
H  H48  1  0.66869644  0.54629747  0.01442188  1  0  0.353185  0  0.923264  0  0  0.333394  0  0.990221  0  0  0.341876  0  0.982195  0  0.516581  0  0.295489  0.327319  0  0.996051  0
H  H49  1  0.33130342  0.45370227  0.98557791  1  0  0.353136  0  0.923301  0  0  0.333354  0  0.99024  0  0  0.341835  0  0.982219  0  0.516574  0  0.29548  0.32728  0  0.99607  0
H  H50  1  0.65772221  0.57583864  0.16069208  1  0  0.348981  0  0.929093  0  0  0.328217  0  0.996043  0  0  0.33694  0  0.988206  0  0.533218  0  0.294665  0.321954  0  1.0017  0
H  H51  1  0.34227785  0.42416212  0.83930814  1  0  0.348959  0  0.929126  0  0  0.328189  0  0.996091  0  0  0.336914  0  0.988252  0  0.533225  0  0.294643  0.321925  0  1.001751  0
C  C52  1  0.31882941  0.58226800  0.43889726  1  0  0.652544  0  3.811898  0  0  0.603998  0  4.082346  0  0  0.632036  0  4.090242  0  1.595617  0  0.345458  0.585267  0  4.076457  0
C  C53  1  0.68116945  0.41773174  0.56110304  1  0  0.652413  0  3.812088  0  0  0.603922  0  4.082464  0  0  0.631912  0  4.090433  0  1.595626  0  0.345464  0.585193  0  4.076574  0
C  C54  1  0.11691553  0.50797739  0.26085144  1  0  0.382918  0  3.76733  0  0  0.378444  0  4.017138  0  0  0.396014  0  4.03299  0  0.534167  0  0.128324  0.366737  0  4.006032  0
C  C55  1  0.88308334  0.49202234  0.73914886  1  0  0.382908  0  3.767268  0  0  0.378425  0  4.017092  0  0  0.395994  0  4.032942  0  0.534182  0  0.128313  0.366719  0  4.005989  0
C  C56  1  0.06043165  0.43747687  0.30904298  1  0  -0.337102  0  3.692933  0  0  -0.355775  0  3.937922  0  0  -0.373606  0  3.959486  0  0.017422  0  -0.116328  -0.344159  0  3.923373  0
C  C57  1  0.93956742  0.56252389  0.69095776  1  0  -0.337037  0  3.692888  0  0  -0.355694  0  3.937889  0  0  -0.373526  0  3.959454  0  0.017448  0  -0.116284  -0.344078  0  3.92334  0
C  C58  1  0.14240958  0.43862358  0.42296952  1  0  0.386753  0  3.764162  0  0  0.385246  0  4.011733  0  0  0.402774  0  4.027029  0  0.461766  0  0.129914  0.373582  0  4.001269  0
C  C59  1  0.85758829  0.56137616  0.57702969  1  0  0.386661  0  3.764209  0  0  0.385149  0  4.011789  0  0  0.402677  0  4.027086  0  0.461695  0  0.129881  0.373486  0  4.001323  0
C  C60  1  0.03956057  0.50364151  0.13515832  1  0  -0.393651  0  3.713337  0  0  -0.472998  0  3.948836  0  0  -0.477357  0  3.95316  0  -0.061939  0  -0.243503  -0.469523  0  3.945851  0
C  C61  1  0.96043850  0.49635925  0.86484322  1  0  -0.393642  0  3.713399  0  0  -0.473001  0  3.948882  0  0  -0.47736  0  3.953204  0  -0.061789  0  -0.243518  -0.469527  0  3.945898  0
C  C62  1  0.09311024  0.35747717  0.47590333  1  0  -0.38426  0  3.707638  0  0  -0.465423  0  3.945612  0  0  -0.469901  0  3.950651  0  -0.073245  0  -0.24036  -0.462085  0  3.9421  0
C  C63  1  0.90688863  0.64252256  0.52409616  1  0  -0.384348  0  3.707659  0  0  -0.465495  0  3.945661  0  0  -0.469973  0  3.950699  0  -0.073139  0  -0.24039  -0.462157  0  3.942148  0
C  C64  1  0.66664857  0.37956368  0.04878739  1  0  0.647417  0  3.814314  0  0  0.6016  0  4.083833  0  0  0.629385  0  4.091464  0  1.583234  0  0.34233  0.582783  0  4.078395  0
C  C65  1  0.33335228  0.62043606  0.95121348  1  0  0.647418  0  3.814375  0  0  0.601616  0  4.083876  0  0  0.629393  0  4.091517  0  1.583457  0  0.342351  0.5828  0  4.078437  0
C  C66  1  0.66050449  0.15927300  0.90161406  1  0  0.394514  0  3.74331  0  0  0.394394  0  3.986175  0  0  0.411774  0  4.002025  0  0.507697  0  0.132241  0.382883  0  3.975108  0
C  C67  1  0.33949537  0.84072674  0.09838733  1  0  0.39452  0  3.743332  0  0  0.394411  0  3.986191  0  0  0.41179  0  4.002043  0  0.507684  0  0.132242  0.3829  0  3.975123  0
C  C68  1  0.66181851  0.11337685  0.99033387  1  0  -0.338038  0  3.689017  0  0  -0.358443  0  3.930727  0  0  -0.376391  0  3.953474  0  0.017613  0  -0.116923  -0.346861  0  3.915348  0
C  C69  1  0.33818036  0.88662289  0.00966723  1  0  -0.338026  0  3.688951  0  0  -0.358437  0  3.930641  0  0  -0.376386  0  3.953387  0  0.017627  0  -0.116911  -0.346855  0  3.915261  0
C  C70  1  0.66463808  0.20712692  0.10924547  1  0  0.385881  0  3.756871  0  0  0.385259  0  4.006107  0  0  0.402835  0  4.020809  0  0.506642  0  0.129478  0.37355  0  3.995887  0
C  C71  1  0.33536198  0.79287383  0.89075556  1  0  0.385857  0  3.756897  0  0  0.385257  0  4.006085  0  0  0.402834  0  4.020786  0  0.506634  0  0.129453  0.373549  0  3.995864  0
C  C72  1  0.65485667  0.06405485  0.77190108  1  0  -0.398232  0  3.696534  0  0  -0.47903  0  3.930989  0  0  -0.483043  0  3.935135  0  -0.087886  0  -0.244559  -0.476077  0  3.928424  0
C  C73  1  0.34514319  0.93594489  0.22809951  1  0  -0.398184  0  3.696495  0  0  -0.479034  0  3.930942  0  0  -0.483049  0  3.935087  0  -0.087873  0  -0.244602  -0.476071  0  3.928387  0
C  C74  1  0.66645345  0.16469949  0.20889658  1  0  -0.386817  0  3.697424  0  0  -0.464375  0  3.929537  0  0  -0.46861  0  3.933617  0  -0.09209  0  -0.240275  -0.46109  0  3.92662  0
C  C75  1  0.33354661  0.83530127  0.79110525  1  0  -0.386825  0  3.697364  0  0  -0.46437  0  3.929482  0  0  -0.468605  0  3.933559  0  -0.092011  0  -0.240265  -0.461086  0  3.926567  0
C  C76  1  0.62515754  0.79371857  0.37784469  1  0  0.630825  0  3.935784  0  0  0.580279  0  4.223411  0  0  0.613511  0  4.217337  0  1.55411  0  0.196315  0.557859  0  4.22645  0
C  C77  1  0.37484331  0.20628117  0.62215538  1  0  0.630845  0  3.935711  0  0  0.580293  0  4.223333  0  0  0.613522  0  4.217257  0  1.554137  0  0.196352  0.557872  0  4.226375  0
C  C78  1  0.75515891  0.89125361  0.42722674  1  0  -0.0648  0  3.779809  0  0  -0.043644  0  4.015889  0  0  -0.050445  0  4.038059  0  -0.051404  0  -0.023582  -0.039107  0  4.000547  0
C  C79  1  0.24484054  0.10874408  0.57277136  1  0  -0.064802  0  3.779866  0  0  -0.043607  0  4.015888  0  0  -0.050406  0  4.038056  0  -0.051386  0  -0.023547  -0.039069  0  4.000546  0
C  C80  1  0.77245156  0.02878316  0.51860570  1  0  -0.077211  0  3.744744  0  0  -0.100701  0  3.994729  0  0  -0.101063  0  4.014619  0  -0.12514  0  -0.088261  -0.100079  0  3.981119  0
C  C81  1  0.22755147  0.97121760  0.48139377  1  0  -0.077144  0  3.744756  0  0  -0.10062  0  3.994717  0  0  -0.10098  0  4.014608  0  -0.125319  0  -0.088256  -0.099996  0  3.981101  0
C  C82  1  0.89665836  0.11521323  0.57708248  1  0  -0.120127  0  3.755517  0  0  -0.138132  0  4.003343  0  0  -0.141528  0  4.025032  0  -0.019701  0  -0.09369  -0.135812  0  3.98859  0
C  C83  1  0.10334588  0.88478855  0.42291771  1  0  -0.120159  0  3.755475  0  0  -0.138159  0  4.003324  0  0  -0.141558  0  4.025017  0  -0.019502  0  -0.093691  -0.135839  0  3.988573  0
C  C84  1  0.99072436  0.93125193  0.45210232  1  0  0.054001  0  3.800526  0  0  0.071137  0  4.025125  0  0  0.070569  0  4.049808  0  -0.014123  0  -0.008882  0.071469  0  4.008417  0
C  C85  1  0.00927611  0.06875087  0.54789718  1  0  0.054101  0  3.800641  0  0  0.071324  0  4.025143  0  0  0.070759  0  4.049823  0  0.031702  0  -0.008805  0.071656  0  4.008436  0
C  C86  1  0.86145826  0.84559008  0.39229994  1  0  -0.11505  0  3.722402  0  0  -0.141899  0  3.964053  0  0  -0.141826  0  3.982514  0  -0.037496  0  -0.082163  -0.141648  0  3.951389  0
C  C87  1  0.13854160  0.15440966  0.60769824  1  0  -0.115122  0  3.722442  0  0  -0.142006  0  3.964066  0  0  -0.141933  0  3.982523  0  -0.037508  0  -0.082218  -0.141754  0  3.951402  0
C  C88  1  0.31742578  0.30302045  0.13939567  1  0  0.643491  0  3.943322  0  0  0.591979  0  4.236823  0  0  0.625266  0  4.230913  0  1.564608  0  0.19181  0.569249  0  4.240088  0
C  C89  1  0.68257151  0.69698132  0.86060174  1  0  0.643636  0  3.943178  0  0  0.592119  0  4.236674  0  0  0.625407  0  4.230762  0  1.572042  0  0.191863  0.569387  0  4.239944  0
C  C90  1  0.19332564  0.19033020  0.06791620  1  0  -0.067528  0  3.771764  0  0  -0.043982  0  4.007321  0  0  -0.050576  0  4.029186  0  -0.002  0  -0.024348  -0.039785  0  3.992602  0
C  C91  1  0.80667302  0.80966852  0.93208206  1  0  -0.06757  0  3.771768  0  0  -0.04401  0  4.00733  0  0  -0.050604  0  4.029197  0  -0.009024  0  -0.024345  -0.039807  0  3.992604  0
C  C92  1  0.14541529  0.13807101  0.13329505  1  0  -0.115823  0  3.71875  0  0  -0.145774  0  3.968236  0  0  -0.145712  0  3.987021  0  -0.026932  0  -0.08251  -0.145675  0  3.955555  0
C  C93  1  0.85458535  0.86192771  0.86670458  1  0  -0.115726  0  3.718689  0  0  -0.145669  0  3.968153  0  0  -0.145604  0  3.986937  0  -0.02723  0  -0.082479  -0.145572  0  3.955471  0
C  C94  1  0.03234608  0.02898312  0.06843986  1  0  0.057324  0  3.787439  0  0  0.074587  0  4.012524  0  0  0.074057  0  4.037194  0  -0.083786  0  -0.007833  0.074862  0  3.995709  0
C  C95  1  0.96765555  0.97101560  0.93155925  1  0  0.057261  0  3.787422  0  0  0.074513  0  4.012523  0  0  0.073982  0  4.037193  0  0.079011  0  -0.00787  0.074789  0  3.99571  0
C  C96  1  0.98229391  0.97288258  0.13355527  1  0  -0.119993  0  3.756355  0  0  -0.135058  0  4.001096  0  0  -0.138472  0  4.02362  0  -0.041063  0  -0.092319  -0.132789  0  3.985938  0
C  C97  1  0.01770654  0.02711512  0.86644312  1  0  -0.120037  0  3.756374  0  0  -0.135108  0  4.001121  0  0  -0.13852  0  4.023645  0  -0.041092  0  -0.092321  -0.132844  0  3.985957  0
C  C98  1  0.12664329  0.13510935  0.93294682  1  0  -0.088008  0  3.772031  0  0  -0.109523  0  4.020384  0  0  -0.110402  0  4.040797  0  -0.110147  0  -0.092532  -0.108928  0  4.006945  0
C  C99  1  0.87335537  0.86488937  0.06705224  1  0  -0.088142  0  3.77209  0  0  -0.109687  0  4.020455  0  0  -0.110567  0  4.04087  0  -0.110007  0  -0.092567  -0.10909  0  4.007012  0
N  N100  1  0.44307795  0.65923257  0.50513932  1  0  -0.698546  0  3.091895  0  0  -0.660761  0  3.33298  0  0  -0.683059  0  3.325564  0  -1.355991  0  -0.568993  -0.645566  0  3.337867  0
N  N101  1  0.55692212  0.34076819  0.49486010  1  0  -0.698421  0  3.092014  0  0  -0.660664  0  3.333077  0  0  -0.682945  0  3.325683  0  -1.355983  0  -0.568985  -0.645471  0  3.337959  0
N  N102  1  0.24553778  0.57880949  0.32405870  1  0  -0.511  0  3.155848  0  0  -0.430721  0  3.428227  0  0  -0.458743  0  3.438837  0  -1.203106  0  -0.35358  -0.412146  0  3.420767  0
N  N103  1  0.75446108  0.42119025  0.67594080  1  0  -0.510992  0  3.155906  0  0  -0.43072  0  3.42827  0  0  -0.458725  0  3.438893  0  -1.203141  0  -0.353579  -0.412142  0  3.4208  0
N  N104  1  0.27028061  0.51107985  0.48834648  1  0  -0.520774  0  3.134401  0  0  -0.446062  0  3.412017  0  0  -0.47267  0  3.420707  0  -1.190537  0  -0.350562  -0.428392  0  3.405904  0
N  N105  1  0.72971945  0.48892091  0.51165454  1  0  -0.520673  0  3.134448  0  0  -0.446006  0  3.412087  0  0  -0.472597  0  3.420792  0  -1.190465  0  -0.350567  -0.428336  0  3.405971  0
N  N106  1  0.67422917  0.51212454  0.08033629  1  0  -0.706652  0  3.074094  0  0  -0.668461  0  3.308241  0  0  -0.691687  0  3.302229  0  -1.350035  0  -0.575429  -0.652155  0  3.312329  0
N  N107  1  0.32577189  0.48787621  0.91966502  1  0  -0.706585  0  3.074152  0  0  -0.668394  0  3.308278  0  0  -0.691617  0  3.302272  0  -1.350069  0  -0.57542  -0.652089  0  3.312366  0
N  N108  1  0.66512136  0.29242864  0.93114130  1  0  -0.514536  0  3.1454  0  0  -0.433208  0  3.415624  0  0  -0.460988  0  3.42529  0  -1.217247  0  -0.354019  -0.41463  0  3.408766  0
N  N109  1  0.33487751  0.70757109  0.06885900  1  0  -0.514589  0  3.145438  0  0  -0.433279  0  3.415667  0  0  -0.461055  0  3.425333  0  -1.21727  0  -0.354058  -0.414702  0  3.40881  0
N  N110  1  0.66491272  0.33915218  0.13771345  1  0  -0.522414  0  3.114925  0  0  -0.453345  0  3.393876  0  0  -0.479352  0  3.401724  0  -1.216194  0  -0.349065  -0.435952  0  3.388497  0
N  N111  1  0.33508734  0.66084858  0.86228757  1  0  -0.522384  0  3.114944  0  0  -0.453327  0  3.393886  0  0  -0.479331  0  3.401736  0  -1.216389  0  -0.349032  -0.435935  0  3.388507  0
O  O112  1  0.60629118  0.67359507  0.28665954  1  0  -0.675492  0  2.124564  0  0  -0.600947  0  2.391796  0  0  -0.628514  0  2.377606  0  -1.187203  0  -0.340785  -0.581604  0  2.400861  0
O  O113  1  0.39371087  0.32640569  0.71334125  1  0  -0.675488  0  2.124545  0  0  -0.600947  0  2.39179  0  0  -0.62851  0  2.377597  0  -1.187198  0  -0.340795  -0.581604  0  2.400856  0
O  O114  1  0.54139171  0.83443307  0.43063338  1  0  -0.620113  0  1.982023  0  0  -0.557828  0  2.207556  0  0  -0.583048  0  2.198302  0  -1.17988  0  -0.318641  -0.54008  0  2.213524  0
O  O115  1  0.45861232  0.16556769  0.56936958  1  0  -0.620127  0  1.982033  0  0  -0.557833  0  2.207528  0  0  -0.583069  0  2.198309  0  -1.179951  0  -0.318661  -0.540087  0  2.213494  0
O  O116  1  0.33660851  0.37443203  0.08690332  1  0  -0.664654  0  2.014411  0  0  -0.60331  0  2.260173  0  0  -0.628662  0  2.248335  0  -1.197243  0  -0.336951  -0.585058  0  2.267884  0
O  O117  1  0.66338481  0.62556975  0.91309375  1  0  -0.66471  0  2.014418  0  0  -0.60336  0  2.260182  0  0  -0.628715  0  2.248342  0  -1.197292  0  -0.336971  -0.585107  0  2.267895  0
O  O118  1  0.39621093  0.31840419  0.24894450  1  0  -0.660916  0  2.035249  0  0  -0.593301  0  2.288238  0  0  -0.6217  0  2.278667  0  -1.179199  0  -0.335818  -0.573313  0  2.294062  0
O  O119  1  0.60378914  0.68159657  0.75105251  1  0  -0.660975  0  2.035121  0  0  -0.593386  0  2.28816  0  0  -0.621785  0  2.278587  0  -1.179281  0  -0.335863  -0.573401  0  2.293987  0
