# generated using pymatgen
data_ZnH24C43(N2O3)2
_symmetry_space_group_name_H-M   'P 1'
_cell_length_a   15.87307564
_cell_length_b   17.21490942
_cell_length_c   28.05520126
_cell_angle_alpha   90.06827907
_cell_angle_beta   88.17803456
_cell_angle_gamma   87.61375621
_symmetry_Int_Tables_number   1
_chemical_formula_structural   ZnH24C43(N2O3)2
_chemical_formula_sum   'Zn2 H48 C86 N8 O12'
_cell_volume   7655.63931132
_cell_formula_units_Z   2
loop_
 _symmetry_equiv_pos_site_id
 _symmetry_equiv_pos_as_xyz
  1  'x, y, z'
loop_
 _atom_site_type_symbol
 _atom_site_label
 _atom_site_symmetry_multiplicity
 _atom_site_fract_x
 _atom_site_fract_y
 _atom_site_fract_z
 _atom_site_occupancy
 _atom_site_pbe_bader_charge
 _atom_site_pbe_bader_spin_density
 _atom_site_pbe_cm5_charge
 _atom_site_pbe_ddec_charge
 _atom_site_pbe_ddec_spin_density
 _atom_site_pbe_ddec_sum_bond_order
 _atom_site_pbe_magmom
Zn  Zn0  1  0.58780843  0.50157612  0.49793652  1  1.277749  0  0.663938  0.812783  0  2.450636  0
Zn  Zn1  1  0.41201192  0.49798147  0.50156668  1  1.285428  0  0.669666  0.818296  0  2.421666  0
H  H2  1  0.40251715  0.44107320  0.74836118  1  0.081243  0  0.109084  0.120656  0  0.988737  0
H  H3  1  0.40279216  0.57356601  0.25589841  1  0.06924  0  0.108472  0.118925  0  0.992494  0
H  H4  1  0.54924746  0.30784902  0.87377093  1  0.12518  0  0.116822  0.122281  0  0.979789  0
H  H5  1  0.55593192  0.68755848  0.12402308  1  0.121143  0  0.116747  0.121809  0  0.979812  0
H  H6  1  0.61253919  0.42496054  0.35049221  1  0.095016  0  0.10699  0.112218  0  0.988571  0
H  H7  1  0.61817872  0.56086044  0.64390530  1  0.116946  0  0.106537  0.112181  0  0.993422  0
H  H8  1  0.61993692  0.41642566  0.26132401  1  0.078707  0  0.109049  0.11773  0  0.982078  0
H  H9  1  0.62867761  0.56895798  0.73277665  1  0.08657  0  0.109621  0.118823  0  0.981202  0
H  H10  1  0.50349435  0.30274397  0.11929032  1  0.13369  0  0.116758  0.122479  0  0.978339  0
H  H11  1  0.51914587  0.69786244  0.87952584  1  0.10353  0  0.116523  0.121669  0  0.979666  0
H  H12  1  0.51606426  0.30195374  0.03110623  1  0.101399  0  0.107375  0.106834  0  1.002656  0
H  H13  1  0.52863961  0.69715749  0.96743894  1  0.064132  0  0.107525  0.106845  0  1.003399  0
H  H14  1  0.54799380  0.30254213  0.96201282  1  0.06975  0  0.107617  0.106692  0  1.002292  0
H  H15  1  0.55797807  0.69270688  0.03574950  1  0.076643  0  0.107752  0.10665  0  1.003839  0
H  H16  1  0.61500245  0.74899406  0.49573969  1  0.092353  0  0.103182  0.106452  0  1.003595  0
H  H17  1  0.38302517  0.25326071  0.51237039  1  0.062633  0  0.103649  0.105041  0  1.009783  0
H  H18  1  0.60943272  0.89475854  0.50557108  1  0.102061  0  0.103799  0.103596  0  1.019161  0
H  H19  1  0.38769868  0.10753227  0.52239690  1  0.10472  0  0.102909  0.101629  0  1.020935  0
H  H20  1  0.65824389  0.10654282  0.52239862  1  0.065478  0  0.10594  0.107514  0  0.997537  0
H  H21  1  0.34279942  0.89099618  0.53605360  1  0.106947  0  0.104532  0.105813  0  0.998106  0
H  H22  1  0.65310438  0.25257292  0.51245345  1  0.07983  0  0.104717  0.109866  0  0.998919  0
H  H23  1  0.34873079  0.74481763  0.52584562  1  0.100335  0  0.104543  0.107697  0  1.002443  0
H  H24  1  0.72668570  0.40684598  0.53719403  1  0.123933  0  0.129446  0.110374  0  0.980535  0
H  H25  1  0.27166506  0.60707052  0.47811330  1  0.15273  0  0.12612  0.108254  0  1.002241  0
H  H26  1  0.12765896  0.38010693  0.54166011  1  0.12021  0  0.114627  0.128358  0  1.004474  0
H  H27  1  0.87424932  0.60385029  0.44382748  1  0.108994  0  0.117866  0.132166  0  0.993109  0
H  H28  1  0.28656893  0.38404144  0.53322696  1  0.148079  0  0.124732  0.101008  0  1.001404  0
H  H29  1  0.71454153  0.60349288  0.45283370  1  0.139518  0  0.131983  0.1093  0  0.964608  0
H  H30  1  0.45730131  0.32823075  0.62617960  1  0.084743  0  0.103969  0.106099  0  0.987527  0
H  H31  1  0.34287148  0.24395031  0.60288547  1  0.065319  0  0.09667  0.092841  0  1.01559  0
H  H32  1  0.19213190  0.28548582  0.61983138  1  0.047778  0  0.092244  0.084541  0  1.013268  0
H  H33  1  0.15781307  0.41245691  0.66022935  1  0.049778  0  0.096678  0.091749  0  1.000446  0
H  H34  1  0.27332668  0.49556937  0.68502997  1  0.091916  0  0.100114  0.100385  0  0.995998  0
H  H35  1  0.46656037  0.66225991  0.38909340  1  0.068545  0  0.10293  0.105092  0  0.991651  0
H  H36  1  0.35932721  0.75727210  0.42284002  1  0.059201  0  0.096101  0.093292  0  1.015074  0
H  H37  1  0.20808053  0.74891465  0.40210905  1  0.041601  0  0.092664  0.089206  0  1.020684  0
H  H38  1  0.16622792  0.64527540  0.34660279  1  0.046878  0  0.092677  0.087094  0  1.012461  0
H  H39  1  0.27400578  0.54995474  0.31299467  1  0.033398  0  0.097892  0.096744  0  1.001956  0
H  H40  1  0.95281931  0.33135486  0.47417879  1  0.087063  0  0.103108  0.106298  0  0.989791  0
H  H41  1  0.02419492  0.21932217  0.51402224  1  0.058024  0  0.103908  0.100345  0  0.989195  0
H  H42  1  0.00789979  0.20342072  0.60219167  1  0.083679  0  0.102791  0.097949  0  0.993343  0
H  H43  1  0.91744994  0.29889268  0.64960678  1  0.090071  0  0.105974  0.102906  0  0.986549  0
H  H44  1  0.84548886  0.41049157  0.60945288  1  0.049855  0  0.106534  0.10861  0  0.988457  0
H  H45  1  0.06182125  0.59383276  0.41204402  1  0.067618  0  0.102794  0.097986  0  1.012516  0
H  H46  1  0.99156095  0.72033678  0.39047057  1  0.059086  0  0.103963  0.100412  0  0.987885  0
H  H47  1  0.99158483  0.83247638  0.44672833  1  0.081565  0  0.104085  0.099594  0  0.990989  0
H  H48  1  0.06361169  0.81776990  0.52411672  1  0.066058  0  0.104573  0.100428  0  0.988983  0
H  H49  1  0.13576129  0.69187159  0.54455075  1  0.063452  0  0.105697  0.10783  0  0.989678  0
C  C50  1  0.51321089  0.34717340  0.50428940  1  1.567368  0  0.21362  0.584008  0  4.183835  0
C  C51  1  0.48677750  0.65244759  0.50366321  1  1.563942  0  0.213132  0.582808  0  4.18331  0
C  C52  1  0.50221959  0.49799117  0.59307604  1  1.566228  0  0.212741  0.591508  0  4.180807  0
C  C53  1  0.50219053  0.50177728  0.40672105  1  1.566867  0  0.214631  0.594471  0  4.182203  0
C  C54  1  0.53528011  0.43183855  0.81840724  1  1.280857  0  0.240253  0.432759  0  4.101901  0
C  C55  1  0.53354458  0.56582193  0.17992100  1  1.328148  0  0.240694  0.43711  0  4.103233  0
C  C56  1  0.51920114  0.57733619  0.82066458  1  1.340173  0  0.240359  0.433481  0  4.102807  0
C  C57  1  0.50927583  0.42293467  0.17819580  1  1.329098  0  0.239905  0.435592  0  4.107595  0
C  C58  1  0.57714803  0.53960241  0.71667105  1  0.032351  0  -0.08718  -0.156335  0  3.993648  0
C  C59  1  0.57081777  0.45210957  0.27975608  1  -0.034422  0  -0.087374  -0.155859  0  3.992494  0
C  C60  1  0.57111611  0.53517701  0.66745225  1  -0.029696  0  -0.082466  -0.07781  0  3.99316  0
C  C61  1  0.56641118  0.45685913  0.32926219  1  0.02628  0  -0.081885  -0.078126  0  3.989387  0
C  C62  1  0.44226308  0.46382565  0.67571782  1  -0.029802  0  0.008076  0.072927  0  3.946317  0
C  C63  1  0.44249016  0.54487127  0.32676206  1  0.016086  0  0.005895  0.072032  0  3.949145  0
C  C64  1  0.44870952  0.46901191  0.72531033  1  0.035843  0  -0.083077  -0.201126  0  3.941026  0
C  C65  1  0.44731040  0.53924123  0.27687517  1  0.035073  0  -0.082075  -0.197325  0  3.936237  0
C  C66  1  0.51561016  0.50573231  0.74539058  1  0.273474  0  0.088481  0.198794  0  4.027155  0
C  C67  1  0.51098942  0.49410071  0.25379120  1  0.287694  0  0.086716  0.199923  0  4.028243  0
C  C68  1  0.53360486  0.50212348  0.89729066  1  -0.027965  0  0.003697  0.037927  0  4.005661  0
C  C69  1  0.52964071  0.49594211  0.10103472  1  0.010952  0  0.002621  0.034748  0  4.005544  0
C  C70  1  0.53770045  0.43173606  0.87102867  1  0.045862  0  -0.011833  -0.074713  0  4.010966  0
C  C71  1  0.53698721  0.56557857  0.12717719  1  -0.047798  0  -0.011148  -0.072731  0  4.00593  0
C  C72  1  0.54449450  0.36116131  0.89486555  1  -0.084418  0  -0.068368  -0.067201  0  3.975317  0
C  C73  1  0.54860237  0.63500289  0.10311309  1  -0.091271  0  -0.067542  -0.065771  0  3.973464  0
C  C74  1  0.52682680  0.57414954  0.87305989  1  -0.042379  0  -0.012296  -0.075335  0  4.00459  0
C  C75  1  0.51805681  0.42506750  0.12549571  1  -0.001407  0  -0.011082  -0.071057  0  3.999037  0
C  C76  1  0.50468231  0.49775354  0.64652824  1  -0.010029  0  -0.009638  -0.069181  0  3.916146  0
C  C77  1  0.50312681  0.50250445  0.35313872  1  -0.052057  0  -0.00909  -0.068097  0  3.91049  0
C  C78  1  0.53073621  0.42572481  0.02426975  1  0.037181  0  0.005107  0.039717  0  3.978993  0
C  C79  1  0.53594672  0.57204793  0.97401640  1  -0.078725  0  0.005237  0.040147  0  3.978456  0
C  C80  1  0.54046869  0.57000209  0.02601056  1  0.075967  0  0.005379  0.0411  0  3.975931  0
C  C81  1  0.53741340  0.42705596  0.97215577  1  -0.022523  0  0.005925  0.042074  0  3.974605  0
C  C82  1  0.53378720  0.49720418  0.05002025  1  -0.00828  0  0.004509  0.001672  0  3.916628  0
C  C83  1  0.53589632  0.50039573  0.94822655  1  0.011143  0  0.004408  0.000912  0  3.91402  0
C  C84  1  0.52019585  0.35691857  0.04996055  1  -0.095658  0  -0.080422  -0.121949  0  3.970113  0
C  C85  1  0.53031390  0.64185929  0.94850219  1  -0.056429  0  -0.081514  -0.122809  0  3.971356  0
C  C86  1  0.51307595  0.35650980  0.09973313  1  -0.063921  0  -0.068345  -0.066784  0  3.970367  0
C  C87  1  0.52501335  0.64313106  0.89889118  1  0.068879  0  -0.067303  -0.064872  0  3.971681  0
C  C88  1  0.54368280  0.35902542  0.94464266  1  -0.003858  0  -0.081201  -0.121807  0  3.97188  0
C  C89  1  0.54966658  0.63706876  0.05333361  1  0.009276  0  -0.081191  -0.121979  0  3.972987  0
C  C90  1  0.51760390  0.26088473  0.51169686  1  -0.01149  0  -0.010601  -0.018532  0  3.938799  0
C  C91  1  0.48224210  0.73897386  0.51010089  1  -0.026365  0  -0.010821  -0.019315  0  3.940172  0
C  C92  1  0.44265831  0.22017983  0.51503412  1  0.024069  0  -0.082138  -0.082605  0  3.986291  0
C  C93  1  0.55597988  0.78103031  0.50467924  1  -0.062065  0  -0.082628  -0.081335  0  3.982948  0
C  C94  1  0.44501303  0.14021611  0.52057044  1  -0.109377  0  -0.086709  -0.14413  0  3.957734  0
C  C95  1  0.55321906  0.86104534  0.51027992  1  -0.015162  0  -0.085562  -0.142277  0  3.957429  0
C  C96  1  0.52351103  0.09934819  0.52270512  1  0.415739  0  0.086929  0.171972  0  4.050412  0
C  C97  1  0.47570499  0.90049037  0.52168071  1  0.309817  0  0.0866  0.172428  0  4.047585  0
C  C98  1  0.59850924  0.13991503  0.52051709  1  -0.067023  0  -0.081242  -0.141739  0  3.965183  0
C  C99  1  0.40188572  0.85870849  0.52736341  1  -0.023645  0  -0.082987  -0.145815  0  3.964327  0
C  C100  1  0.59554500  0.22026039  0.51499037  1  -0.002105  0  -0.084066  -0.088263  0  3.979856  0
C  C101  1  0.40521623  0.77836701  0.52166407  1  -0.034674  0  -0.083476  -0.088437  0  3.987064  0
C  C102  1  0.23682022  0.55764012  0.49119932  1  0.542141  0  0.065952  0.068066  0  3.863852  0
C  C103  1  0.76251357  0.44993357  0.51761138  1  0.543498  0  0.065946  0.063437  0  3.868709  0
C  C104  1  0.14857096  0.56080821  0.49277909  1  0.015834  0  0.009175  -0.031766  0  3.930871  0
C  C105  1  0.85070747  0.44476479  0.51543039  1  0.04043  0  0.01264  -0.024866  0  3.935724  0
C  C106  1  0.10927012  0.49409586  0.51048764  1  0.309038  0  0.112223  0.154595  0  4.02375  0
C  C107  1  0.89083568  0.50260525  0.48835078  1  0.270897  0  0.11102  0.152623  0  4.009384  0
C  C108  1  0.15817610  0.43032483  0.52644834  1  -0.014818  0  -0.075612  -0.195041  0  3.949827  0
C  C109  1  0.84270569  0.55981415  0.46484203  1  -0.004526  0  -0.072036  -0.185689  0  3.938474  0
C  C110  1  0.24521456  0.43237682  0.52212000  1  0.503901  0  0.060579  0.112715  0  3.913844  0
C  C111  1  0.75551826  0.56007639  0.46983148  1  0.536165  0  0.062063  0.106661  0  3.921753  0
C  C112  1  0.37303306  0.41751071  0.65736360  1  0.075896  0  -0.001801  0.085148  0  3.982705  0
C  C113  1  0.39161375  0.34678063  0.63362516  1  -0.063942  0  -0.086162  -0.114664  0  3.946892  0
C  C114  1  0.32698896  0.29944191  0.62044891  1  -0.083931  0  -0.097731  -0.088637  0  4.042987  0
C  C115  1  0.24269067  0.32265660  0.63005981  1  -0.079141  0  -0.104296  -0.107208  0  4.063296  0
C  C116  1  0.22348911  0.39360922  0.65297329  1  -0.070375  0  -0.100983  -0.091121  0  4.062827  0
C  C117  1  0.28827153  0.44035011  0.66690255  1  -0.081158  0  -0.093412  -0.134772  0  3.97745  0
C  C118  1  0.37765194  0.59940421  0.34882749  1  -0.009433  0  -0.004472  0.080482  0  3.988029  0
C  C119  1  0.40055762  0.65825764  0.37994985  1  -0.034441  0  -0.087971  -0.115938  0  3.951126  0
C  C120  1  0.34011542  0.71185367  0.39882661  1  -0.019647  0  -0.096212  -0.081194  0  4.026154  0
C  C121  1  0.25553586  0.70740584  0.38706420  1  -0.042763  0  -0.102979  -0.101782  0  4.043294  0
C  C122  1  0.23210080  0.64919369  0.35597662  1  -0.054147  0  -0.102544  -0.092108  0  4.065983  0
C  C123  1  0.29267110  0.59584675  0.33687174  1  -0.048927  0  -0.095963  -0.137648  0  3.985979  0
C  C124  1  0.89526798  0.37885105  0.53927826  1  -0.063805  0  -0.010034  0.065342  0  4.049059  0
C  C125  1  0.94553705  0.32433167  0.51269982  1  -0.088501  0  -0.093751  -0.137806  0  3.992009  0
C  C126  1  0.98575029  0.26150717  0.53515791  1  -0.030006  0  -0.094655  -0.085539  0  4.049234  0
C  C127  1  0.97634384  0.25244079  0.58454373  1  -0.062706  0  -0.093571  -0.093577  0  4.035346  0
C  C128  1  0.92554054  0.30588478  0.61113039  1  -0.007101  0  -0.090189  -0.07693  0  4.031122  0
C  C129  1  0.88479156  0.36853542  0.58863168  1  -0.033372  0  -0.087608  -0.133083  0  3.978588  0
C  C130  1  0.10291952  0.63449699  0.47969789  1  -0.091084  0  -0.009082  0.069984  0  4.015141  0
C  C131  1  0.06167226  0.64303553  0.43643940  1  0.009041  0  -0.085403  -0.128093  0  4.006324  0
C  C132  1  0.02231000  0.71409621  0.42456471  1  -0.056041  0  -0.093088  -0.08732  0  4.037558  0
C  C133  1  0.02271117  0.77712444  0.45598639  1  -0.095658  0  -0.092101  -0.090273  0  4.031563  0
C  C134  1  0.06339066  0.76903828  0.49923514  1  -0.078905  0  -0.091688  -0.080135  0  4.036876  0
C  C135  1  0.10381085  0.69829675  0.51082956  1  0.037493  0  -0.089405  -0.134443  0  3.976802  0
N  N136  1  0.52272321  0.50521307  0.79648217  1  -1.192201  0  -0.229339  -0.20479  0  3.555967  0
N  N137  1  0.51717834  0.49417511  0.20235135  1  -1.162168  0  -0.228993  -0.219755  0  3.574091  0
N  N138  1  0.53371826  0.01764211  0.52420871  1  -0.520238  0  -0.152393  -0.141213  0  3.29096  0
N  N139  1  0.46531843  0.98202886  0.52550975  1  -0.482379  0  -0.153288  -0.142465  0  3.287939  0
N  N140  1  0.28347151  0.49514840  0.50469591  1  -1.252969  0  -0.318229  -0.186116  0  3.522581  0
N  N141  1  0.71665744  0.50569873  0.49574051  1  -1.258673  0  -0.317273  -0.18192  0  3.528797  0
N  N142  1  0.02108789  0.49068032  0.51747471  1  -0.450534  0  -0.111225  -0.074112  0  3.250908  0
N  N143  1  0.97937036  0.50548183  0.48102509  1  -0.452148  0  -0.113879  -0.090245  0  3.253506  0
O  O144  1  0.58276239  0.38121382  0.50023424  1  -1.170772  0  -0.317787  -0.548664  0  2.323834  0
O  O145  1  0.41740343  0.61793218  0.50437476  1  -1.164228  0  -0.31136  -0.544031  0  2.344204  0
O  O146  1  0.43979019  0.37974601  0.50277929  1  -1.164611  0  -0.314597  -0.546648  0  2.340014  0
O  O147  1  0.56015953  0.62013187  0.49814646  1  -1.171936  0  -0.319295  -0.555516  0  2.333306  0
O  O148  1  0.57343417  0.50003384  0.57080717  1  -1.161569  0  -0.322104  -0.553699  0  2.328984  0
O  O149  1  0.43117135  0.49988119  0.42877050  1  -1.150604  0  -0.311312  -0.538221  0  2.332317  0
O  O150  1  0.43054932  0.49775025  0.57429800  1  -1.156127  0  -0.309214  -0.535107  0  2.339511  0
O  O151  1  0.57414392  0.50125728  0.42569720  1  -1.160478  0  -0.322331  -0.553962  0  2.324378  0
O  O152  1  0.54298740  0.37188634  0.79448352  1  -1.101933  0  -0.281298  -0.439153  0  2.069388  0
O  O153  1  0.54390699  0.62474201  0.20348718  1  -1.102302  0  -0.280167  -0.436982  0  2.071046  0
O  O154  1  0.49539851  0.36286507  0.20028813  1  -1.106652  0  -0.282712  -0.441531  0  2.068091  0
O  O155  1  0.50952283  0.63883436  0.79881214  1  -1.103016  0  -0.283601  -0.443422  0  2.066226  0
