# generated using pymatgen
data_CuPH10C10(NO2)2
_symmetry_space_group_name_H-M   'P 1'
_cell_length_a   8.20639189
_cell_length_b   8.74169628
_cell_length_c   17.40402950
_cell_angle_alpha   90.00073123
_cell_angle_beta   106.91879317
_cell_angle_gamma   90.00133086
_symmetry_Int_Tables_number   1
_chemical_formula_structural   CuPH10C10(NO2)2
_chemical_formula_sum   'Cu4 P4 H40 C40 N8 O16'
_cell_volume   1194.48803485
_cell_formula_units_Z   4
loop_
 _symmetry_equiv_pos_site_id
 _symmetry_equiv_pos_as_xyz
  1  'x, y, z'
loop_
 _atom_site_type_symbol
 _atom_site_label
 _atom_site_symmetry_multiplicity
 _atom_site_fract_x
 _atom_site_fract_y
 _atom_site_fract_z
 _atom_site_occupancy
 _atom_site_hle17_bader_spin_density
 _atom_site_hle17_ddec_charge
 _atom_site_hle17_ddec_spin_density
 _atom_site_hle17_ddec_sum_bond_order
 _atom_site_hle17_magmom
 _atom_site_hse06_10hf_bader_spin_density
 _atom_site_hse06_10hf_ddec_charge
 _atom_site_hse06_10hf_ddec_spin_density
 _atom_site_hse06_10hf_ddec_sum_bond_order
 _atom_site_hse06_10hf_magmom
 _atom_site_hse06_bader_spin_density
 _atom_site_hse06_ddec_charge
 _atom_site_hse06_ddec_spin_density
 _atom_site_hse06_ddec_sum_bond_order
 _atom_site_hse06_magmom
 _atom_site_pbe_bader_spin_density
 _atom_site_pbe_cm5_charge
 _atom_site_pbe_ddec_charge
 _atom_site_pbe_ddec_spin_density
 _atom_site_pbe_ddec_sum_bond_order
 _atom_site_pbe_magmom
Cu  Cu0  1  0.72041456  0.63356126  0.01198861  1  0  0.50374  0  1.695058  0  0  0.374712  0  2.140108  0  0  0.374628  0  2.102554  0  0  0.542521  0.380129  0  2.162316  0
Cu  Cu1  1  0.22042954  0.36643454  0.51199265  1  0  0.503717  0  1.695048  0  0  0.374706  0  2.14006  0  0  0.374603  0  2.102519  0  0  0.542523  0.380158  0  2.162292  0
Cu  Cu2  1  0.27958052  0.36643683  0.98801104  1  0  0.50364  0  1.695079  0  0  0.374621  0  2.140111  0  0  0.374531  0  2.102542  0  0  0.542512  0.38009  0  2.162322  0
Cu  Cu3  1  0.77957073  0.63357499  0.48800877  1  0  0.503726  0  1.695064  0  0  0.37474  0  2.14008  0  0  0.374647  0  2.102514  0  0  0.542504  0.380194  0  2.162306  0
P  P4  1  0.76545954  0.00481666  0.02353676  1  0  1.729921  0  4.870099  0  0  1.546395  0  5.399356  0  0  1.602897  0  5.345391  0  0  0.408853  1.506995  0  5.436072  0
P  P5  1  0.26545871  0.99517929  0.52354598  1  0  1.729676  0  4.870112  0  0  1.546221  0  5.399296  0  0  1.602723  0  5.345337  0  0  0.4089  1.506818  0  5.436016  0
P  P6  1  0.23454383  0.99518258  0.97645585  1  0  1.729897  0  4.869917  0  0  1.546447  0  5.399099  0  0  1.602949  0  5.345139  0  0  0.409006  1.507044  0  5.435811  0
P  P7  1  0.73454336  0.00482681  0.47646256  1  0  1.729656  0  4.870551  0  0  1.546175  0  5.399757  0  0  1.60268  0  5.345795  0  0  0.408784  1.506773  0  5.43647  0
H  H8  1  0.54519125  0.10626749  0.05321308  1  0  0.438248  0  0.869239  0  0  0.402318  0  0.940383  0  0  0.413779  0  0.924018  0  0  0.29873  0.39434  0  0.951724  0
H  H9  1  0.04518484  0.89373472  0.55322267  1  0  0.438246  0  0.86923  0  0  0.402312  0  0.940386  0  0  0.413773  0  0.924021  0  0  0.298716  0.394337  0  0.951722  0
H  H10  1  0.45481199  0.89373060  0.94677778  1  0  0.43828  0  0.869184  0  0  0.402345  0  0.940343  0  0  0.413806  0  0.923979  0  0  0.298726  0.394367  0  0.951685  0
H  H11  1  0.95481855  0.10627024  0.44678661  1  0  0.438195  0  0.86931  0  0  0.4023  0  0.940409  0  0  0.413763  0  0.924042  0  0  0.2987  0.394322  0  0.951751  0
H  H12  1  0.03179345  0.92255672  0.06654695  1  0  0.441452  0  0.867956  0  0  0.406095  0  0.938753  0  0  0.417891  0  0.921878  0  0  0.296647  0.397879  0  0.950464  0
H  H13  1  0.53179834  0.07744669  0.56655551  1  0  0.441515  0  0.867852  0  0  0.406124  0  0.938701  0  0  0.41792  0  0.921825  0  0  0.296658  0.397908  0  0.950413  0
H  H14  1  0.96821106  0.07744137  0.93344407  1  0  0.441504  0  0.867876  0  0  0.406162  0  0.938646  0  0  0.417957  0  0.921772  0  0  0.296688  0.397947  0  0.950357  0
H  H15  1  0.46820360  0.92255941  0.43345130  1  0  0.441446  0  0.867961  0  0  0.406087  0  0.938761  0  0  0.417883  0  0.921886  0  0  0.296635  0.397871  0  0.950473  0
H  H16  1  0.64460959  0.35750853  0.08309497  1  0  0.091304  0  0.967528  0  0  0.096033  0  1.039547  0  0  0.10016  0  1.033434  0  0  0.115578  0.09287  0  1.044224  0
H  H17  1  0.14462716  0.64248976  0.58310579  1  0  0.091242  0  0.967602  0  0  0.095987  0  1.039591  0  0  0.100112  0  1.033482  0  0  0.11555  0.092823  0  1.044267  0
H  H18  1  0.35538796  0.64248956  0.91690382  1  0  0.091268  0  0.967538  0  0  0.096048  0  1.039496  0  0  0.100176  0  1.033384  0  0  0.115586  0.092882  0  1.044171  0
H  H19  1  0.85538088  0.35751748  0.41689830  1  0  0.09114  0  0.967572  0  0  0.095863  0  1.0396  0  0  0.099993  0  1.033486  0  0  0.115502  0.092696  0  1.044276  0
H  H20  1  0.54304878  0.28711639  0.19680940  1  0  0.118565  0  0.928858  0  0  0.134692  0  0.976316  0  0  0.137534  0  0.975748  0  0  0.117676  0.132592  0  0.976984  0
H  H21  1  0.04305964  0.71287121  0.69681987  1  0  0.118538  0  0.928887  0  0  0.134674  0  0.976348  0  0  0.137513  0  0.975783  0  0  0.11771  0.132571  0  0.977013  0
H  H22  1  0.45695131  0.71288170  0.80318971  1  0  0.1186  0  0.928858  0  0  0.134732  0  0.976315  0  0  0.137576  0  0.975745  0  0  0.117683  0.132631  0  0.976983  0
H  H23  1  0.95695112  0.28712917  0.30318686  1  0  0.11849  0  0.929028  0  0  0.134624  0  0.976493  0  0  0.137467  0  0.975923  0  0  0.117661  0.132521  0  0.97716  0
H  H24  1  0.60919913  0.82263927  0.12664813  1  0  0.094934  0  0.938232  0  0  0.103584  0  0.998505  0  0  0.1069  0  0.995008  0  0  0.123484  0.100961  0  1.00131  0
H  H25  1  0.10919921  0.17735367  0.62664795  1  0  0.094895  0  0.938344  0  0  0.103559  0  0.998609  0  0  0.106877  0  0.99511  0  0  0.123493  0.100934  0  1.00142  0
H  H26  1  0.39079846  0.17735883  0.87335124  1  0  0.094959  0  0.938258  0  0  0.10361  0  0.998524  0  0  0.106926  0  0.995027  0  0  0.123494  0.100989  0  1.001333  0
H  H27  1  0.89079429  0.82264900  0.37334748  1  0  0.094874  0  0.938279  0  0  0.10354  0  0.998539  0  0  0.106856  0  0.995041  0  0  0.123491  0.10092  0  1.001344  0
H  H28  1  0.51663531  0.77130196  0.24682058  1  0  0.11763  0  0.934804  0  0  0.132949  0  0.983459  0  0  0.13611  0  0.982401  0  0  0.117302  0.130551  0  0.984538  0
H  H29  1  0.01664099  0.22867722  0.74682372  1  0  0.117662  0  0.934681  0  0  0.132899  0  0.983434  0  0  0.136115  0  0.982302  0  0  0.117232  0.130506  0  0.984511  0
H  H30  1  0.48335964  0.22869842  0.75317733  1  0  0.117649  0  0.934785  0  0  0.132958  0  0.983448  0  0  0.136141  0  0.98236  0  0  0.117292  0.130557  0  0.984529  0
H  H31  1  0.98335001  0.77131973  0.25317198  1  0  0.117651  0  0.934701  0  0  0.132917  0  0.983419  0  0  0.136106  0  0.982324  0  0  0.117267  0.130521  0  0.9845  0
H  H32  1  0.40283679  0.71998569  0.33121167  1  0  0.120868  0  0.94821  0  0  0.134865  0  1.000314  0  0  0.13769  0  0.999096  0  0  0.114633  0.132836  0  1.001373  0
H  H33  1  0.90282596  0.27999956  0.83121451  1  0  0.120841  0  0.948614  0  0  0.134836  0  1.000685  0  0  0.137647  0  0.999475  0  0  0.114688  0.132808  0  1.001745  0
H  H34  1  0.59717357  0.28001812  0.66878983  1  0  0.120904  0  0.948195  0  0  0.134838  0  1.00038  0  0  0.137651  0  0.999163  0  0  0.114639  0.132811  0  1.001441  0
H  H35  1  0.09717022  0.71999854  0.16878297  1  0  0.120899  0  0.948534  0  0  0.134906  0  1.000584  0  0  0.137718  0  0.999369  0  0  0.114715  0.132877  0  1.001638  0
H  H36  1  0.29829975  0.65059445  0.44333983  1  0  0.100819  0  0.961868  0  0  0.106121  0  1.02936  0  0  0.109481  0  1.025843  0  0  0.115236  0.103608  0  1.031955  0
H  H37  1  0.79828590  0.34938916  0.94334161  1  0  0.100788  0  0.961914  0  0  0.106112  0  1.029371  0  0  0.109471  0  1.025854  0  0  0.115218  0.103599  0  1.031969  0
H  H38  1  0.70170552  0.34941280  0.55666105  1  0  0.100797  0  0.96189  0  0  0.106116  0  1.029342  0  0  0.109474  0  1.025828  0  0  0.115236  0.103605  0  1.031931  0
H  H39  1  0.20170638  0.65060551  0.05665424  1  0  0.100844  0  0.961888  0  0  0.106152  0  1.029346  0  0  0.109512  0  1.025831  0  0  0.115255  0.103644  0  1.031933  0
H  H40  1  0.38524059  0.18688640  0.41505200  1  0  0.088171  0  0.963645  0  0  0.094894  0  1.02913  0  0  0.097939  0  1.025526  0  0  0.121411  0.092439  0  1.032091  0
H  H41  1  0.88524581  0.81310065  0.91505289  1  0  0.088193  0  0.963594  0  0  0.094948  0  1.029082  0  0  0.097989  0  1.025488  0  0  0.121442  0.092491  0  1.032049  0
H  H42  1  0.61474572  0.81311512  0.58494830  1  0  0.088128  0  0.963687  0  0  0.094859  0  1.029178  0  0  0.097905  0  1.025571  0  0  0.12139  0.092401  0  1.032154  0
H  H43  1  0.11475196  0.18689630  0.08494880  1  0  0.088205  0  0.963662  0  0  0.09492  0  1.029163  0  0  0.097964  0  1.025563  0  0  0.121444  0.092463  0  1.032125  0
H  H44  1  0.50802218  0.23892541  0.30542257  1  0  0.117267  0  0.939716  0  0  0.130678  0  0.991214  0  0  0.133814  0  0.990285  0  0  0.115015  0.128377  0  0.992124  0
H  H45  1  0.00803024  0.76105512  0.80542671  1  0  0.117207  0  0.939924  0  0  0.130694  0  0.99132  0  0  0.133828  0  0.990393  0  0  0.115007  0.128399  0  0.992229  0
H  H46  1  0.49196654  0.76107040  0.69457630  1  0  0.117261  0  0.939735  0  0  0.13064  0  0.991268  0  0  0.133774  0  0.990342  0  0  0.114997  0.128352  0  0.992173  0
H  H47  1  0.99196875  0.23894412  0.19457457  1  0  0.11719  0  0.939907  0  0  0.130654  0  0.991333  0  0  0.133787  0  0.990408  0  0  0.114997  0.128362  0  0.992241  0
C  C48  1  0.61056946  0.44660576  0.11934911  1  0  0.090627  0  3.731158  0  0  0.057872  0  3.996106  0  0  0.067909  0  4.004788  0  0  0.028788  0.050323  0  3.992205  0
C  C49  1  0.11057894  0.55338244  0.61935547  1  0  0.090437  0  3.731555  0  0  0.057733  0  3.996504  0  0  0.067766  0  4.005159  0  0  0.028768  0.050191  0  3.99259  0
C  C50  1  0.38943067  0.55338890  0.88065058  1  0  0.090631  0  3.731259  0  0  0.057884  0  3.996188  0  0  0.067901  0  4.004889  0  0  0.028783  0.050342  0  3.99228  0
C  C51  1  0.88942646  0.44662137  0.38064716  1  0  0.090721  0  3.731464  0  0  0.058103  0  3.996285  0  0  0.068082  0  4.005049  0  0  0.028838  0.050563  0  3.992376  0
C  C52  1  0.55694440  0.40806432  0.18531416  1  0  -0.13671  0  3.690821  0  0  -0.157984  0  3.939296  0  0  -0.165033  0  3.959469  0  0  -0.07886  -0.153472  0  3.926082  0
C  C53  1  0.05696150  0.59192558  0.68532228  1  0  -0.136416  0  3.690675  0  0  -0.15773  0  3.939217  0  0  -0.164777  0  3.959396  0  0  -0.078875  -0.153232  0  3.92603  0
C  C54  1  0.44305318  0.59193492  0.81468522  1  0  -0.136742  0  3.690878  0  0  -0.158093  0  3.93935  0  0  -0.165143  0  3.959527  0  0  -0.07888  -0.153577  0  3.926135  0
C  C55  1  0.94304527  0.40807480  0.31468167  1  0  -0.136469  0  3.690736  0  0  -0.157799  0  3.93928  0  0  -0.164838  0  3.959445  0  0  -0.078798  -0.153287  0  3.926078  0
C  C56  1  0.59351893  0.70566089  0.14481473  1  0  0.138374  0  3.662188  0  0  0.109271  0  3.908115  0  0  0.115949  0  3.924158  0  0  0.048936  0.10482  0  3.897953  0
C  C57  1  0.09353175  0.29433104  0.64481918  1  0  0.138459  0  3.662245  0  0  0.10936  0  3.908136  0  0  0.11602  0  3.924196  0  0  0.048996  0.104906  0  3.897983  0
C  C58  1  0.40647725  0.29433720  0.85518275  1  0  0.138249  0  3.662266  0  0  0.109157  0  3.908179  0  0  0.115828  0  3.924224  0  0  0.048901  0.104708  0  3.898022  0
C  C59  1  0.90646962  0.70566934  0.35518008  1  0  0.1385  0  3.662262  0  0  0.109396  0  3.908184  0  0  0.116067  0  3.924226  0  0  0.048996  0.104941  0  3.898029  0
C  C60  1  0.54007389  0.67489370  0.21188082  1  0  -0.143106  0  3.683956  0  0  -0.161436  0  3.927788  0  0  -0.16885  0  3.949734  0  0  -0.074291  -0.156735  0  3.913301  0
C  C61  1  0.04007490  0.32509195  0.71188346  1  0  -0.143126  0  3.683875  0  0  -0.161346  0  3.927674  0  0  -0.168798  0  3.949611  0  0  -0.074248  -0.156643  0  3.913184  0
C  C62  1  0.45992611  0.32510668  0.78811712  1  0  -0.143048  0  3.683861  0  0  -0.161397  0  3.92761  0  0  -0.168825  0  3.94955  0  0  -0.07426  -0.156691  0  3.913115  0
C  C63  1  0.95991751  0.67490614  0.28811413  1  0  -0.143099  0  3.683779  0  0  -0.161334  0  3.927578  0  0  -0.168762  0  3.949512  0  0  -0.074258  -0.156638  0  3.9131  0
C  C64  1  0.52023531  0.52291297  0.23422706  1  0  0.088608  0  3.752196  0  0  0.101397  0  3.980425  0  0  0.105181  0  4.003631  0  0  0.011307  0.098976  0  3.964572  0
C  C65  1  0.02023860  0.47706939  0.73423215  1  0  0.088489  0  3.752184  0  0  0.101209  0  3.980474  0  0  0.104979  0  4.003663  0  0  0.011337  0.098776  0  3.964643  0
C  C66  1  0.47976473  0.47708741  0.76577147  1  0  0.088456  0  3.752404  0  0  0.101409  0  3.980442  0  0  0.105184  0  4.003653  0  0  0.011286  0.098983  0  3.964599  0
C  C67  1  0.97976417  0.52292870  0.26576901  1  0  0.08854  0  3.75206  0  0  0.101266  0  3.980383  0  0  0.105045  0  4.003555  0  0  0.011322  0.098829  0  3.964551  0
C  C68  1  0.46129721  0.48568477  0.30430515  1  0  0.082087  0  3.76957  0  0  0.091863  0  4.004602  0  0  0.096757  0  4.025357  0  0  0.007231  0.088635  0  3.99063  0
C  C69  1  0.96129715  0.51429762  0.80430626  1  0  0.082088  0  3.769307  0  0  0.091896  0  4.004334  0  0  0.096826  0  4.025042  0  0  0.007218  0.088673  0  3.99037  0
C  C70  1  0.53870560  0.51431675  0.69569659  1  0  0.082259  0  3.769615  0  0  0.091926  0  4.004691  0  0  0.096843  0  4.025418  0  0  0.007266  0.0887  0  3.990725  0
C  C71  1  0.03870180  0.48569819  0.19569443  1  0  0.082067  0  3.769432  0  0  0.091818  0  4.004529  0  0  0.096737  0  4.025252  0  0  0.0072  0.088603  0  3.990549  0
C  C72  1  0.40284440  0.59952873  0.34668119  1  0  -0.154719  0  3.704243  0  0  -0.177904  0  3.964338  0  0  -0.183399  0  3.980693  0  0  -0.082852  -0.174772  0  3.953981  0
C  C73  1  0.90284628  0.40044778  0.84668695  1  0  -0.154492  0  3.704068  0  0  -0.177664  0  3.964107  0  0  -0.183158  0  3.980443  0  0  -0.082901  -0.174547  0  3.953774  0
C  C74  1  0.59715960  0.40047509  0.65331954  1  0  -0.154796  0  3.704303  0  0  -0.177934  0  3.964452  0  0  -0.183421  0  3.980788  0  0  -0.082871  -0.17481  0  3.954099  0
C  C75  1  0.09715004  0.59954574  0.15331227  1  0  -0.154511  0  3.704081  0  0  -0.177694  0  3.964175  0  0  -0.18318  0  3.98051  0  0  -0.082899  -0.174565  0  3.953823  0
C  C76  1  0.34160414  0.56081787  0.41045773  1  0  0.112035  0  3.702119  0  0  0.078878  0  3.95902  0  0  0.086731  0  3.972913  0  0  0.036505  0.073476  0  3.950862  0
C  C77  1  0.84158910  0.43916697  0.91045767  1  0  0.111983  0  3.701942  0  0  0.078817  0  3.958816  0  0  0.086671  0  3.972712  0  0  0.036526  0.073389  0  3.950643  0
C  C78  1  0.65839735  0.43918709  0.58954327  1  0  0.112019  0  3.702139  0  0  0.078897  0  3.958986  0  0  0.086745  0  3.972877  0  0  0.03649  0.073512  0  3.950828  0
C  C79  1  0.15840467  0.56082884  0.08954124  1  0  0.111862  0  3.702102  0  0  0.078714  0  3.958992  0  0  0.086565  0  3.97289  0  0  0.036471  0.073247  0  3.950901  0
C  C80  1  0.39251141  0.30359469  0.39483323  1  0  0.13547  0  3.666482  0  0  0.10593  0  3.911002  0  0  0.113411  0  3.927094  0  0  0.044086  0.100942  0  3.900898  0
C  C81  1  0.89251808  0.69638857  0.89483351  1  0  0.135609  0  3.666325  0  0  0.105955  0  3.910975  0  0  0.113436  0  3.92707  0  0  0.043974  0.100944  0  3.900849  0
C  C82  1  0.60748368  0.69640684  0.60516642  1  0  0.135573  0  3.666549  0  0  0.106012  0  3.911099  0  0  0.11349  0  3.92719  0  0  0.044102  0.101032  0  3.901008  0
C  C83  1  0.10748592  0.30360609  0.10516722  1  0  0.135571  0  3.666355  0  0  0.105999  0  3.910934  0  0  0.113481  0  3.927029  0  0  0.044031  0.100995  0  3.900814  0
C  C84  1  0.45864748  0.33464577  0.33180396  1  0  -0.145613  0  3.685513  0  0  -0.164706  0  3.93336  0  0  -0.172746  0  3.954691  0  0  -0.076695  -0.159652  0  3.919356  0
C  C85  1  0.95865595  0.66533500  0.83180713  1  0  -0.145727  0  3.685779  0  0  -0.164831  0  3.933597  0  0  -0.172885  0  3.954921  0  0  -0.076685  -0.159782  0  3.919601  0
C  C86  1  0.54134370  0.66535347  0.66819406  1  0  -0.14569  0  3.685496  0  0  -0.164709  0  3.93337  0  0  -0.172762  0  3.954701  0  0  -0.076652  -0.159667  0  3.919377  0
C  C87  1  0.04134164  0.33466195  0.16819225  1  0  -0.145702  0  3.685737  0  0  -0.164788  0  3.933559  0  0  -0.172841  0  3.954891  0  0  -0.076714  -0.159746  0  3.919563  0
N  N88  1  0.63079482  0.59370646  0.09898104  1  0  -0.310718  0  3.44273  0  0  -0.229507  0  3.746322  0  0  -0.23991  0  3.751649  0  0  -0.38072  -0.223799  0  3.743076  0
N  N89  1  0.13079708  0.40628738  0.59898438  1  0  -0.310687  0  3.442966  0  0  -0.229528  0  3.746584  0  0  -0.239897  0  3.751879  0  0  -0.380749  -0.223817  0  3.743341  0
N  N90  1  0.36920532  0.40629049  0.90101865  1  0  -0.310597  0  3.442823  0  0  -0.229416  0  3.74642  0  0  -0.239798  0  3.751725  0  0  -0.380714  -0.223723  0  3.743189  0
N  N91  1  0.86920187  0.59371758  0.40101631  1  0  -0.310875  0  3.443155  0  0  -0.229762  0  3.746836  0  0  -0.240129  0  3.752124  0  0  -0.38081  -0.224058  0  3.743595  0
N  N92  1  0.33228379  0.41424125  0.43378492  1  0  -0.309726  0  3.445838  0  0  -0.224621  0  3.739553  0  0  -0.236756  0  3.748207  0  0  -0.380867  -0.21785  0  3.734043  0
N  N93  1  0.83228328  0.58574399  0.93378474  1  0  -0.309838  0  3.44567  0  0  -0.224712  0  3.73945  0  0  -0.236855  0  3.748118  0  0  -0.380785  -0.217857  0  3.733841  0
N  N94  1  0.66771521  0.58576256  0.56621635  1  0  -0.309732  0  3.445864  0  0  -0.224663  0  3.739633  0  0  -0.236787  0  3.748274  0  0  -0.380878  -0.217925  0  3.73415  0
N  N95  1  0.16771295  0.41425182  0.06621332  1  0  -0.309712  0  3.445725  0  0  -0.22459  0  3.739449  0  0  -0.236732  0  3.748109  0  0  -0.380786  -0.21776  0  3.733873  0
O  O96  1  0.81953483  0.10553996  0.96407802  1  0  -0.897804  0  1.904442  0  0  -0.818252  0  2.144865  0  0  -0.845263  0  2.123578  0  0  -0.386899  -0.798845  0  2.158886  0
O  O97  1  0.31952530  0.89445151  0.46408596  1  0  -0.897743  0  1.904352  0  0  -0.818224  0  2.14479  0  0  -0.845235  0  2.123507  0  0  -0.38702  -0.798817  0  2.158806  0
O  O98  1  0.18046964  0.89445584  0.03591242  1  0  -0.897783  0  1.904323  0  0  -0.81827  0  2.14476  0  0  -0.845279  0  2.123472  0  0  -0.387018  -0.798855  0  2.158773  0
O  O99  1  0.68047413  0.10555230  0.53592112  1  0  -0.897735  0  1.904616  0  0  -0.818185  0  2.145073  0  0  -0.845194  0  2.123781  0  0  -0.386896  -0.798777  0  2.159095  0
O  O100  1  0.67614550  0.10067879  0.07763667  1  0  -0.791674  0  1.956576  0  0  -0.717864  0  2.1801  0  0  -0.740704  0  2.153848  0  0  -0.401449  -0.701495  0  2.197748  0
O  O101  1  0.17614049  0.89931662  0.57764589  1  0  -0.791427  0  1.956361  0  0  -0.71775  0  2.179985  0  0  -0.740592  0  2.15374  0  0  -0.401359  -0.701382  0  2.197632  0
O  O102  1  0.32385783  0.89931930  0.92235536  1  0  -0.791595  0  1.956428  0  0  -0.717873  0  2.180005  0  0  -0.740712  0  2.153754  0  0  -0.401395  -0.701503  0  2.19765  0
O  O103  1  0.82386149  0.10068948  0.42236149  1  0  -0.791407  0  1.956532  0  0  -0.717699  0  2.180031  0  0  -0.740536  0  2.153777  0  0  -0.401333  -0.701323  0  2.197673  0
O  O104  1  0.64519935  0.87334239  0.98383483  1  0  -0.909525  0  2.02457  0  0  -0.813339  0  2.297122  0  0  -0.838249  0  2.269918  0  0  -0.395762  -0.796055  0  2.315131  0
O  O105  1  0.14520551  0.12664923  0.48384182  1  0  -0.909556  0  2.024581  0  0  -0.813394  0  2.297133  0  0  -0.838296  0  2.269915  0  0  -0.395809  -0.796104  0  2.315146  0
O  O106  1  0.35480803  0.12665342  0.01616056  1  0  -0.909517  0  2.024535  0  0  -0.813358  0  2.297086  0  0  -0.838265  0  2.269874  0  0  -0.39577  -0.79608  0  2.315102  0
O  O107  1  0.85479520  0.87335344  0.51616541  1  0  -0.909462  0  2.02468  0  0  -0.813275  0  2.297236  0  0  -0.83819  0  2.270039  0  0  -0.395716  -0.795983  0  2.315238  0
O  O108  1  0.92743420  0.93753643  0.08883431  1  0  -0.810583  0  1.94691  0  0  -0.742977  0  2.178012  0  0  -0.763887  0  2.149205  0  0  -0.405581  -0.728144  0  2.197673  0
O  O109  1  0.42744177  0.06246133  0.58884576  1  0  -0.810536  0  1.946921  0  0  -0.742872  0  2.177991  0  0  -0.763782  0  2.149182  0  0  -0.405529  -0.728034  0  2.197654  0
O  O110  1  0.07256895  0.06246281  0.91115539  1  0  -0.810582  0  1.946808  0  0  -0.743001  0  2.177894  0  0  -0.763911  0  2.149094  0  0  -0.405642  -0.728168  0  2.197556  0
O  O111  1  0.57256158  0.93754477  0.41116294  1  0  -0.810575  0  1.947023  0  0  -0.742946  0  2.178085  0  0  -0.76386  0  2.149284  0  0  -0.40556  -0.728109  0  2.197744  0
