# generated using pymatgen
data_ErH9C12N3(ClO3)3
_symmetry_space_group_name_H-M   'P 1'
_cell_length_a   12.53775446
_cell_length_b   13.53616342
_cell_length_c   15.31621445
_cell_angle_alpha   114.26027811
_cell_angle_beta   90.00038869
_cell_angle_gamma   90.00003326
_symmetry_Int_Tables_number   1
_chemical_formula_structural   ErH9C12N3(ClO3)3
_chemical_formula_sum   'Er4 H36 C48 N12 Cl12 O36'
_cell_volume   2369.80817630
_cell_formula_units_Z   4
loop_
 _symmetry_equiv_pos_site_id
 _symmetry_equiv_pos_as_xyz
  1  'x, y, z'
loop_
 _atom_site_type_symbol
 _atom_site_label
 _atom_site_symmetry_multiplicity
 _atom_site_fract_x
 _atom_site_fract_y
 _atom_site_fract_z
 _atom_site_occupancy
 _atom_site_hle17_bader_spin_density
 _atom_site_hle17_ddec_charge
 _atom_site_hle17_ddec_spin_density
 _atom_site_hle17_ddec_sum_bond_order
 _atom_site_hle17_magmom
 _atom_site_hse06_10hf_bader_spin_density
 _atom_site_hse06_10hf_ddec_charge
 _atom_site_hse06_10hf_ddec_spin_density
 _atom_site_hse06_10hf_ddec_sum_bond_order
 _atom_site_hse06_10hf_magmom
 _atom_site_hse06_bader_spin_density
 _atom_site_hse06_ddec_charge
 _atom_site_hse06_ddec_spin_density
 _atom_site_hse06_ddec_sum_bond_order
 _atom_site_hse06_magmom
 _atom_site_pbe_bader_spin_density
 _atom_site_pbe_cm5_charge
 _atom_site_pbe_ddec_charge
 _atom_site_pbe_ddec_spin_density
 _atom_site_pbe_ddec_sum_bond_order
 _atom_site_pbe_magmom
Er  Er0  1  0.44424593  0.16036000  0.30561606  1  0  2.189719  0  1.637272  0  0  2.014204  0  2.145525  0  0  2.171558  0  1.905461  0  0  1.472369  1.975628  0  2.175393  0
Er  Er1  1  0.94424303  0.33964532  0.69438353  1  0  2.189673  0  1.637295  0  0  2.014174  0  2.145557  0  0  2.171527  0  1.905475  0  0  1.472324  1.975601  0  2.175423  0
Er  Er2  1  0.55575177  0.83963962  0.69438320  1  0  2.189734  0  1.637165  0  0  2.014198  0  2.145453  0  0  2.171564  0  1.905363  0  0  1.472354  1.975624  0  2.175314  0
Er  Er3  1  0.05575866  0.66035350  0.30561478  1  0  2.189758  0  1.637255  0  0  2.014287  0  2.14545  0  0  2.171607  0  1.905445  0  0  1.472393  1.975711  0  2.175314  0
H  H4  1  0.25183858  0.95564491  0.31891971  1  0  0.031781  0  0.911202  0  0  0.043076  0  0.975524  0  0  0.043815  0  0.971684  0  0  0.122587  0.042527  0  0.977915  0
H  H5  1  0.75184256  0.54435625  0.68108169  1  0  0.031738  0  0.911286  0  0  0.04302  0  0.975616  0  0  0.043755  0  0.971783  0  0  0.122594  0.042474  0  0.978005  0
H  H6  1  0.74815992  0.04435305  0.68108220  1  0  0.03177  0  0.911214  0  0  0.043071  0  0.975526  0  0  0.043808  0  0.971689  0  0  0.122587  0.042522  0  0.977917  0
H  H7  1  0.24815674  0.45564582  0.31891717  1  0  0.031762  0  0.911321  0  0  0.043046  0  0.975641  0  0  0.043783  0  0.971805  0  0  0.122618  0.042499  0  0.97803  0
H  H8  1  0.24835379  0.83666872  0.10729842  1  0  0.331919  0  0.872748  0  0  0.320016  0  0.925586  0  0  0.326817  0  0.920461  0  0  0.313583  0.315214  0  0.929136  0
H  H9  1  0.74835560  0.66332755  0.89270244  1  0  0.331938  0  0.872652  0  0  0.32004  0  0.925491  0  0  0.32684  0  0.920367  0  0  0.31357  0.315237  0  0.929041  0
H  H10  1  0.75164631  0.16332927  0.89270153  1  0  0.331927  0  0.872744  0  0  0.32003  0  0.925578  0  0  0.326827  0  0.920459  0  0  0.313586  0.315226  0  0.929127  0
H  H11  1  0.25164529  0.33667125  0.10729716  1  0  0.331951  0  0.87264  0  0  0.32005  0  0.925482  0  0  0.326848  0  0.920361  0  0  0.313577  0.315248  0  0.929031  0
H  H12  1  0.18459311  0.80250896  0.19188762  1  0  0.361015  0  0.88478  0  0  0.33413  0  0.962496  0  0  0.342985  0  0.95424  0  0  0.311675  0.327875  0  0.968344  0
H  H13  1  0.68459504  0.69748712  0.80810826  1  0  0.361049  0  0.884628  0  0  0.334131  0  0.962401  0  0  0.342987  0  0.954143  0  0  0.311637  0.327876  0  0.968249  0
H  H14  1  0.81540619  0.19749146  0.80811324  1  0  0.361037  0  0.884734  0  0  0.334131  0  0.962457  0  0  0.342984  0  0.954208  0  0  0.311668  0.327874  0  0.968308  0
H  H15  1  0.31540585  0.30251168  0.19189200  1  0  0.361049  0  0.884659  0  0  0.334135  0  0.962415  0  0  0.342987  0  0.954164  0  0  0.311659  0.327878  0  0.968267  0
H  H16  1  0.12301807  0.29406557  0.36999934  1  0  0.013581  0  0.901111  0  0  0.024105  0  0.967248  0  0  0.024918  0  0.962861  0  0  0.115114  0.023562  0  0.969841  0
H  H17  1  0.62302412  0.20593445  0.63000041  1  0  0.013493  0  0.901125  0  0  0.024046  0  0.967235  0  0  0.024859  0  0.962845  0  0  0.115084  0.023503  0  0.969829  0
H  H18  1  0.87698044  0.70593488  0.62999892  1  0  0.013569  0  0.901129  0  0  0.024126  0  0.967233  0  0  0.024938  0  0.962847  0  0  0.115112  0.023583  0  0.969827  0
H  H19  1  0.37697837  0.79406596  0.37000174  1  0  0.013504  0  0.901144  0  0  0.024064  0  0.967246  0  0  0.024891  0  0.962846  0  0  0.11509  0.023521  0  0.96984  0
H  H20  1  0.25028688  0.19428241  0.47583418  1  0  0.347071  0  0.902354  0  0  0.32594  0  0.969525  0  0  0.334915  0  0.961773  0  0  0.305174  0.319574  0  0.975187  0
H  H21  1  0.75029212  0.30571809  0.52416580  1  0  0.347188  0  0.902229  0  0  0.325975  0  0.969513  0  0  0.334949  0  0.961761  0  0  0.305207  0.31961  0  0.975171  0
H  H22  1  0.74970844  0.80572048  0.52416432  1  0  0.347202  0  0.902222  0  0  0.32596  0  0.969531  0  0  0.334935  0  0.96178  0  0  0.305202  0.319594  0  0.975193  0
H  H23  1  0.24970878  0.69428070  0.47583510  1  0  0.347196  0  0.902224  0  0  0.325977  0  0.969513  0  0  0.334952  0  0.96176  0  0  0.305213  0.319611  0  0.975173  0
H  H24  1  0.11889902  0.24746305  0.49852692  1  0  0.33989  0  0.911774  0  0  0.319726  0  0.977056  0  0  0.327188  0  0.972138  0  0  0.304295  0.314583  0  0.980379  0
H  H25  1  0.61890165  0.25253449  0.50147515  1  0  0.339849  0  0.911928  0  0  0.319766  0  0.977086  0  0  0.327225  0  0.972177  0  0  0.304317  0.314618  0  0.980416  0
H  H26  1  0.88110028  0.75253739  0.50147199  1  0  0.339926  0  0.911705  0  0  0.319778  0  0.976994  0  0  0.327239  0  0.97208  0  0  0.304318  0.314633  0  0.980321  0
H  H27  1  0.38109765  0.74746511  0.49852605  1  0  0.339845  0  0.911887  0  0  0.319753  0  0.977059  0  0  0.327211  0  0.972149  0  0  0.304316  0.314607  0  0.980386  0
H  H28  1  0.71113811  0.08546138  0.28461862  1  0  0.03891  0  0.923425  0  0  0.043279  0  0.996544  0  0  0.046076  0  0.9892  0  0  0.125979  0.04112  0  1.001782  0
H  H29  1  0.21113898  0.41454058  0.71538300  1  0  0.038884  0  0.92344  0  0  0.043254  0  0.996553  0  0  0.046048  0  0.989214  0  0  0.125973  0.041093  0  1.001795  0
H  H30  1  0.28886517  0.91453819  0.71538519  1  0  0.0389  0  0.923409  0  0  0.043282  0  0.996503  0  0  0.046077  0  0.989163  0  0  0.125985  0.041116  0  1.001758  0
H  H31  1  0.78886272  0.58545985  0.28461656  1  0  0.038887  0  0.92345  0  0  0.043255  0  0.996564  0  0  0.046049  0  0.989226  0  0  0.12597  0.041089  0  1.001819  0
H  H32  1  0.80983681  0.27794918  0.26968033  1  0  0.343279  0  0.863839  0  0  0.329924  0  0.917605  0  0  0.337084  0  0.911918  0  0  0.3172  0.324844  0  0.921602  0
H  H33  1  0.30983528  0.22205481  0.73031933  1  0  0.343227  0  0.863878  0  0  0.32986  0  0.91766  0  0  0.337023  0  0.911972  0  0  0.317158  0.32478  0  0.921658  0
H  H34  1  0.19016329  0.72204963  0.73031863  1  0  0.343199  0  0.86386  0  0  0.329841  0  0.917639  0  0  0.337003  0  0.911951  0  0  0.31717  0.324762  0  0.921634  0
H  H35  1  0.69016322  0.77794723  0.26968213  1  0  0.343231  0  0.863892  0  0  0.329869  0  0.917671  0  0  0.337029  0  0.911985  0  0  0.317169  0.324789  0  0.921667  0
H  H36  1  0.87096573  0.16001465  0.26725420  1  0  0.323514  0  0.914679  0  0  0.306272  0  0.98081  0  0  0.312753  0  0.976308  0  0  0.301262  0.301707  0  0.983906  0
H  H37  1  0.37096669  0.33998630  0.73274728  1  0  0.323541  0  0.914597  0  0  0.306272  0  0.980775  0  0  0.312754  0  0.976271  0  0  0.301268  0.301706  0  0.983867  0
H  H38  1  0.12903437  0.83998577  0.73274666  1  0  0.323504  0  0.914692  0  0  0.306258  0  0.980826  0  0  0.312738  0  0.976327  0  0  0.301255  0.301694  0  0.983921  0
H  H39  1  0.62903500  0.66001573  0.26725483  1  0  0.323496  0  0.914704  0  0  0.306252  0  0.980831  0  0  0.312731  0  0.976333  0  0  0.301273  0.301688  0  0.983925  0
C  C40  1  0.27309088  0.94340417  0.24530660  1  0  0.581937  0  3.812711  0  0  0.512825  0  4.110658  0  0  0.543204  0  4.110522  0  0  0.187214  0.492941  0  4.111604  0
C  C41  1  0.77309388  0.55659143  0.75468959  1  0  0.582156  0  3.812287  0  0  0.513043  0  4.11023  0  0  0.543426  0  4.110083  0  0  0.187314  0.49316  0  4.111174  0
C  C42  1  0.72690762  0.05659462  0.75469366  1  0  0.582049  0  3.812534  0  0  0.512934  0  4.110477  0  0  0.543319  0  4.110325  0  0  0.187287  0.493052  0  4.111421  0
C  C43  1  0.22690622  0.44340739  0.24530872  1  0  0.582101  0  3.812384  0  0  0.512982  0  4.110338  0  0  0.543368  0  4.110188  0  0  0.187276  0.493102  0  4.111279  0
C  C44  1  0.19517219  0.25709268  0.38533107  1  0  0.573537  0  3.844882  0  0  0.502336  0  4.150815  0  0  0.532756  0  4.151053  0  0  0.184067  0.482321  0  4.152101  0
C  C45  1  0.69517574  0.24290843  0.61466884  1  0  0.573679  0  3.844767  0  0  0.502467  0  4.150697  0  0  0.532894  0  4.150929  0  0  0.184125  0.482451  0  4.15198  0
C  C46  1  0.80482711  0.74290940  0.61466714  1  0  0.573329  0  3.845154  0  0  0.502108  0  4.151079  0  0  0.532532  0  4.151314  0  0  0.183968  0.482093  0  4.15236  0
C  C47  1  0.30482675  0.75709036  0.38533207  1  0  0.573666  0  3.844724  0  0  0.502439  0  4.150653  0  0  0.53285  0  4.150891  0  0  0.184083  0.482418  0  4.151941  0
C  C48  1  0.70957166  0.16610991  0.28316342  1  0  0.582434  0  3.789727  0  0  0.512396  0  4.090835  0  0  0.543085  0  4.089101  0  0  0.188504  0.492033  0  4.09365  0
C  C49  1  0.20956930  0.33389129  0.71683334  1  0  0.582497  0  3.789668  0  0  0.512467  0  4.090739  0  0  0.543155  0  4.089006  0  0  0.188574  0.492101  0  4.093557  0
C  C50  1  0.29043003  0.83389049  0.71683939  1  0  0.582488  0  3.789508  0  0  0.512449  0  4.090609  0  0  0.543134  0  4.088873  0  0  0.188501  0.492083  0  4.093423  0
C  C51  1  0.79042920  0.66611075  0.28316812  1  0  0.582468  0  3.789683  0  0  0.512446  0  4.090757  0  0  0.543129  0  4.089025  0  0  0.188527  0.492076  0  4.093572  0
C  C52  1  0.61070888  0.98119453  0.46617409  1  0  -0.170202  0  3.829284  0  0  -0.172884  0  4.127657  0  0  -0.189184  0  4.149819  0  0  -0.048045  -0.161851  0  4.111085  0
C  C53  1  0.11071358  0.51880368  0.53382412  1  0  -0.170169  0  3.829379  0  0  -0.172856  0  4.127775  0  0  -0.18916  0  4.149942  0  0  -0.048065  -0.161826  0  4.111205  0
C  C54  1  0.38929042  0.01880344  0.53382716  1  0  -0.170247  0  3.829278  0  0  -0.172989  0  4.127717  0  0  -0.189286  0  4.14988  0  0  -0.048086  -0.161953  0  4.111146  0
C  C55  1  0.88928732  0.48118948  0.46617079  1  0  -0.170212  0  3.829384  0  0  -0.172909  0  4.127818  0  0  -0.189212  0  4.149982  0  0  -0.048019  -0.16188  0  4.11125  0
C  C56  1  0.53900260  0.03358262  0.42865708  1  0  0.30064  0  3.856125  0  0  0.278174  0  4.128871  0  0  0.300049  0  4.138802  0  0  0.114715  0.2636  0  4.124834  0
C  C57  1  0.03900311  0.46641709  0.57134079  1  0  0.300763  0  3.85599  0  0  0.2783  0  4.128759  0  0  0.300176  0  4.138677  0  0  0.114803  0.263724  0  4.124724  0
C  C58  1  0.46099670  0.96641377  0.57134032  1  0  0.300899  0  3.856161  0  0  0.278466  0  4.128857  0  0  0.300347  0  4.138771  0  0  0.114851  0.263893  0  4.124817  0
C  C59  1  0.96099699  0.53357931  0.42865532  1  0  0.300744  0  3.856009  0  0  0.278252  0  4.128798  0  0  0.300135  0  4.138715  0  0  0.11478  0.263678  0  4.124761  0
C  C60  1  0.42362006  0.05425001  0.46444635  1  0  0.293899  0  3.861245  0  0  0.267241  0  4.140152  0  0  0.288709  0  4.149665  0  0  0.112308  0.252977  0  4.136029  0
C  C61  1  0.92362069  0.44575196  0.53555449  1  0  0.293908  0  3.861332  0  0  0.267222  0  4.140283  0  0  0.288701  0  4.149786  0  0  0.112309  0.252966  0  4.136152  0
C  C62  1  0.57637924  0.94575202  0.53555576  1  0  0.293772  0  3.861444  0  0  0.267101  0  4.140314  0  0  0.288577  0  4.149817  0  0  0.112282  0.252844  0  4.13618  0
C  C63  1  0.07638100  0.55424282  0.46444101  1  0  0.293715  0  3.861456  0  0  0.267033  0  4.140387  0  0  0.288507  0  4.149895  0  0  0.11226  0.252775  0  4.136256  0
C  C64  1  0.42982428  0.07817366  0.98508711  1  0  -0.145487  0  3.787771  0  0  -0.149483  0  4.081548  0  0  -0.165986  0  4.103634  0  0  -0.043305  -0.13825  0  4.065108  0
C  C65  1  0.92982220  0.42183161  0.01491238  1  0  -0.145501  0  3.787874  0  0  -0.149521  0  4.081714  0  0  -0.166011  0  4.103793  0  0  -0.043334  -0.13829  0  4.065276  0
C  C66  1  0.57017741  0.92183082  0.01491460  1  0  -0.145423  0  3.787746  0  0  -0.149429  0  4.081545  0  0  -0.165928  0  4.103626  0  0  -0.043288  -0.13819  0  4.065101  0
C  C67  1  0.07017790  0.57817207  0.98508773  1  0  -0.145584  0  3.788067  0  0  -0.149628  0  4.081891  0  0  -0.166113  0  4.103969  0  0  -0.043385  -0.138396  0  4.065452  0
C  C68  1  0.44940300  0.08978920  0.07865784  1  0  0.301431  0  3.84434  0  0  0.276964  0  4.11937  0  0  0.298282  0  4.130948  0  0  0.114375  0.262742  0  4.114472  0
C  C69  1  0.94940201  0.41021447  0.92134508  1  0  0.301715  0  3.844328  0  0  0.277221  0  4.11933  0  0  0.298539  0  4.130909  0  0  0.114501  0.263001  0  4.114428  0
C  C70  1  0.55059949  0.91021366  0.92134262  1  0  0.301495  0  3.84433  0  0  0.277063  0  4.119285  0  0  0.29838  0  4.130861  0  0  0.114461  0.262836  0  4.114388  0
C  C71  1  0.05059809  0.58979082  0.07865628  1  0  0.301683  0  3.844584  0  0  0.277246  0  4.119549  0  0  0.298562  0  4.131127  0  0  0.114496  0.263026  0  4.114648  0
C  C72  1  0.52268250  0.00696352  0.09363606  1  0  0.311666  0  3.826398  0  0  0.288359  0  4.099544  0  0  0.310953  0  4.10895  0  0  0.120211  0.273332  0  4.09565  0
C  C73  1  0.02267861  0.49304011  0.90636970  1  0  0.311473  0  3.826698  0  0  0.28825  0  4.099712  0  0  0.310823  0  4.109146  0  0  0.12013  0.273219  0  4.095819  0
C  C74  1  0.47732079  0.99303934  0.90636439  1  0  0.311618  0  3.826434  0  0  0.288339  0  4.099521  0  0  0.310932  0  4.108936  0  0  0.120221  0.273311  0  4.095624  0
C  C75  1  0.97731989  0.50696518  0.09363231  1  0  0.311531  0  3.82673  0  0  0.288274  0  4.099804  0  0  0.310851  0  4.109228  0  0  0.120132  0.273244  0  4.095912  0
C  C76  1  0.49448039  0.53020379  0.41876184  1  0  -0.152649  0  3.78274  0  0  -0.156429  0  4.080609  0  0  -0.17241  0  4.102296  0  0  -0.044777  -0.145534  0  4.064017  0
C  C77  1  0.99447744  0.96979670  0.58123738  1  0  -0.152686  0  3.782791  0  0  -0.156485  0  4.080681  0  0  -0.172477  0  4.102375  0  0  -0.044781  -0.145598  0  4.064092  0
C  C78  1  0.50551970  0.46979906  0.58123992  1  0  -0.152626  0  3.782748  0  0  -0.156432  0  4.080584  0  0  -0.172425  0  4.102286  0  0  -0.044755  -0.145543  0  4.063998  0
C  C79  1  0.00551947  0.03020131  0.41876127  1  0  -0.152572  0  3.782699  0  0  -0.156395  0  4.080606  0  0  -0.172409  0  4.102338  0  0  -0.044742  -0.145506  0  4.06402  0
C  C80  1  0.47670200  0.42150566  0.40473150  1  0  0.309283  0  3.837358  0  0  0.284823  0  4.114601  0  0  0.307443  0  4.122575  0  0  0.119244  0.269928  0  4.11103  0
C  C81  1  0.97670369  0.07849731  0.59527196  1  0  0.309398  0  3.837262  0  0  0.284907  0  4.114619  0  0  0.307534  0  4.122579  0  0  0.119287  0.270011  0  4.111049  0
C  C82  1  0.52329810  0.57849557  0.59526966  1  0  0.309254  0  3.837502  0  0  0.284792  0  4.114799  0  0  0.307414  0  4.122776  0  0  0.119212  0.269896  0  4.111227  0
C  C83  1  0.02330039  0.92150148  0.40472895  1  0  0.309208  0  3.837503  0  0  0.284765  0  4.114752  0  0  0.307394  0  4.122729  0  0  0.119217  0.26987  0  4.11118  0
C  C84  1  0.48721299  0.38949989  0.48948472  1  0  0.286278  0  3.861242  0  0  0.259742  0  4.141232  0  0  0.280365  0  4.153194  0  0  0.10628  0.246284  0  4.135192  0
C  C85  1  0.98721082  0.11049909  0.51051536  1  0  0.286243  0  3.861146  0  0  0.259642  0  4.141277  0  0  0.280268  0  4.153247  0  0  0.106219  0.246183  0  4.135235  0
C  C86  1  0.51279109  0.61050054  0.51051549  1  0  0.286299  0  3.861242  0  0  0.25967  0  4.141372  0  0  0.280287  0  4.15334  0  0  0.106268  0.24621  0  4.135328  0
C  C87  1  0.01278848  0.88949891  0.48948395  1  0  0.286405  0  3.86114  0  0  0.259844  0  4.141138  0  0  0.280466  0  4.153095  0  0  0.106301  0.246387  0  4.135094  0
N  N88  1  0.23351730  0.85412579  0.17723784  1  0  -0.629069  0  3.147224  0  0  -0.589606  0  3.385502  0  0  -0.611051  0  3.37798  0  0  -0.55057  -0.574484  0  3.389187  0
N  N89  1  0.73352171  0.64586722  0.82275782  1  0  -0.629134  0  3.146828  0  0  -0.589633  0  3.385127  0  0  -0.611079  0  3.377597  0  0  -0.550514  -0.574517  0  3.388811  0
N  N90  1  0.76648280  0.14587219  0.82276211  1  0  -0.629116  0  3.147142  0  0  -0.589623  0  3.385464  0  0  -0.611071  0  3.377943  0  0  -0.550567  -0.574501  0  3.389152  0
N  N91  1  0.26647998  0.35413239  0.17724209  1  0  -0.62912  0  3.146991  0  0  -0.589623  0  3.385307  0  0  -0.611072  0  3.377787  0  0  -0.550519  -0.574506  0  3.388991  0
N  N92  1  0.19013651  0.23851090  0.46365634  1  0  -0.635735  0  3.135149  0  0  -0.596689  0  3.379291  0  0  -0.62012  0  3.375018  0  0  -0.563671  -0.580584  0  3.381364  0
N  N93  1  0.69013944  0.26149018  0.53634418  1  0  -0.635818  0  3.135174  0  0  -0.596771  0  3.379342  0  0  -0.620204  0  3.375071  0  0  -0.563702  -0.580663  0  3.381418  0
N  N94  1  0.80986039  0.76149038  0.53634092  1  0  -0.635767  0  3.134995  0  0  -0.596673  0  3.379217  0  0  -0.620103  0  3.374949  0  0  -0.563648  -0.580566  0  3.381289  0
N  N95  1  0.30986146  0.73851023  0.46365732  1  0  -0.635824  0  3.135149  0  0  -0.596767  0  3.379305  0  0  -0.620192  0  3.375041  0  0  -0.563706  -0.580656  0  3.381382  0
N  N96  1  0.80382055  0.20229685  0.26798219  1  0  -0.641138  0  3.139602  0  0  -0.597978  0  3.362764  0  0  -0.61988  0  3.357892  0  0  -0.55962  -0.58259  0  3.365141  0
N  N97  1  0.30381908  0.29770551  0.73201617  1  0  -0.641128  0  3.139532  0  0  -0.597951  0  3.362686  0  0  -0.619853  0  3.357809  0  0  -0.55964  -0.582561  0  3.365061  0
N  N98  1  0.19617955  0.79770277  0.73201707  1  0  -0.641065  0  3.139505  0  0  -0.597906  0  3.36266  0  0  -0.619808  0  3.357793  0  0  -0.559602  -0.582521  0  3.365033  0
N  N99  1  0.69618102  0.70229654  0.26798464  1  0  -0.641066  0  3.139663  0  0  -0.59791  0  3.36281  0  0  -0.619812  0  3.357946  0  0  -0.559624  -0.582523  0  3.365183  0
Cl  Cl100  1  0.74177525  0.96279190  0.42802765  1  0  -0.029869  0  1.434148  0  0  -0.018187  0  1.680812  0  0  -0.017912  0  1.676145  0  0  0.012779  -0.018017  0  1.683288  0
Cl  Cl101  1  0.24177549  0.53720683  0.57196952  1  0  -0.029832  0  1.434267  0  0  -0.018142  0  1.680941  0  0  -0.01787  0  1.676275  0  0  0.012806  -0.017973  0  1.683417  0
Cl  Cl102  1  0.25822565  0.03720932  0.57197415  1  0  -0.029879  0  1.434185  0  0  -0.01817  0  1.680865  0  0  -0.017897  0  1.676197  0  0  0.01279  -0.017999  0  1.683342  0
Cl  Cl103  1  0.75822461  0.46279118  0.42802849  1  0  -0.029839  0  1.434256  0  0  -0.01815  0  1.680941  0  0  -0.017873  0  1.676272  0  0  0.012778  -0.017981  0  1.683416  0
Cl  Cl104  1  0.34746337  0.16729393  0.96191501  1  0  -0.073999  0  1.320329  0  0  -0.063575  0  1.518841  0  0  -0.062084  0  1.513828  0  0  -0.031549  -0.064245  0  1.522034  0
Cl  Cl105  1  0.84746462  0.33271101  0.03808520  1  0  -0.074021  0  1.320325  0  0  -0.063581  0  1.51886  0  0  -0.062095  0  1.513847  0  0  -0.031537  -0.06425  0  1.522053  0
Cl  Cl106  1  0.65253673  0.83270973  0.03808640  1  0  -0.074028  0  1.320346  0  0  -0.063593  0  1.518866  0  0  -0.062108  0  1.513856  0  0  -0.031547  -0.064264  0  1.522058  0
Cl  Cl107  1  0.15253628  0.66728942  0.96191501  1  0  -0.073993  0  1.320422  0  0  -0.063557  0  1.518959  0  0  -0.062074  0  1.513945  0  0  -0.031535  -0.064225  0  1.522151  0
Cl  Cl108  1  0.48778342  0.56029406  0.31918088  1  0  -0.057631  0  1.383893  0  0  -0.039537  0  1.609956  0  0  -0.038784  0  1.603375  0  0  0.001735  -0.039758  0  1.614095  0
Cl  Cl109  1  0.98778126  0.93970559  0.68081800  1  0  -0.057671  0  1.383907  0  0  -0.039569  0  1.609977  0  0  -0.038817  0  1.603401  0  0  0.001707  -0.039789  0  1.614119  0
Cl  Cl110  1  0.51221748  0.43970797  0.68082123  1  0  -0.057648  0  1.383891  0  0  -0.039542  0  1.609959  0  0  -0.038787  0  1.603388  0  0  0.001721  -0.039764  0  1.614101  0
Cl  Cl111  1  0.01221883  0.06029321  0.31918160  1  0  -0.057687  0  1.383911  0  0  -0.039579  0  1.61  0  0  -0.038821  0  1.603437  0  0  0.001704  -0.039801  0  1.614142  0
O  O112  1  0.33086323  0.00956168  0.22910061  1  0  -0.64764  0  2.081  0  0  -0.588591  0  2.331115  0  0  -0.627996  0  2.319389  0  0  -0.370726  -0.570603  0  2.33471  0
O  O113  1  0.83086743  0.49043663  0.77090489  1  0  -0.647786  0  2.080789  0  0  -0.588725  0  2.330907  0  0  -0.62813  0  2.319171  0  0  -0.370799  -0.570735  0  2.334501  0
O  O114  1  0.66913767  0.99043548  0.77090035  1  0  -0.647741  0  2.080867  0  0  -0.588683  0  2.330991  0  0  -0.628088  0  2.319249  0  0  -0.370792  -0.570695  0  2.334583  0
O  O115  1  0.16913347  0.50956461  0.22909562  1  0  -0.647788  0  2.0807  0  0  -0.588737  0  2.330835  0  0  -0.62814  0  2.3191  0  0  -0.370823  -0.570747  0  2.33443  0
O  O116  1  0.27380246  0.23745568  0.33019337  1  0  -0.644372  0  2.091918  0  0  -0.586479  0  2.351453  0  0  -0.62488  0  2.339291  0  0  -0.374048  -0.569709  0  2.355707  0
O  O117  1  0.77380728  0.26254488  0.66980938  1  0  -0.644423  0  2.091854  0  0  -0.586548  0  2.351445  0  0  -0.624959  0  2.339282  0  0  -0.374107  -0.56978  0  2.355696  0
O  O118  1  0.72619684  0.76254235  0.66980334  1  0  -0.644267  0  2.091989  0  0  -0.586385  0  2.351605  0  0  -0.624795  0  2.339443  0  0  -0.374032  -0.569615  0  2.355851  0
O  O119  1  0.22619361  0.73745310  0.33019123  1  0  -0.644415  0  2.091779  0  0  -0.58654  0  2.351381  0  0  -0.624944  0  2.339226  0  0  -0.374062  -0.569769  0  2.355633  0
O  O120  1  0.62496966  0.21891954  0.29514649  1  0  -0.619225  0  2.055532  0  0  -0.563466  0  2.301659  0  0  -0.601417  0  2.292469  0  0  -0.352068  -0.545827  0  2.304746  0
O  O121  1  0.12496557  0.28108052  0.70485003  1  0  -0.619249  0  2.055419  0  0  -0.563495  0  2.301525  0  0  -0.601442  0  2.292329  0  0  -0.352094  -0.54585  0  2.304608  0
O  O122  1  0.37503283  0.78108327  0.70485852  1  0  -0.619233  0  2.05541  0  0  -0.563483  0  2.301554  0  0  -0.601431  0  2.292358  0  0  -0.352065  -0.545837  0  2.304637  0
O  O123  1  0.87503294  0.71892153  0.29515013  1  0  -0.619267  0  2.055412  0  0  -0.563515  0  2.301513  0  0  -0.601459  0  2.292319  0  0  -0.352073  -0.54587  0  2.304594  0
O  O124  1  0.56232073  0.06760920  0.36580348  1  0  -0.560574  0  2.164704  0  0  -0.513555  0  2.415093  0  0  -0.546837  0  2.408153  0  0  -0.335999  -0.499193  0  2.418044  0
O  O125  1  0.06232093  0.43238816  0.63419431  1  0  -0.560711  0  2.164759  0  0  -0.513665  0  2.415135  0  0  -0.546947  0  2.408185  0  0  -0.336049  -0.499303  0  2.418087  0
O  O126  1  0.43767857  0.93238558  0.63419203  1  0  -0.560812  0  2.164832  0  0  -0.513793  0  2.415211  0  0  -0.547084  0  2.408264  0  0  -0.336112  -0.49943  0  2.418164  0
O  O127  1  0.93767997  0.56760905  0.36580210  1  0  -0.560607  0  2.164726  0  0  -0.513578  0  2.415095  0  0  -0.546864  0  2.408162  0  0  -0.336031  -0.499211  0  2.41803  0
O  O128  1  0.36684499  0.10294275  0.42621297  1  0  -0.575588  0  2.175526  0  0  -0.521603  0  2.414941  0  0  -0.554603  0  2.410601  0  0  -0.31571  -0.506716  0  2.417076  0
O  O129  1  0.86684751  0.39705494  0.57378728  1  0  -0.575737  0  2.175444  0  0  -0.521704  0  2.414882  0  0  -0.554709  0  2.410543  0  0  -0.315793  -0.506816  0  2.417014  0
O  O130  1  0.63315271  0.89705364  0.57378444  1  0  -0.575547  0  2.175491  0  0  -0.521541  0  2.414926  0  0  -0.554545  0  2.410589  0  0  -0.315698  -0.506655  0  2.417054  0
O  O131  1  0.13315259  0.60294307  0.42621073  1  0  -0.575557  0  2.175418  0  0  -0.521555  0  2.41483  0  0  -0.554552  0  2.410494  0  0  -0.31573  -0.506666  0  2.416961  0
O  O132  1  0.41271255  0.16362416  0.15505071  1  0  -0.575866  0  2.07742  0  0  -0.526  0  2.32007  0  0  -0.560529  0  2.309969  0  0  -0.347912  -0.510933  0  2.324284  0
O  O133  1  0.91270930  0.33637774  0.84495265  1  0  -0.575999  0  2.077232  0  0  -0.526185  0  2.31997  0  0  -0.560708  0  2.309866  0  0  -0.347963  -0.511115  0  2.324184  0
O  O134  1  0.58728595  0.83637461  0.84495214  1  0  -0.57596  0  2.077424  0  0  -0.526141  0  2.320153  0  0  -0.560663  0  2.310046  0  0  -0.347987  -0.511076  0  2.324374  0
O  O135  1  0.08729240  0.66362349  0.15504851  1  0  -0.575995  0  2.077504  0  0  -0.526131  0  2.320179  0  0  -0.56065  0  2.310075  0  0  -0.347936  -0.511065  0  2.324396  0
O  O136  1  0.53664469  0.02151670  0.17952756  1  0  -0.565031  0  2.152574  0  0  -0.51827  0  2.395239  0  0  -0.551885  0  2.388859  0  0  -0.341642  -0.502975  0  2.397627  0
O  O137  1  0.03664327  0.47848455  0.82047739  1  0  -0.564856  0  2.152516  0  0  -0.51815  0  2.395149  0  0  -0.551758  0  2.388779  0  0  -0.341557  -0.502854  0  2.397533  0
O  O138  1  0.46335541  0.97848535  0.82047325  1  0  -0.564994  0  2.15254  0  0  -0.518231  0  2.395197  0  0  -0.551848  0  2.38882  0  0  -0.341638  -0.502934  0  2.397579  0
O  O139  1  0.96335762  0.52151992  0.17952432  1  0  -0.564988  0  2.152654  0  0  -0.518238  0  2.395313  0  0  -0.55184  0  2.388935  0  0  -0.341603  -0.502943  0  2.397697  0
O  O140  1  0.45224193  0.34623405  0.32591893  1  0  -0.530863  0  2.116777  0  0  -0.486729  0  2.363521  0  0  -0.517507  0  2.355975  0  0  -0.320404  -0.473273  0  2.366896  0
O  O141  1  0.95223954  0.15376884  0.67408241  1  0  -0.530916  0  2.11683  0  0  -0.486732  0  2.363582  0  0  -0.517499  0  2.356027  0  0  -0.320373  -0.473272  0  2.366955  0
O  O142  1  0.54775737  0.65376881  0.67408153  1  0  -0.530854  0  2.116871  0  0  -0.486701  0  2.363638  0  0  -0.517479  0  2.356088  0  0  -0.320379  -0.473242  0  2.367008  0
O  O143  1  0.04776136  0.84622915  0.32591754  1  0  -0.530834  0  2.116861  0  0  -0.486688  0  2.363608  0  0  -0.517456  0  2.356055  0  0  -0.320351  -0.473226  0  2.366979  0
O  O144  1  0.47914922  0.28818465  0.46752035  1  0  -0.606815  0  2.132047  0  0  -0.554415  0  2.37229  0  0  -0.589834  0  2.36744  0  0  -0.350647  -0.538193  0  2.373242  0
O  O145  1  0.97915128  0.21181591  0.53248028  1  0  -0.606798  0  2.132025  0  0  -0.554353  0  2.372294  0  0  -0.589759  0  2.367415  0  0  -0.350605  -0.538129  0  2.373243  0
O  O146  1  0.52085406  0.71181657  0.53248146  1  0  -0.606773  0  2.132031  0  0  -0.554337  0  2.372336  0  0  -0.589749  0  2.367465  0  0  -0.350608  -0.538113  0  2.373283  0
O  O147  1  0.02084562  0.78818048  0.46751713  1  0  -0.606858  0  2.131919  0  0  -0.554464  0  2.372173  0  0  -0.589869  0  2.367296  0  0  -0.350658  -0.538244  0  2.373128  0
