# generated using pymatgen
data_CuH3C3N2
_symmetry_space_group_name_H-M   'P 1'
_cell_length_a   11.39816731
_cell_length_b   11.39816857
_cell_length_c   12.79181754
_cell_angle_alpha   97.18964542
_cell_angle_beta   97.18963660
_cell_angle_gamma   90.04065963
_symmetry_Int_Tables_number   1
_chemical_formula_structural   CuH3C3N2
_chemical_formula_sum   'Cu16 H48 C48 N32'
_cell_volume   1635.63300440
_cell_formula_units_Z   16
loop_
 _symmetry_equiv_pos_site_id
 _symmetry_equiv_pos_as_xyz
  1  'x, y, z'
loop_
 _atom_site_type_symbol
 _atom_site_label
 _atom_site_symmetry_multiplicity
 _atom_site_fract_x
 _atom_site_fract_y
 _atom_site_fract_z
 _atom_site_occupancy
 _atom_site_pbe_bader_spin_density
 _atom_site_pbe_cm5_charge
 _atom_site_pbe_ddec_charge
 _atom_site_pbe_ddec_spin_density
 _atom_site_pbe_ddec_sum_bond_order
 _atom_site_pbe_magmom
Cu  Cu0  1  0.90236443  0.07669406  0.14431528  1  0  0.479621  0.250211  0  2.24168  0
Cu  Cu1  1  0.92330665  0.09763664  0.35568588  1  0  0.479588  0.250184  0  2.241706  0
Cu  Cu2  1  0.09763664  0.92330646  0.85568554  1  0  0.479634  0.250235  0  2.241659  0
Cu  Cu3  1  0.07669354  0.90236388  0.64431484  1  0  0.479586  0.250162  0  2.241703  0
Cu  Cu4  1  0.88933586  0.57723198  0.14648829  1  0  0.476604  0.253734  0  2.270349  0
Cu  Cu5  1  0.42276846  0.11066419  0.35351121  1  0  0.476585  0.253707  0  2.270342  0
Cu  Cu6  1  0.11066431  0.42276766  0.85351156  1  0  0.476608  0.253733  0  2.270345  0
Cu  Cu7  1  0.57723171  0.88933544  0.64648785  1  0  0.476587  0.253703  0  2.270347  0
Cu  Cu8  1  0.92033249  0.60080904  0.35206649  1  0  0.477979  0.25301  0  2.276019  0
Cu  Cu9  1  0.39918954  0.07966697  0.14793352  1  0  0.477988  0.253014  0  2.276058  0
Cu  Cu10  1  0.07966678  0.39918972  0.64793316  1  0  0.477992  0.25301  0  2.27606  0
Cu  Cu11  1  0.60080975  0.92033267  0.85206623  1  0  0.477981  0.25299  0  2.27607  0
Cu  Cu12  1  0.42095313  0.61188634  0.35575293  1  0  0.480645  0.249351  0  2.247562  0
Cu  Cu13  1  0.38811521  0.57904639  0.14424668  1  0  0.480657  0.249378  0  2.247561  0
Cu  Cu14  1  0.57904706  0.38811418  0.64424702  1  0  0.480631  0.249338  0  2.247545  0
Cu  Cu15  1  0.61188585  0.42095325  0.85575326  1  0  0.48062  0.249331  0  2.24758  0
H  H16  1  0.99581600  0.82741744  0.18974056  1  0  0.118269  0.079719  0  1.036402  0
H  H17  1  0.17258215  0.00418453  0.31025969  1  0  0.11826  0.079701  0  1.036414  0
H  H18  1  0.00418417  0.17258220  0.81025928  1  0  0.118269  0.079717  0  1.036378  0
H  H19  1  0.82741713  0.99581511  0.68974006  1  0  0.118276  0.079716  0  1.036415  0
H  H20  1  0.64760269  0.70417946  0.07845540  1  0  0.108476  0.105614  0  1.028001  0
H  H21  1  0.29582063  0.35239758  0.42154568  1  0  0.108481  0.105602  0  1.028002  0
H  H22  1  0.35239749  0.29582018  0.92154601  1  0  0.108489  0.105609  0  1.028004  0
H  H23  1  0.70417778  0.64760294  0.57845407  1  0  0.108481  0.105593  0  1.028026  0
H  H24  1  0.65977097  0.94592457  0.07209596  1  0  0.101455  0.088612  0  1.053528  0
H  H25  1  0.05407502  0.34022792  0.42790494  1  0  0.101453  0.088638  0  1.053514  0
H  H26  1  0.34022832  0.05407507  0.92790457  1  0  0.101458  0.088622  0  1.053522  0
H  H27  1  0.94592427  0.65977172  0.57209559  1  0  0.101462  0.088643  0  1.053501  0
H  H28  1  0.80741254  0.33006914  0.18833705  1  0  0.118481  0.080143  0  1.035642  0
H  H29  1  0.66993212  0.19258710  0.31166326  1  0  0.118489  0.080158  0  1.035643  0
H  H30  1  0.19258765  0.66993138  0.81166445  1  0  0.118471  0.080132  0  1.035647  0
H  H31  1  0.33006895  0.80741342  0.68833600  1  0  0.11849  0.080143  0  1.035644  0
H  H32  1  0.12345690  0.20303616  0.07762653  1  0  0.109438  0.108145  0  1.023005  0
H  H33  1  0.79696455  0.87654278  0.42237377  1  0  0.10943  0.108133  0  1.023003  0
H  H34  1  0.87654239  0.79696348  0.92237322  1  0  0.109438  0.108142  0  1.022995  0
H  H35  1  0.20303475  0.12345774  0.57762607  1  0  0.109432  0.108158  0  1.022987  0
H  H36  1  0.11578051  0.44597810  0.07774129  1  0  0.100534  0.086251  0  1.060461  0
H  H37  1  0.55402219  0.88421911  0.42225820  1  0  0.100541  0.086242  0  1.06047  0
H  H38  1  0.88421877  0.55402154  0.92225768  1  0  0.100536  0.086227  0  1.060484  0
H  H39  1  0.44597711  0.11578141  0.57774165  1  0  0.100545  0.086231  0  1.060477  0
H  H40  1  0.66986917  0.69486017  0.31071032  1  0  0.118275  0.079849  0  1.035357  0
H  H41  1  0.30514028  0.33013276  0.18928863  1  0  0.118279  0.079874  0  1.035363  0
H  H42  1  0.33013189  0.30514034  0.68928815  1  0  0.118284  0.079869  0  1.035381  0
H  H43  1  0.69485992  0.66986864  0.81071141  1  0  0.118274  0.079867  0  1.035361  0
H  H44  1  0.55248751  0.38829977  0.42389217  1  0  0.101044  0.087923  0  1.053796  0
H  H45  1  0.61170168  0.44751288  0.07610749  1  0  0.10102  0.087902  0  1.053828  0
H  H46  1  0.44751268  0.61170164  0.57610708  1  0  0.101033  0.087937  0  1.053808  0
H  H47  1  0.38829850  0.55248764  0.92389167  1  0  0.101046  0.087924  0  1.053812  0
H  H48  1  0.79448433  0.37680701  0.41825167  1  0  0.109247  0.106317  0  1.023193  0
H  H49  1  0.62319283  0.20551545  0.08174851  1  0  0.109247  0.106308  0  1.023208  0
H  H50  1  0.20551674  0.62319351  0.58174836  1  0  0.109251  0.106316  0  1.023212  0
H  H51  1  0.37680734  0.79448418  0.91825055  1  0  0.109245  0.106322  0  1.023217  0
H  H52  1  0.16701952  0.50546490  0.31238002  1  0  0.118445  0.080965  0  1.03325  0
H  H53  1  0.49453584  0.83298047  0.18761956  1  0  0.118442  0.080959  0  1.033252  0
H  H54  1  0.83298066  0.49453563  0.68761993  1  0  0.118435  0.080944  0  1.033275  0
H  H55  1  0.50546521  0.16701916  0.81238038  1  0  0.11845  0.080961  0  1.033277  0
H  H56  1  0.05266924  0.84628535  0.41999150  1  0  0.100998  0.087454  0  1.060094  0
H  H57  1  0.15371416  0.94733088  0.08000956  1  0  0.100985  0.087449  0  1.060126  0
H  H58  1  0.94733181  0.15371340  0.58000913  1  0  0.100983  0.087449  0  1.060078  0
H  H59  1  0.84628514  0.05266964  0.91999107  1  0  0.100996  0.087446  0  1.060109  0
H  H60  1  0.29615728  0.85221757  0.42270381  1  0  0.109612  0.107927  0  1.02122  0
H  H61  1  0.14778265  0.70384279  0.07729652  1  0  0.109631  0.107965  0  1.021212  0
H  H62  1  0.70384378  0.14778207  0.57729691  1  0  0.109626  0.10794  0  1.021232  0
H  H63  1  0.85221752  0.29615685  0.92270411  1  0  0.10961  0.107926  0  1.02123  0
C  C64  1  0.90271488  0.82708921  0.15880827  1  0  0.10502  0.117371  0  3.981641  0
C  C65  1  0.17291063  0.09728564  0.34119201  1  0  0.105066  0.117439  0  3.981553  0
C  C66  1  0.09728529  0.17291043  0.84119157  1  0  0.10503  0.117402  0  3.981598  0
C  C67  1  0.82708867  0.90271488  0.65880783  1  0  0.105026  0.117389  0  3.981595  0
C  C68  1  0.72164474  0.76563764  0.10205295  1  0  -0.023099  -0.055474  0  3.99127  0
C  C69  1  0.23436287  0.27835419  0.39794724  1  0  -0.023024  -0.055318  0  3.991104  0
C  C70  1  0.27835455  0.23436200  0.89794758  1  0  -0.023105  -0.055428  0  3.991256  0
C  C71  1  0.76563730  0.72164545  0.60205260  1  0  -0.023034  -0.05533  0  3.991102  0
C  C72  1  0.72799051  0.88563567  0.09760956  1  0  -0.026113  -0.055693  0  4.00836  0
C  C73  1  0.11436495  0.27201014  0.40239162  1  0  -0.026177  -0.055858  0  4.008299  0
C  C74  1  0.27200968  0.11436486  0.90239116  1  0  -0.026123  -0.055729  0  4.008339  0
C  C75  1  0.88563524  0.72799038  0.59760910  1  0  -0.026166  -0.055833  0  4.008257  0
C  C76  1  0.89239523  0.32809414  0.15837075  1  0  0.10485  0.114573  0  3.986436  0
C  C77  1  0.67190609  0.10760466  0.34162948  1  0  0.104846  0.114529  0  3.986448  0
C  C78  1  0.10760496  0.67190639  0.84162998  1  0  0.104852  0.114536  0  3.986466  0
C  C79  1  0.32809409  0.89239587  0.65837125  1  0  0.104821  0.114526  0  3.986477  0
C  C80  1  0.05690928  0.26515571  0.10167058  1  0  -0.020401  -0.043578  0  3.970289  0
C  C81  1  0.73484430  0.94308986  0.39832959  1  0  -0.020369  -0.043553  0  3.970334  0
C  C82  1  0.94309000  0.73484392  0.89832916  1  0  -0.0204  -0.04359  0  3.970306  0
C  C83  1  0.26515589  0.05691066  0.60167113  1  0  -0.020378  -0.043601  0  3.970266  0
C  C84  1  0.05294465  0.38598274  0.10132280  1  0  -0.030051  -0.071642  0  4.029058  0
C  C85  1  0.61401752  0.94705457  0.39867664  1  0  -0.03008  -0.071641  0  4.029027  0
C  C86  1  0.94705464  0.61401689  0.89867616  1  0  -0.030063  -0.071609  0  4.029019  0
C  C87  1  0.38598265  0.05294507  0.60132399  1  0  -0.030049  -0.071565  0  4.029027  0
C  C88  1  0.67041834  0.60989203  0.34062847  1  0  0.104784  0.11575  0  3.981807  0
C  C89  1  0.39010969  0.32958207  0.15937123  1  0  0.104753  0.115687  0  3.981901  0
C  C90  1  0.32958185  0.39010849  0.65937147  1  0  0.104744  0.115693  0  3.981888  0
C  C91  1  0.60989137  0.67041757  0.84062871  1  0  0.104756  0.115681  0  3.981876  0
C  C92  1  0.61248764  0.45051567  0.39948101  1  0  -0.025212  -0.053585  0  4.004869  0
C  C93  1  0.54948607  0.38751234  0.10051864  1  0  -0.025192  -0.053592  0  4.004813  0
C  C94  1  0.38751256  0.54948573  0.60051825  1  0  -0.025222  -0.053654  0  4.004873  0
C  C95  1  0.45051499  0.61248730  0.89948130  1  0  -0.025218  -0.053607  0  4.004928  0
C  C96  1  0.73261494  0.44411938  0.39540971  1  0  -0.024004  -0.057368  0  3.996345  0
C  C97  1  0.55588074  0.26738401  0.10458964  1  0  -0.023984  -0.057317  0  3.9963  0
C  C98  1  0.26738437  0.55588203  0.60458945  1  0  -0.023989  -0.057299  0  3.996269  0
C  C99  1  0.44411855  0.73261563  0.89541089  1  0  -0.024006  -0.057373  0  3.996333  0
C  C100  1  0.16952361  0.59897714  0.34206191  1  0  0.104602  0.115527  0  3.983062  0
C  C101  1  0.40102277  0.83047642  0.15793759  1  0  0.104625  0.115565  0  3.983096  0
C  C102  1  0.83047658  0.40102338  0.65793803  1  0  0.104624  0.115596  0  3.983056  0
C  C103  1  0.59897563  0.16952321  0.84206128  1  0  0.104616  0.115586  0  3.983048  0
C  C104  1  0.11252584  0.77633310  0.39750169  1  0  -0.030227  -0.073782  0  4.032113  0
C  C105  1  0.22366581  0.88747568  0.10249866  1  0  -0.030224  -0.073778  0  4.032059  0
C  C106  1  0.88747522  0.22366654  0.60249903  1  0  -0.030229  -0.073781  0  4.032139  0
C  C107  1  0.77633349  0.11252484  0.89750118  1  0  -0.030242  -0.073791  0  4.032116  0
C  C108  1  0.23357821  0.77921883  0.39850684  1  0  -0.019713  -0.040867  0  3.975158  0
C  C109  1  0.22078101  0.76642131  0.10149339  1  0  -0.019723  -0.040902  0  3.975141  0
C  C110  1  0.76642283  0.22077992  0.60149379  1  0  -0.019739  -0.040895  0  3.975192  0
C  C111  1  0.77921916  0.23357833  0.89850724  1  0  -0.019714  -0.040867  0  3.975156  0
N  N112  1  0.84313087  0.92370102  0.13304205  1  0  -0.432373  -0.266386  0  3.821796  0
N  N113  1  0.07629994  0.15686940  0.36695835  1  0  -0.432394  -0.266391  0  3.821837  0
N  N114  1  0.15686932  0.07629950  0.86695790  1  0  -0.432382  -0.266408  0  3.821768  0
N  N115  1  0.92370025  0.84313113  0.63304238  1  0  -0.432378  -0.266378  0  3.82177  0
N  N116  1  0.83273581  0.72920649  0.14076197  1  0  -0.430648  -0.266133  0  3.805083  0
N  N117  1  0.27079437  0.16726474  0.35923843  1  0  -0.430638  -0.266163  0  3.805039  0
N  N118  1  0.16726437  0.27079403  0.85923797  1  0  -0.430661  -0.266186  0  3.805096  0
N  N119  1  0.72920582  0.83273578  0.64076151  1  0  -0.430661  -0.266157  0  3.805079  0
N  N120  1  0.94818433  0.42518142  0.13700162  1  0  -0.432544  -0.269906  0  3.819471  0
N  N121  1  0.57481844  0.05181564  0.36299858  1  0  -0.432561  -0.269884  0  3.819359  0
N  N122  1  0.05181584  0.57481822  0.86299901  1  0  -0.432546  -0.269859  0  3.819352  0
N  N123  1  0.42518086  0.94818488  0.63700205  1  0  -0.432542  -0.269895  0  3.819459  0
N  N124  1  0.95477960  0.22925800  0.13753848  1  0  -0.42855  -0.25611  0  3.804143  0
N  N125  1  0.77074284  0.04521979  0.36246175  1  0  -0.428558  -0.256108  0  3.804121  0
N  N126  1  0.04522057  0.77074164  0.86246215  1  0  -0.428541  -0.256095  0  3.804131  0
N  N127  1  0.22925733  0.95477985  0.63753810  1  0  -0.428553  -0.256082  0  3.804049  0
N  N128  1  0.76859318  0.54540254  0.35813324  1  0  -0.430096  -0.265766  0  3.811582  0
N  N129  1  0.45459751  0.23140664  0.14186620  1  0  -0.430067  -0.265721  0  3.811665  0
N  N130  1  0.23140610  0.45459709  0.64186572  1  0  -0.430077  -0.265768  0  3.811632  0
N  N131  1  0.54540355  0.76859388  0.85813384  1  0  -0.430059  -0.26571  0  3.811599  0
N  N132  1  0.57394519  0.55612609  0.36527749  1  0  -0.432618  -0.264324  0  3.817522  0
N  N133  1  0.44387580  0.42605573  0.13472307  1  0  -0.43262  -0.264325  0  3.817547  0
N  N134  1  0.42605501  0.44387531  0.63472177  1  0  -0.432599  -0.264282  0  3.817459  0
N  N135  1  0.55612439  0.57394479  0.86527687  1  0  -0.432605  -0.264296  0  3.817568  0
N  N136  1  0.26883977  0.66654673  0.36368847  1  0  -0.429755  -0.259455  0  3.815005  0
N  N137  1  0.33345465  0.73116014  0.13631118  1  0  -0.429759  -0.259476  0  3.815028  0
N  N138  1  0.73115953  0.33345379  0.63631138  1  0  -0.429735  -0.259454  0  3.814982  0
N  N139  1  0.66654642  0.26884039  0.86368886  1  0  -0.429737  -0.259469  0  3.815012  0
N  N140  1  0.07260942  0.66171090  0.36193261  1  0  -0.432965  -0.268371  0  3.817126  0
N  N141  1  0.33828888  0.92739073  0.13806769  1  0  -0.432995  -0.268404  0  3.817112  0
N  N142  1  0.92739075  0.33828874  0.63806724  1  0  -0.432976  -0.268393  0  3.817154  0
N  N143  1  0.66171129  0.07260891  0.86193294  1  0  -0.432971  -0.268367  0  3.817085  0
