# generated using pymatgen
data_Cd3H36C38S2(N3O11)2
_symmetry_space_group_name_H-M   'P 1'
_cell_length_a   10.20944838
_cell_length_b   9.87554416
_cell_length_c   14.24100000
_cell_angle_alpha   85.04827517
_cell_angle_beta   72.56659513
_cell_angle_gamma   59.54825337
_symmetry_Int_Tables_number   1
_chemical_formula_structural   Cd3H36C38S2(N3O11)2
_chemical_formula_sum   'Cd3 H36 C38 S2 N6 O22'
_cell_volume   1177.15907933
_cell_formula_units_Z   1
loop_
 _symmetry_equiv_pos_site_id
 _symmetry_equiv_pos_as_xyz
  1  'x, y, z'
loop_
 _atom_site_type_symbol
 _atom_site_label
 _atom_site_symmetry_multiplicity
 _atom_site_fract_x
 _atom_site_fract_y
 _atom_site_fract_z
 _atom_site_occupancy
 _atom_site_hle17_bader_spin_density
 _atom_site_hle17_ddec_charge
 _atom_site_hle17_ddec_spin_density
 _atom_site_hle17_ddec_sum_bond_order
 _atom_site_hle17_magmom
 _atom_site_hse06_10hf_bader_spin_density
 _atom_site_hse06_10hf_ddec_charge
 _atom_site_hse06_10hf_ddec_spin_density
 _atom_site_hse06_10hf_ddec_sum_bond_order
 _atom_site_hse06_10hf_magmom
 _atom_site_hse06_bader_spin_density
 _atom_site_hse06_ddec_charge
 _atom_site_hse06_ddec_spin_density
 _atom_site_hse06_ddec_sum_bond_order
 _atom_site_hse06_magmom
 _atom_site_pbe_bader_charge
 _atom_site_pbe_bader_spin_density
 _atom_site_pbe_cm5_charge
 _atom_site_pbe_ddec_charge
 _atom_site_pbe_ddec_spin_density
 _atom_site_pbe_ddec_sum_bond_order
 _atom_site_pbe_magmom
Cd  Cd0  1  0.16771389  0.72340845  0.04300832  1  0  1.174857  0  1.620816  0  0  0.99082  0  2.060238  0  0  1.04872  0  2.005006  0  1.286663  0  0.766715  0.946934  0  2.099949  0
Cd  Cd1  1  0.83228822  0.27658972  0.95699120  1  0  1.174857  0  1.620825  0  0  0.990793  0  2.06028  0  0  1.048693  0  2.005049  0  1.286685  0  0.766711  0.946903  0  2.099991  0
Cd  Cd2  1  0.49999872  0.99999935  0.50000161  1  0  1.212257  0  1.641127  0  0  1.024568  0  2.097128  0  0  1.075556  0  2.044336  0  1.324987  0  0.80182  0.987954  0  2.134457  0
H  H3  1  0.43909721  0.41671697  0.93246653  1  0  0.433212  0  0.871951  0  0  0.397899  0  0.942401  0  0  0.409836  0  0.925203  0  0.651555  0  0.284951  0.389402  0  0.954605  0
H  H4  1  0.56090225  0.58328238  0.06753208  1  0  0.433203  0  0.871959  0  0  0.397891  0  0.94241  0  0  0.409827  0  0.925212  0  0.651549  0  0.284942  0.389395  0  0.954613  0
H  H5  1  0.28527664  0.47837343  0.89704043  1  0  0.423839  0  0.821652  0  0  0.407076  0  0.875579  0  0  0.415339  0  0.866087  0  0.608147  0  0.317976  0.401072  0  0.882532  0
H  H6  1  0.71471930  0.52162475  0.10296041  1  0  0.423815  0  0.821759  0  0  0.407048  0  0.875697  0  0  0.415312  0  0.866204  0  0.60818  0  0.317937  0.401044  0  0.882652  0
H  H7  1  0.84149939  0.79468757  0.40281580  1  0  0.430971  0  0.812048  0  0  0.414918  0  0.863268  0  0  0.422341  0  0.85563  0  0.610536  0  0.324757  0.409404  0  0.869245  0
H  H8  1  0.15849964  0.20531060  0.59718579  1  0  0.430986  0  0.812028  0  0  0.41494  0  0.863239  0  0  0.422365  0  0.855603  0  0.610544  0  0.324755  0.409426  0  0.869217  0
H  H9  1  0.76392305  0.68926720  0.41449524  1  0  0.441894  0  0.854009  0  0  0.408459  0  0.921168  0  0  0.418802  0  0.906106  0  0.664207  0  0.298738  0.400821  0  0.93224  0
H  H10  1  0.23607700  0.31073097  0.58550542  1  0  0.441767  0  0.854176  0  0  0.408408  0  0.921234  0  0  0.418755  0  0.906166  0  0.664235  0  0.298694  0.400769  0  0.932307  0
H  H11  1  0.86920961  0.98475463  0.12365457  1  0  0.43156  0  0.854682  0  0  0.404944  0  0.916036  0  0  0.414799  0  0.901746  0  0.6334  0  0.29805  0.397954  0  0.926174  0
H  H12  1  0.13078881  0.01524472  0.87634566  1  0  0.431582  0  0.854694  0  0  0.404974  0  0.915998  0  0  0.41483  0  0.901707  0  0.633411  0  0.298052  0.397986  0  0.926132  0
H  H13  1  0.98206678  0.04709048  0.11688230  1  0  0.420597  0  0.889291  0  0  0.387475  0  0.957731  0  0  0.398561  0  0.941791  0  0.642658  0  0.284536  0.379534  0  0.969191  0
H  H14  1  0.01793328  0.95290769  0.88311906  1  0  0.42055  0  0.889358  0  0  0.387417  0  0.957816  0  0  0.398504  0  0.941875  0  0.642641  0  0.284487  0.379476  0  0.969277  0
H  H15  1  0.30811270  0.69446858  0.37889612  1  0  0.307547  0  0.925161  0  0  0.287427  0  0.991877  0  0  0.29507  0  0.986345  0  0.517363  0  0.308167  0.282047  0  0.99575  0
H  H16  1  0.69188941  0.30552960  0.62110621  1  0  0.307574  0  0.925138  0  0  0.287453  0  0.991851  0  0  0.295094  0  0.986322  0  0.517371  0  0.308175  0.282073  0  0.995722  0
H  H17  1  0.05122275  0.35838944  0.31465524  1  0  0.112008  0  0.954414  0  0  0.119757  0  1.016355  0  0  0.122259  0  1.016182  0  0.112904  0  0.108658  0.118022  0  1.016411  0
H  H18  1  0.94878020  0.64161109  0.68534466  1  0  0.111976  0  0.954437  0  0  0.119731  0  1.016381  0  0  0.122234  0  1.016208  0  0.112759  0  0.108654  0.117996  0  1.016438  0
H  H19  1  0.30619457  0.70680270  0.79600118  1  0  0.128346  0  0.964125  0  0  0.133973  0  1.028093  0  0  0.137478  0  1.026925  0  0.166362  0  0.111308  0.131424  0  1.029281  0
H  H20  1  0.69380240  0.29319548  0.20400014  1  0  0.128293  0  0.964183  0  0  0.133953  0  1.028102  0  0  0.137458  0  1.026934  0  0.166383  0  0.1113  0.131403  0  1.029291  0
H  H21  1  0.89832903  0.89620161  0.79937231  1  0  0.116812  0  0.941026  0  0  0.127146  0  1.00147  0  0  0.130972  0  0.998416  0  0.118547  0  0.114384  0.124451  0  1.00346  0
H  H22  1  0.10167247  0.10379774  0.20062867  1  0  0.116817  0  0.941048  0  0  0.127148  0  1.001486  0  0  0.130976  0  0.998434  0  0.11857  0  0.114382  0.124452  0  1.003477  0
H  H23  1  0.23481149  0.56934449  0.69573386  1  0  0.109894  0  0.921397  0  0  0.123236  0  0.973676  0  0  0.126716  0  0.970592  0  0.108141  0  0.118182  0.1208  0  0.975743  0
H  H24  1  0.76518488  0.43065487  0.30426892  1  0  0.109904  0  0.921369  0  0  0.123236  0  0.973675  0  0  0.126716  0  0.970593  0  0.108153  0  0.118206  0.120802  0  0.975738  0
H  H25  1  0.41599748  0.75869273  0.43861977  1  0  0.080992  0  1.007024  0  0  0.088088  0  1.073794  0  0  0.091167  0  1.070387  0  0.140637  0  0.118963  0.085931  0  1.076112  0
H  H26  1  0.58400318  0.24130427  0.56138364  1  0  0.081016  0  1.007071  0  0  0.088187  0  1.073749  0  0  0.091264  0  1.070345  0  0.140682  0  0.119002  0.086017  0  1.076064  0
H  H27  1  0.15467831  0.40990710  0.43578813  1  0  0.118608  0  0.968143  0  0  0.126152  0  1.030388  0  0  0.130429  0  1.026539  0  0.13823  0  0.110678  0.122886  0  1.033544  0
H  H28  1  0.84532507  0.59009461  0.56421020  1  0  0.118602  0  0.968179  0  0  0.126136  0  1.030442  0  0  0.13041  0  1.026598  0  0.139186  0  0.110675  0.122884  0  1.033582  0
H  H29  1  0.05722568  0.49282746  0.15482944  1  0  0.088286  0  0.952084  0  0  0.096762  0  1.015281  0  0  0.098896  0  1.013681  0  0.11527  0  0.115131  0.095142  0  1.016619  0
H  H30  1  0.94277625  0.50717307  0.84516997  1  0  0.088235  0  0.95211  0  0  0.09671  0  1.015302  0  0  0.098843  0  1.013704  0  0.115267  0  0.115116  0.095087  0  1.016644  0
H  H31  1  0.41646459  0.87604304  0.70934580  1  0  0.081593  0  0.968418  0  0  0.090923  0  1.032001  0  0  0.093121  0  1.029247  0  0.126693  0  0.118238  0.089184  0  1.034198  0
H  H32  1  0.58353178  0.12395631  0.29065699  1  0  0.081581  0  0.96838  0  0  0.090938  0  1.031954  0  0  0.093139  0  1.029196  0  0.126725  0  0.118253  0.089197  0  1.034154  0
H  H33  1  0.28153994  0.70129848  0.22869576  1  0  0.111256  0  0.951466  0  0  0.117391  0  1.016521  0  0  0.120804  0  1.0134  0  0.157748  0  0.122605  0.115011  0  1.018588  0
H  H34  1  0.71846790  0.29869852  0.77130049  1  0  0.11131  0  0.951435  0  0  0.117481  0  1.016447  0  0  0.120897  0  1.013324  0  0.157771  0  0.122616  0.115096  0  1.018524  0
H  H35  1  0.64897770  0.74500936  0.04344264  1  0  0.096328  0  0.972487  0  0  0.104449  0  1.040184  0  0  0.10869  0  1.035763  0  0.081611  0  0.108198  0.10131  0  1.0436  0
H  H36  1  0.35102115  0.25499117  0.95655673  1  0  0.096311  0  0.9725  0  0  0.104412  0  1.040228  0  0  0.108653  0  1.035808  0  0.081825  0  0.108178  0.101273  0  1.043645  0
H  H37  1  0.44269866  0.96492954  0.81014410  1  0  0.112157  0  0.954742  0  0  0.121403  0  1.016305  0  0  0.125443  0  1.012235  0  0.101585  0  0.112293  0.118457  0  1.01927  0
H  H38  1  0.55730207  0.03507335  0.18985403  1  0  0.112166  0  0.954744  0  0  0.121442  0  1.016262  0  0  0.125481  0  1.012192  0  0.101807  0  0.112309  0.118493  0  1.019233  0
C  C39  1  0.10144514  0.43505141  0.29759361  1  0  -0.096095  0  3.760803  0  0  -0.10908  0  4.018458  0  0  -0.114844  0  4.041912  0  -0.005583  0  -0.082999  -0.105314  0  4.002674  0
C  C40  1  0.89855842  0.56494794  0.70240482  1  0  -0.096064  0  3.760776  0  0  -0.109064  0  4.018445  0  0  -0.114827  0  4.0419  0  -0.005407  0  -0.083003  -0.105302  0  4.00267  0
C  C41  1  0.32492534  0.71785120  0.71708957  1  0  -0.104159  0  3.688748  0  0  -0.1158  0  3.942866  0  0  -0.123534  0  3.962692  0  -0.019286  0  -0.074053  -0.11089  0  3.929318  0
C  C42  1  0.67506983  0.28215051  0.28291122  1  0  -0.104146  0  3.68869  0  0  -0.115785  0  3.942806  0  0  -0.123521  0  3.962635  0  -0.019326  0  -0.074039  -0.110878  0  3.929264  0
C  C43  1  0.79471866  0.88534165  0.83749832  1  0  -0.047726  0  3.681576  0  0  -0.089725  0  3.932013  0  0  -0.084551  0  3.948306  0  -0.015587  0  -0.070002  -0.092165  0  3.920164  0
C  C44  1  0.20528122  0.11465888  0.16250154  1  0  -0.047751  0  3.681583  0  0  -0.089745  0  3.932001  0  0  -0.084568  0  3.948305  0  -0.015596  0  -0.06999  -0.092185  0  3.920149  0
C  C45  1  0.28636476  0.64157456  0.66180454  1  0  0.010715  0  3.647684  0  0  -0.02001  0  3.894588  0  0  -0.013774  0  3.910185  0  0.034421  0  -0.049869  -0.023523  0  3.883461  0
C  C46  1  0.71363101  0.35842597  0.33819830  1  0  0.010797  0  3.647602  0  0  -0.019929  0  3.894518  0  0  -0.013695  0  3.910118  0  0.034711  0  -0.049848  -0.023442  0  3.883392  0
C  C47  1  0.53341586  0.84572328  0.92966698  1  0  -0.069757  0  3.76318  0  0  -0.042223  0  4.00017  0  0  -0.052719  0  4.024255  0  -0.036442  0  -0.016782  -0.035798  0  3.984493  0
C  C48  1  0.46658384  0.15427961  0.07033207  1  0  -0.069693  0  3.763137  0  0  -0.042127  0  4.000085  0  0  -0.052623  0  4.024168  0  -0.036271  0  -0.0167  -0.035702  0  3.98441  0
C  C49  1  0.38391926  0.74763833  0.51785096  1  0  0.113708  0  3.686132  0  0  0.070163  0  3.936587  0  0  0.079129  0  3.954306  0  0.462794  0  0.048423  0.063552  0  3.925768  0
C  C50  1  0.61607796  0.25236338  0.48215221  1  0  0.113589  0  3.686357  0  0  0.06996  0  3.93683  0  0  0.078952  0  3.954504  0  0.462715  0  0.048321  0.063365  0  3.925995  0
C  C51  1  0.91438021  0.76154913  0.97518823  1  0  0.637357  0  3.940353  0  0  0.585848  0  4.233381  0  0  0.619617  0  4.228315  0  1.569826  0  0.194395  0.562928  0  4.23605  0
C  C52  1  0.08561985  0.23844905  0.02481173  1  0  0.637264  0  3.940383  0  0  0.585746  0  4.233432  0  0  0.619514  0  4.228367  0  1.569824  0  0.194383  0.562827  0  4.236094  0
C  C53  1  0.15897095  0.46365544  0.36617320  1  0  -0.104688  0  3.669659  0  0  -0.132116  0  3.923059  0  0  -0.131988  0  3.940257  0  -0.067802  0  -0.075851  -0.131945  0  3.911896  0
C  C54  1  0.84103201  0.53634509  0.63382388  1  0  -0.104741  0  3.669684  0  0  -0.132184  0  3.923127  0  0  -0.132055  0  3.940324  0  -0.069005  0  -0.075912  -0.132027  0  3.91196  0
C  C55  1  0.31434262  0.65748389  0.56000987  1  0  -0.110584  0  3.749815  0  0  -0.087478  0  3.992825  0  0  -0.09954  0  4.017141  0  -0.040683  0  -0.009037  -0.079583  0  3.9765  0
C  C56  1  0.68565684  0.34251546  0.43999225  1  0  -0.110697  0  3.749884  0  0  -0.087561  0  3.992928  0  0  -0.099627  0  4.017249  0  -0.040759  0  -0.009075  -0.079663  0  3.976595  0
C  C57  1  0.10689538  0.50580026  0.20895387  1  0  0.107355  0  3.717822  0  0  0.073465  0  3.970976  0  0  0.078225  0  3.992884  0  0.493258  0  0.039177  0.069867  0  3.956467  0
C  C58  1  0.89310818  0.49419909  0.79104526  1  0  0.107475  0  3.717768  0  0  0.073601  0  3.970907  0  0  0.07836  0  3.992815  0  0.493432  0  0.039218  0.070022  0  3.956363  0
C  C59  1  0.22084810  0.56525079  0.34386319  1  0  0.204856  0  3.771987  0  0  0.20261  0  4.019348  0  0  0.206486  0  4.042498  0  0.360233  0  0.10318  0.199769  0  4.003925  0
C  C60  1  0.77915726  0.43474503  0.65613507  1  0  0.204952  0  3.771964  0  0  0.202717  0  4.019332  0  0  0.206595  0  4.042478  0  0.360461  0  0.103288  0.199875  0  4.003912  0
C  C61  1  0.39814441  0.81692246  0.97370237  1  0  0.652513  0  3.904351  0  0  0.600056  0  4.191841  0  0  0.633736  0  4.187876  0  1.567885  0  0.206143  0.577236  0  4.193743  0
C  C62  1  0.60185649  0.18307808  0.02629656  1  0  0.652556  0  3.904225  0  0  0.600099  0  4.19169  0  0  0.633779  0  4.187724  0  1.567945  0  0.206175  0.57728  0  4.193598  0
C  C63  1  0.67218662  0.93619824  0.79518950  1  0  -0.116136  0  3.742967  0  0  -0.084288  0  3.991194  0  0  -0.093765  0  4.013639  0  -0.169691  0  -0.015239  -0.07856  0  3.975955  0
C  C64  1  0.32781470  0.06380347  0.20480857  1  0  -0.116164  0  3.742914  0  0  -0.084289  0  3.991107  0  0  -0.093795  0  4.013592  0  -0.169718  0  -0.015261  -0.078559  0  3.975866  0
C  C65  1  0.38750435  0.81080783  0.66954446  1  0  0.156451  0  3.662165  0  0  0.122575  0  3.90994  0  0  0.131808  0  3.927169  0  0.451005  0  0.058108  0.116783  0  3.898219  0
C  C66  1  0.61249347  0.18919270  0.33045724  1  0  0.156516  0  3.661981  0  0  0.122571  0  3.909808  0  0  0.1318  0  3.927042  0  0.450829  0  0.058105  0.116778  0  3.898091  0
C  C67  1  0.22929783  0.62632041  0.25055496  1  0  0.040891  0  3.637917  0  0  0.005331  0  3.883996  0  0  0.009908  0  3.901373  0  0.528887  0  0.048433  0.002081  0  3.872175  0
C  C68  1  0.77070898  0.37367658  0.74944361  1  0  0.040851  0  3.637934  0  0  0.005244  0  3.884018  0  0  0.009816  0  3.901395  0  0.528625  0  0.048417  0.001994  0  3.872203  0
C  C69  1  0.65478708  0.79674621  0.97293419  1  0  -0.058111  0  3.705003  0  0  -0.099316  0  3.957696  0  0  -0.095266  0  3.975951  0  0.003454  0  -0.071338  -0.101967  0  3.946251  0
C  C70  1  0.34521340  0.20325315  0.02706490  1  0  -0.058099  0  3.705038  0  0  -0.09931  0  3.957756  0  0  -0.09526  0  3.97601  0  0.003229  0  -0.071315  -0.10196  0  3.946308  0
C  C71  1  0.54047065  0.92018639  0.84161329  1  0  -0.039241  0  3.687715  0  0  -0.081175  0  3.938239  0  0  -0.076243  0  3.955024  0  0.051109  0  -0.068456  -0.083715  0  3.926646  0
C  C72  1  0.45952887  0.07981885  0.15838636  1  0  -0.039331  0  3.68777  0  0  -0.081307  0  3.938284  0  0  -0.076365  0  3.955077  0  0.050787  0  -0.068542  -0.083849  0  3.926695  0
C  C73  1  0.78496735  0.81668678  0.92762608  1  0  -0.065936  0  3.75291  0  0  -0.038887  0  3.991775  0  0  -0.048936  0  4.01458  0  -0.039376  0  -0.01617  -0.032689  0  3.977007  0
C  C74  1  0.21503356  0.18331375  0.07237286  1  0  -0.065831  0  3.752807  0  0  -0.03879  0  3.991695  0  0  -0.048835  0  4.014493  0  -0.039383  0  -0.016161  -0.03259  0  3.976921  0
C  C75  1  0.26727440  0.57788657  0.50286072  1  0  0.566213  0  3.804664  0  0  0.515227  0  4.09302  0  0  0.545203  0  4.093377  0  1.406946  0  0.25376  0.495021  0  4.092296  0
C  C76  1  0.73272916  0.42211278  0.49713841  1  0  0.566444  0  3.804405  0  0  0.515364  0  4.092878  0  0  0.545341  0  4.093231  0  1.407413  0  0.253833  0.495158  0  4.092156  0
S  S77  1  0.69080102  0.01452944  0.67758354  1  0  1.307563  0  5.662122  0  0  1.210531  0  6.186123  0  0  1.258452  0  6.162183  0  3.184616  0  0.503091  1.177489  0  6.201289  0
S  S78  1  0.30920091  0.98547109  0.32241517  1  0  1.307694  0  5.661821  0  0  1.210641  0  6.185809  0  0  1.258565  0  6.161874  0  3.184573  0  0.5031  1.177599  0  6.200977  0
N  N79  1  0.27294654  0.61400515  0.40774326  1  0  -0.432486  0  3.339135  0  0  -0.373206  0  3.569007  0  0  -0.397135  0  3.581725  0  -1.277112  0  -0.382355  -0.357055  0  3.560072  0
N  N80  1  0.72705334  0.38599538  0.59225659  1  0  -0.432647  0  3.33908  0  0  -0.373347  0  3.568996  0  0  -0.397277  0  3.581713  0  -1.277397  0  -0.382417  -0.357196  0  3.560062  0
N  N81  1  0.17319640  0.59706473  0.18582403  1  0  -0.323865  0  3.321142  0  0  -0.240692  0  3.585926  0  0  -0.261493  0  3.607673  0  -1.24596  0  -0.330649  -0.22584  0  3.570291  0
N  N82  1  0.82680553  0.40293580  0.81417538  1  0  -0.323952  0  3.321191  0  0  -0.240759  0  3.585974  0  0  -0.261559  0  3.607722  0  -1.246189  0  -0.330671  -0.225912  0  3.570343  0
N  N83  1  0.41728028  0.82484825  0.57162686  1  0  -0.345861  0  3.25301  0  0  -0.262904  0  3.519001  0  0  -0.284629  0  3.53763  0  -1.242145  0  -0.329388  -0.247703  0  3.506094  0
N  N84  1  0.58272080  0.17514992  0.42837499  1  0  -0.345846  0  3.252949  0  0  -0.262854  0  3.518951  0  0  -0.284586  0  3.537591  0  -1.242155  0  -0.32939  -0.247652  0  3.506037  0
O  O85  1  0.34604556  0.51371073  0.91818730  1  0  -0.828927  0  1.84624  0  0  -0.772931  0  2.042393  0  0  -0.793914  0  2.012576  0  -1.23328  0  -0.578999  -0.757948  0  2.063591  0
O  O86  1  0.65395141  0.48628744  0.08181191  1  0  -0.828886  0  1.846336  0  0  -0.77289  0  2.042484  0  0  -0.793875  0  2.012671  0  -1.233277  0  -0.578959  -0.757909  0  2.063683  0
O  O87  1  0.74743787  0.79554426  0.39917333  1  0  -0.820057  0  1.808717  0  0  -0.764557  0  1.98875  0  0  -0.78457  0  1.961383  0  -1.226738  0  -0.57495  -0.750291  0  2.008891  0
O  O88  1  0.25256115  0.20445392  0.60082825  1  0  -0.819951  0  1.808893  0  0  -0.76452  0  1.988787  0  0  -0.784539  0  1.961409  0  -1.22672  0  -0.574902  -0.750255  0  2.00893  0
O  O89  1  0.59529458  0.97909722  0.63398827  1  0  -0.730396  0  2.051387  0  0  -0.667108  0  2.335802  0  0  -0.690786  0  2.317474  0  -1.341738  0  -0.363827  -0.650082  0  2.347834  0
O  O90  1  0.40469945  0.02091274  0.36601298  1  0  -0.730472  0  2.051319  0  0  -0.66716  0  2.335756  0  0  -0.690836  0  2.317425  0  -1.341737  0  -0.363771  -0.650133  0  2.347789  0
O  O91  1  0.96678478  0.95601626  0.14014513  1  0  -0.83335  0  1.834257  0  0  -0.777318  0  2.022339  0  0  -0.799635  0  1.990212  0  -1.240674  0  -0.594652  -0.761756  0  2.044886  0
O  O92  1  0.03321425  0.04398191  0.85985505  1  0  -0.833338  0  1.834297  0  0  -0.777287  0  2.022341  0  0  -0.799605  0  1.990214  0  -1.24067  0  -0.594621  -0.761723  0  2.044888  0
O  O93  1  0.28146805  0.87911272  0.93862535  1  0  -0.648118  0  2.004109  0  0  -0.583295  0  2.239802  0  0  -0.610913  0  2.231132  0  -1.190532  0  -0.31597  -0.563209  0  2.246097  0
O  O94  1  0.71853413  0.12089134  0.06137239  1  0  -0.64816  0  2.00409  0  0  -0.583314  0  2.239764  0  0  -0.610934  0  2.231096  0  -1.190577  0  -0.315991  -0.563197  0  2.245993  0
O  O95  1  0.90841797  0.69565874  0.05452417  1  0  -0.616883  0  1.879083  0  0  -0.569468  0  2.097211  0  0  -0.593457  0  2.08817  0  -1.173826  0  -0.32973  -0.552054  0  2.10257  0
O  O96  1  0.09158208  0.30433943  0.94547649  1  0  -0.616855  0  1.879142  0  0  -0.569425  0  2.097266  0  0  -0.593413  0  2.088227  0  -1.173788  0  -0.32971  -0.552012  0  2.102626  0
O  O97  1  0.85960763  0.93462510  0.62316383  1  0  -0.642792  0  1.861307  0  0  -0.604509  0  2.083797  0  0  -0.623026  0  2.070591  0  -1.335697  0  -0.360561  -0.591428  0  2.092278  0
O  O98  1  0.14039285  0.06537425  0.37683457  1  0  -0.642865  0  1.861178  0  0  -0.604578  0  2.08368  0  0  -0.623093  0  2.070473  0  -1.335642  0  -0.360618  -0.591495  0  2.092161  0
O  O99  1  0.61796335  0.18609945  0.69886647  1  0  -0.671116  0  1.9378  0  0  -0.619822  0  2.172865  0  0  -0.639897  0  2.158043  0  -1.330204  0  -0.350195  -0.605443  0  2.182403  0
O  O100  1  0.38204021  0.81389991  0.30113477  1  0  -0.671103  0  1.9377  0  0  -0.619813  0  2.172774  0  0  -0.639883  0  2.157948  0  -1.330193  0  -0.350198  -0.605445  0  2.182318  0
O  O101  1  0.40439241  0.72594668  0.04451262  1  0  -0.649866  0  2.003165  0  0  -0.576043  0  2.233623  0  0  -0.606059  0  2.224516  0  -1.180902  0  -0.31726  -0.55431  0  2.238901  0
O  O102  1  0.59560481  0.27405502  0.95548773  1  0  -0.649865  0  2.003113  0  0  -0.576069  0  2.233597  0  0  -0.606084  0  2.224489  0  -1.180942  0  -0.31728  -0.554338  0  2.238875  0
O  O103  1  0.22196804  0.48579488  0.54394845  1  0  -0.581077  0  2.019667  0  0  -0.527497  0  2.246215  0  0  -0.550569  0  2.240324  0  -1.167739  0  -0.284493  -0.511114  0  2.249913  0
O  O104  1  0.77803346  0.51420448  0.45604901  1  0  -0.581162  0  2.019594  0  0  -0.527513  0  2.246184  0  0  -0.550581  0  2.240292  0  -1.167783  0  -0.28451  -0.511133  0  2.249884  0
O  O105  1  0.02999594  0.78638116  0.92951991  1  0  -0.68723  0  2.075088  0  0  -0.606918  0  2.313431  0  0  -0.638524  0  2.304456  0  -1.178195  0  -0.33529  -0.584092  0  2.31978  0
O  O106  1  0.97000249  0.21361819  0.07047963  1  0  -0.687244  0  2.07508  0  0  -0.606926  0  2.313426  0  0  -0.638533  0  2.304454  0  -1.178241  0  -0.33534  -0.584102  0  2.319774  0
