# generated using pymatgen
data_Zn8H58C61O31
_symmetry_space_group_name_H-M   'P 1'
_cell_length_a   18.38387423
_cell_length_b   18.55739378
_cell_length_c   18.69294868
_cell_angle_alpha   119.97417245
_cell_angle_beta   90.58890656
_cell_angle_gamma   119.27844822
_symmetry_Int_Tables_number   1
_chemical_formula_structural   Zn8H58C61O31
_chemical_formula_sum   'Zn8 H58 C61 O31'
_cell_volume   4536.74912203
_cell_formula_units_Z   1
loop_
 _symmetry_equiv_pos_site_id
 _symmetry_equiv_pos_as_xyz
  1  'x, y, z'
loop_
 _atom_site_type_symbol
 _atom_site_label
 _atom_site_symmetry_multiplicity
 _atom_site_fract_x
 _atom_site_fract_y
 _atom_site_fract_z
 _atom_site_occupancy
 _atom_site_pbe_bader_charge
 _atom_site_pbe_bader_spin_density
 _atom_site_pbe_cm5_charge
 _atom_site_pbe_ddec_charge
 _atom_site_pbe_ddec_spin_density
 _atom_site_pbe_ddec_sum_bond_order
 _atom_site_pbe_magmom
Zn  Zn0  1  0.13391613  0.58536423  0.04172268  1  1.30941  0  0.671079  0.971145  0  2.343724  0
Zn  Zn1  1  0.95392016  0.41217447  0.87551850  1  1.311517  0  0.669368  0.954249  0  2.392601  0
Zn  Zn2  1  0.96164041  0.58887295  0.04904084  1  1.304604  0  0.671651  0.961276  0  2.400704  0
Zn  Zn3  1  0.95964445  0.41353786  0.04471065  1  1.315817  0  0.667574  0.960398  0  2.38018  0
Zn  Zn4  1  0.37252600  0.41381238  0.45649553  1  1.303284  0  0.670824  0.952426  0  2.396704  0
Zn  Zn5  1  0.54516842  0.41418186  0.45646221  1  1.307359  0  0.667544  0.962927  0  2.388859  0
Zn  Zn6  1  0.54503010  0.59124849  0.63105379  1  1.308232  0  0.669939  0.970905  0  2.335477  0
Zn  Zn7  1  0.54455999  0.58476920  0.45698349  1  1.313986  0  0.669626  0.949578  0  2.415967  0
H  H8  1  0.34683784  0.08235992  0.26722382  1  0.074288  0  0.114141  0.133001  0  0.98231  0
H  H9  1  0.81731709  0.07931598  0.84714472  1  0.099147  0  0.113069  0.13214  0  0.98201  0
H  H10  1  0.74693216  0.64599737  0.80756389  1  0.134109  0  0.117637  0.129313  0  0.970678  0
H  H11  1  0.75175092  0.42740913  0.75413205  1  0.096959  0  0.114924  0.149702  0  0.987229  0
H  H12  1  0.39820775  0.58302301  0.80279157  1  0.102438  0  0.107711  0.125979  0  0.996197  0
H  H13  1  0.09326072  0.17040030  0.98293705  1  0.065674  0  0.107463  0.118864  0  0.989859  0
H  H14  1  0.28771594  0.32013989  0.22535955  1  0.074384  0  0.106564  0.1279  0  1.009079  0
H  H15  1  0.40304486  0.67937204  0.46924252  1  0.061678  0  0.101851  0.106326  0  1.010963  0
H  H16  1  0.39991211  0.82855436  0.52562670  1  0.064209  0  0.102991  0.098893  0  0.99067  0
H  H17  1  0.21407755  0.68085349  0.27729301  1  0.05605  0  0.101116  0.104145  0  1.009322  0
H  H18  1  0.19074119  0.09206692  0.31649907  1  0.092822  0  0.113373  0.110609  0  0.979595  0
H  H19  1  0.09764102  0.90623346  0.20456426  1  0.092765  0  0.111245  0.10797  0  0.992193  0
H  H20  1  0.30542192  0.82988907  0.42961875  1  0.048154  0  0.10188  0.098178  0  0.993965  0
H  H21  1  0.69595792  0.59948152  0.28911039  1  0.104314  0  0.114397  0.112036  0  0.979536  0
H  H22  1  0.81445297  0.86673157  0.58076703  1  0.032953  0  0.097367  0.059652  0  0.974182  0
H  H23  1  0.86621469  0.98692165  0.59706627  1  0.034381  0  0.094367  0.051786  0  0.992417  0
H  H24  1  0.72395320  0.78040341  0.42799978  1  0.036326  0  0.097895  0.099386  0  0.97076  0
H  H25  1  0.77633157  0.89820630  0.44211593  1  0.028303  0  0.094012  0.08741  0  0.973003  0
H  H26  1  0.92512481  0.92177858  0.46851906  1  0.015858  0  0.085351  0.110267  0  1.003954  0
H  H27  1  0.84783390  0.80996988  0.36419232  1  0.014583  0  0.087726  0.114965  0  1.003916  0
H  H28  1  0.87069960  0.80170911  0.45126035  1  0.016337  0  0.084795  0.109244  0  1.007543  0
H  H29  1  0.71779055  0.44883886  0.65214062  1  0.066743  0  0.112028  0.131047  0  0.985794  0
H  H30  1  0.27068085  0.91889210  0.22810079  1  0.113006  0  0.113285  0.132594  0  0.983123  0
H  H31  1  0.97101812  0.82341484  0.95531041  1  0.059969  0  0.103688  0.069721  0  0.999372  0
H  H32  1  0.91967314  0.74314392  0.83892342  1  0.037424  0  0.096028  0.055926  0  0.987905  0
H  H33  1  0.03873784  0.73173347  0.94371133  1  0.039368  0  0.092513  0.091719  0  0.976438  0
H  H34  1  0.98529976  0.64752872  0.82861446  1  0.042347  0  0.09041  0.084477  0  0.980893  0
H  H35  1  0.07149473  0.79429173  0.81537406  1  0.009487  0  0.085771  0.109387  0  1.003224  0
H  H36  1  0.14261546  0.78039012  0.86419020  1  0.031372  0  0.092791  0.12311  0  0.992464  0
H  H37  1  0.12760838  0.87787739  0.93050823  1  0.021167  0  0.084514  0.10687  0  1.023801  0
H  H38  1  0.11362107  0.42748447  0.56010431  1  0.044459  0  0.102745  0.063928  0  0.982685  0
H  H39  1  0.18549053  0.39188737  0.51614824  1  0.075005  0  0.101437  0.075943  0  1.00124  0
H  H40  1  0.22240406  0.60301797  0.60418012  1  0.015016  0  0.090908  0.085366  0  0.97012  0
H  H41  1  0.73427496  0.46689226  0.31259375  1  0.07764  0  0.112664  0.13117  0  0.984988  0
H  H42  1  0.29299813  0.56817363  0.55736920  1  0.021882  0  0.085992  0.079824  0  0.997  0
H  H43  1  0.17434464  0.43784249  0.40922419  1  0.044656  0  0.084143  0.116453  0  1.013969  0
H  H44  1  0.19722990  0.55861869  0.45085368  1  0.042137  0  0.084922  0.116845  0  1.021139  0
H  H45  1  0.10063354  0.46859624  0.45420768  1  0.01335  0  0.08268  0.105417  0  1.005548  0
H  H46  1  0.30556356  0.60695975  0.89818280  1  0.110157  0  0.108163  0.124249  0  0.990635  0
H  H47  1  0.07076530  0.31848478  0.60130154  1  0.033281  0  0.096824  0.057828  0  1.000661  0
H  H48  1  0.03497724  0.37693808  0.68746244  1  0.041846  0  0.09991  0.067407  0  0.992171  0
H  H49  1  0.02668752  0.18473763  0.62569006  1  0.0171  0  0.087982  0.080498  0  0.976899  0
H  H50  1  0.98805102  0.24012136  0.70955526  1  0.045724  0  0.087455  0.088959  0  1.004187  0
H  H51  1  0.87691157  0.21109782  0.60003206  1  0.03309  0  0.08682  0.115099  0  0.997473  0
H  H52  1  0.81235878  0.62149411  0.21893883  1  0.083601  0  0.112268  0.109032  0  0.983023  0
H  H53  1  0.86093778  0.09499931  0.56582220  1  0.041877  0  0.083885  0.109195  0  1.034526  0
H  H54  1  0.91523040  0.15594560  0.51542678  1  0.016731  0  0.082832  0.105486  0  1.006972  0
H  H55  1  0.11627838  0.00450624  0.02321507  1  0.049971  0  0.100806  0.066062  0  0.995358  0
H  H56  1  0.05242349  0.05299038  0.02556127  1  0.036217  0  0.0933  0.050049  0  0.98654  0
H  H57  1  0.16927050  0.10780912  0.18727739  1  0.023295  0  0.087781  0.083018  0  1.001523  0
H  H58  1  0.10647956  0.15640254  0.19049675  1  0.052481  0  0.092682  0.08999  0  0.977081  0
H  H59  1  0.96483713  0.97824125  0.10684869  1  0.022858  0  0.087651  0.113626  0  0.999371  0
H  H60  1  0.02421578  0.01474615  0.20725753  1  0.024282  0  0.088512  0.116091  0  0.999699  0
H  H61  1  0.02845340  0.93078921  0.10714938  1  0.019685  0  0.085188  0.109479  0  1.018771  0
H  H62  1  0.76982822  0.42291105  0.18671841  1  0.10213  0  0.113604  0.132132  0  0.98301  0
H  H63  1  0.68688472  0.92157987  0.75651312  1  0.105997  0  0.111671  0.146101  0  0.992917  0
H  H64  1  0.79878063  0.09889334  0.69430623  1  0.112485  0  0.117833  0.130598  0  0.982545  0
H  H65  1  0.09706904  0.32420460  0.03762698  1  0.063114  0  0.102876  0.107395  0  1.006599  0
C  C66  1  0.87142153  0.22529007  0.86779583  1  1.619286  0  0.217715  0.639006  0  4.18202  0
C  C67  1  0.35937076  0.76207626  0.45839895  1  -0.066141  0  -0.092582  -0.082876  0  4.046904  0
C  C68  1  0.30576966  0.76284839  0.40388323  1  -0.023886  0  -0.095683  -0.090478  0  4.057417  0
C  C69  1  0.14209522  0.77484040  0.14350069  1  1.520342  0  0.217989  0.637423  0  4.192357  0
C  C70  1  0.25469228  0.67969289  0.31909410  1  -0.023733  0  -0.091278  -0.126661  0  3.986099  0
C  C71  1  0.22342885  0.05478147  0.28476086  1  -0.036032  0  -0.065087  -0.022416  0  3.978691  0
C  C72  1  0.31048450  0.11419632  0.29874652  1  -0.018903  0  -0.083886  -0.222206  0  3.870852  0
C  C73  1  0.16937030  0.94488728  0.22843846  1  0.015082  0  -0.066265  -0.021358  0  3.972544  0
C  C74  1  0.20048286  0.88657375  0.20398775  1  -0.042903  0  -0.08698  -0.22677  0  3.873094  0
C  C75  1  0.72476701  0.55711119  0.27896770  1  -0.081489  0  -0.06401  -0.017667  0  3.97116  0
C  C76  1  0.70539800  0.50760824  0.31718917  1  -0.001565  0  -0.0859  -0.226547  0  3.879629  0
C  C77  1  0.24710176  0.32347824  0.18594949  1  0.051735  0  -0.103244  -0.252684  0  3.953183  0
C  C78  1  0.78251955  0.55954713  0.22671749  1  0.004972  0  -0.064107  -0.019072  0  3.973226  0
C  C79  1  0.80029278  0.48924062  0.18526250  1  -0.060976  0  -0.086641  -0.22588  0  3.877228  0
C  C80  1  0.73405264  0.94807060  0.66411869  1  0.500896  0  0.101226  0.299057  0  4.054032  0
C  C81  1  0.13511892  0.48730184  0.86329794  1  1.530067  0  0.215829  0.548559  0  4.210512  0
C  C82  1  0.68667831  0.88659469  0.68921948  1  0.025151  0  -0.105366  -0.357339  0  3.840627  0
C  C83  1  0.78722675  0.05854552  0.72458449  1  -0.06576  0  -0.06967  -0.116261  0  3.951888  0
C  C84  1  0.82253724  0.11362045  0.81244817  1  -0.056799  0  -0.086412  -0.210069  0  3.888019  0
C  C85  1  0.75448083  0.58323772  0.77512603  1  -0.145702  0  -0.069432  -0.112682  0  3.970531  0
C  C86  1  0.70961172  0.51052154  0.68882810  1  0.072693  0  -0.09181  -0.220305  0  3.909  0
C  C87  1  0.81182804  0.58520916  0.83195411  1  0.522289  0  0.092424  0.28304  0  4.067558  0
C  C88  1  0.25058070  0.41356628  0.22064987  1  -0.057946  0  0.000197  0.083217  0  3.994829  0
C  C89  1  0.80254334  0.50019508  0.81426699  1  0.004261  0  -0.10185  -0.350684  0  3.84031  0
C  C90  1  0.32831563  0.54827676  0.77356241  1  0.066043  0  -0.106407  -0.171063  0  4.01445  0
C  C91  1  0.30236834  0.51572751  0.68818489  1  0.478749  0  0.081562  0.103134  0  4.002504  0
C  C92  1  0.27385807  0.54672584  0.82803253  1  0.020648  0  -0.096529  -0.13926  0  4.007128  0
C  C93  1  0.86114966  0.49571705  0.13437236  1  1.550195  0  0.218736  0.641853  0  4.185626  0
C  C94  1  0.18588034  0.47327796  0.80171354  1  0.489083  0  0.069051  0.076748  0  4.038765  0
C  C95  1  0.64423529  0.50462479  0.36781863  1  1.549938  0  0.21712  0.636569  0  4.19847  0
C  C96  1  0.36318374  0.50858694  0.63653029  1  1.568471  0  0.220873  0.551594  0  4.21417  0
C  C97  1  0.36348512  0.22594998  0.35737686  1  1.524364  0  0.219319  0.638825  0  4.188559  0
C  C98  1  0.63501708  0.77529801  0.63491690  1  1.51844  0  0.214589  0.659176  0  4.181337  0
C  C99  1  0.19534213  0.41431421  0.16580278  1  0.054335  0  -0.003868  0.048175  0  3.983705  0
C  C100  1  0.64620640  0.50774044  0.63645108  1  1.537589  0  0.219007  0.646852  0  4.173756  0
C  C101  1  0.36288726  0.50097162  0.36334581  1  1.548915  0  0.234023  0.622216  0  4.157183  0
C  C102  1  0.85965976  0.49853587  0.86865251  1  1.524384  0  0.222093  0.670769  0  4.173152  0
C  C103  1  0.14187201  0.50338981  0.14094903  1  1.576743  0  0.232651  0.621444  0  4.178641  0
C  C104  1  0.13888474  0.32436629  0.07956271  1  -0.010705  0  -0.087792  -0.10261  0  3.989566  0
C  C105  1  0.13601944  0.23844931  0.04903868  1  -0.054645  0  -0.098534  -0.192962  0  4.016666  0
C  C106  1  0.19110277  0.23837638  0.10314388  1  0.454436  0  0.077622  0.260753  0  4.089515  0
C  C107  1  0.80558858  0.90871178  0.55965358  1  0.407017  0  -0.062647  0.041586  0  3.897366  0
C  C108  1  0.78657210  0.85592588  0.46160822  1  0.015365  0  -0.165619  -0.133258  0  3.979728  0
C  C109  1  0.86173698  0.84698224  0.43514483  1  -0.040669  0  -0.241965  -0.351986  0  3.982378  0
C  C110  1  0.30590311  0.50158791  0.30613592  1  -0.00486  0  -0.010257  -0.130447  0  3.903399  0
C  C111  1  0.94501432  0.74777763  0.89601107  1  0.386864  0  -0.064877  0.030009  0  3.888215  0
C  C112  1  0.01577387  0.72630311  0.88546728  1  -0.022009  0  -0.171228  -0.137851  0  3.978106  0
C  C113  1  0.09349509  0.79871178  0.87325180  1  -0.050641  0  -0.240858  -0.349258  0  3.977731  0
C  C114  1  0.18311658  0.45522278  0.56554914  1  0.397064  0  -0.068496  0.022925  0  3.895953  0
C  C115  1  0.22334004  0.53940528  0.55209753  1  0.009598  0  -0.170405  -0.134619  0  3.983944  0
C  C116  1  0.17087294  0.49885575  0.46158783  1  -0.08444  0  -0.245978  -0.351086  0  3.964452  0
C  C117  1  0.06056215  0.32976305  0.66300063  1  0.433566  0  -0.067457  0.03914  0  3.881623  0
C  C118  1  0.99678044  0.22775961  0.64727591  1  0.002239  0  -0.175217  -0.142616  0  3.995999  0
C  C119  1  0.90773418  0.16921036  0.57838317  1  -0.102747  0  -0.244121  -0.351418  0  3.982478  0
C  C120  1  0.11210075  0.06952387  0.06278206  1  0.402055  0  -0.067252  0.035977  0  3.907824  0
C  C121  1  0.30838393  0.59004720  0.33935580  1  0.05812  0  0.0013  0.064409  0  3.981436  0
C  C122  1  0.10779046  0.08908042  0.15157196  1  -0.01765  0  -0.173245  -0.142859  0  3.980434  0
C  C123  1  0.02701067  0.99825698  0.14251875  1  -0.069792  0  -0.242563  -0.352572  0  3.981044  0
C  C124  1  0.25368678  0.59084366  0.28412330  1  0.01996  0  -0.002398  0.054749  0  3.982037  0
C  C125  1  0.19916446  0.50318873  0.19850650  1  -0.092728  0  -0.003097  -0.104434  0  3.900982  0
C  C126  1  0.36086825  0.67848111  0.42703147  1  -0.040343  0  -0.0906  -0.129387  0  3.984016  0
O  O127  1  0.00378441  0.50123510  0.00389086  1  -1.220334  0  -0.574581  -1.032394  0  2.546339  0
O  O128  1  0.60447867  0.73478419  0.67617450  1  -1.16337  0  -0.325935  -0.558676  0  2.270282  0
O  O129  1  0.61150086  0.43442688  0.55492007  1  -1.170475  0  -0.322297  -0.551643  0  2.295015  0
O  O130  1  0.90507986  0.26971766  0.95008410  1  -1.168666  0  -0.319477  -0.549475  0  2.281025  0
O  O131  1  0.44625090  0.56402825  0.38808574  1  -1.165513  0  -0.307255  -0.536324  0  2.337852  0
O  O132  1  0.63097754  0.57586881  0.67509995  1  -1.16633  0  -0.320443  -0.557899  0  2.298758  0
O  O133  1  0.32348145  0.43776603  0.38274464  1  -1.160772  0  -0.307901  -0.544454  0  2.34053  0
O  O134  1  0.32280229  0.26855256  0.38626017  1  -1.175818  0  -0.317612  -0.550324  0  2.31519  0
O  O135  1  0.62466786  0.72757309  0.55319409  1  -1.175204  0  -0.317899  -0.549934  0  2.360161  0
O  O136  1  0.62775248  0.44878386  0.39486275  1  -1.157183  0  -0.320227  -0.550305  0  2.292159  0
O  O137  1  0.44630150  0.56594694  0.67826650  1  -1.169114  0  -0.314961  -0.537394  0  2.340346  0
O  O138  1  0.17736443  0.56660600  0.94264008  1  -1.177914  0  -0.321465  -0.544511  0  2.337907  0
O  O139  1  0.18115495  0.72984750  0.12599640  1  -1.170084  0  -0.31838  -0.549002  0  2.286696  0
O  O140  1  0.05184120  0.41854980  0.83164170  1  -1.182678  0  -0.314216  -0.541817  0  2.413472  0
O  O141  1  0.89719321  0.57027323  0.12811019  1  -1.175335  0  -0.319931  -0.555091  0  2.315124  0
O  O142  1  0.88249587  0.43788846  0.82593514  1  -1.158687  0  -0.325775  -0.560931  0  2.275472  0
O  O143  1  0.05945539  0.45387018  0.12973360  1  -1.15528  0  -0.31207  -0.543984  0  2.320588  0
O  O144  1  0.88053613  0.55501982  0.95149381  1  -1.144068  0  -0.312743  -0.544424  0  2.342166  0
O  O145  1  0.18036519  0.55227488  0.10855387  1  -1.15859  0  -0.309088  -0.541081  0  2.304945  0
O  O146  1  0.73023970  0.91065429  0.57886762  1  -1.068781  0  -0.198526  -0.231425  0  2.508692  0
O  O147  1  0.87265038  0.67825485  0.90804679  1  -1.063639  0  -0.199379  -0.228763  0  2.482135  0
O  O148  1  0.22030572  0.48646900  0.65249722  1  -1.068917  0  -0.170847  -0.168729  0  2.63049  0
O  O149  1  0.87247812  0.42413519  0.10068799  1  -1.156685  0  -0.320658  -0.549342  0  2.288446  0
O  O150  1  0.14746120  0.38248907  0.72269013  1  -1.064865  0  -0.186421  -0.186059  0  2.588682  0
O  O151  1  0.19092003  0.15310101  0.07103171  1  -1.0717  0  -0.216173  -0.255537  0  2.465518  0
O  O152  1  0.87587496  0.26811105  0.83018032  1  -1.183091  0  -0.317337  -0.550025  0  2.325872  0
O  O153  1  0.05896187  0.73269341  0.11356542  1  -1.163607  0  -0.319143  -0.556204  0  2.327046  0
O  O154  1  0.50180374  0.50101573  0.50166910  1  -1.209947  0  -0.573207  -1.029498  0  2.544324  0
O  O155  1  0.61298310  0.55654548  0.38038963  1  -1.177181  0  -0.317411  -0.549428  0  2.330189  0
O  O156  1  0.32586690  0.44244573  0.55353852  1  -1.183613  0  -0.313317  -0.536325  0  2.405937  0
O  O157  1  0.44720752  0.27056731  0.37388301  1  -1.171338  0  -0.319083  -0.549328  0  2.29325  0
