# generated using pymatgen
data_CdH16C21NO7
_symmetry_space_group_name_H-M   'P 1'
_cell_length_a   9.19218081
_cell_length_b   9.92866915
_cell_length_c   12.16314964
_cell_angle_alpha   108.19584975
_cell_angle_beta   93.98031609
_cell_angle_gamma   102.80612451
_symmetry_Int_Tables_number   1
_chemical_formula_structural   CdH16C21NO7
_chemical_formula_sum   'Cd2 H32 C42 N2 O14'
_cell_volume   1016.76181707
_cell_formula_units_Z   2
loop_
 _symmetry_equiv_pos_site_id
 _symmetry_equiv_pos_as_xyz
  1  'x, y, z'
loop_
 _atom_site_type_symbol
 _atom_site_label
 _atom_site_symmetry_multiplicity
 _atom_site_fract_x
 _atom_site_fract_y
 _atom_site_fract_z
 _atom_site_occupancy
 _atom_site_hle17_bader_spin_density
 _atom_site_hle17_ddec_charge
 _atom_site_hle17_ddec_spin_density
 _atom_site_hle17_ddec_sum_bond_order
 _atom_site_hle17_magmom
 _atom_site_hse06_10hf_bader_spin_density
 _atom_site_hse06_10hf_ddec_charge
 _atom_site_hse06_10hf_ddec_spin_density
 _atom_site_hse06_10hf_ddec_sum_bond_order
 _atom_site_hse06_10hf_magmom
 _atom_site_hse06_bader_spin_density
 _atom_site_hse06_ddec_charge
 _atom_site_hse06_ddec_spin_density
 _atom_site_hse06_ddec_sum_bond_order
 _atom_site_hse06_magmom
 _atom_site_pbe_bader_spin_density
 _atom_site_pbe_cm5_charge
 _atom_site_pbe_ddec_charge
 _atom_site_pbe_ddec_spin_density
 _atom_site_pbe_ddec_sum_bond_order
 _atom_site_pbe_magmom
Cd  Cd0  1  0.51082129  0.50110436  0.25987115  1  0  1.210985  0  1.539343  0  0  1.037145  0  1.970229  0  0  1.100698  0  1.908258  0  0  0.757048  0.991408  0  2.013802  0
Cd  Cd1  1  0.48917376  0.49889717  0.74012808  1  0  1.211063  0  1.539312  0  0  1.037223  0  1.9702  0  0  1.100774  0  1.908224  0  0  0.757086  0.991484  0  2.013783  0
H  H2  1  0.50071166  0.25975728  0.29605773  1  0  0.407741  0  0.909171  0  0  0.373925  0  0.97858  0  0  0.386245  0  0.961064  0  0  0.275958  0.365391  0  0.990635  0
H  H3  1  0.49929147  0.74024204  0.70393880  1  0  0.407769  0  0.909129  0  0  0.373976  0  0.978496  0  0  0.386295  0  0.960981  0  0  0.276  0.365443  0  0.990549  0
H  H4  1  0.58491174  0.35662590  0.42813025  1  0  0.436432  0  0.859582  0  0  0.406466  0  0.920115  0  0  0.418461  0  0.902774  0  0  0.285296  0.397819  0  0.932673  0
H  H5  1  0.41509284  0.64337892  0.57186615  1  0  0.43649  0  0.859489  0  0  0.406502  0  0.920072  0  0  0.418499  0  0.902729  0  0  0.285293  0.397852  0  0.932638  0
H  H6  1  0.73451440  0.37259163  0.90702874  1  0  0.108424  0  0.964997  0  0  0.115479  0  1.03076  0  0  0.11931  0  1.028169  0  0  0.103186  0.112486  0  1.033469  0
H  H7  1  0.26548178  0.62740542  0.09297841  1  0  0.108347  0  0.965103  0  0  0.115425  0  1.030813  0  0  0.119255  0  1.028223  0  0  0.103189  0.112438  0  1.033524  0
H  H8  1  0.05662572  0.65267241  0.21105112  1  0  0.098626  0  0.947273  0  0  0.107034  0  1.008989  0  0  0.110561  0  1.007302  0  0  0.101402  0.10471  0  1.009981  0
H  H9  1  0.94337370  0.34732464  0.78895452  1  0  0.09861  0  0.947254  0  0  0.107054  0  1.008947  0  0  0.110584  0  1.007259  0  0  0.101385  0.104728  0  1.009939  0
H  H10  1  0.52437471  0.22878780  0.96642556  1  0  0.141672  0  0.968986  0  0  0.148749  0  1.027153  0  0  0.153224  0  1.024566  0  0  0.122269  0.145532  0  1.028961  0
H  H11  1  0.47562695  0.77121810  0.03357429  1  0  0.141692  0  0.969008  0  0  0.148759  0  1.027166  0  0  0.153229  0  1.024586  0  0  0.122282  0.145545  0  1.028975  0
H  H12  1  0.13127421  0.77268090  0.76140427  1  0  0.110502  0  0.898516  0  0  0.124409  0  0.948003  0  0  0.126755  0  0.946247  0  0  0.14338  0.12278  0  0.948981  0
H  H13  1  0.86873173  0.22731611  0.23860083  1  0  0.110446  0  0.898679  0  0  0.124378  0  0.948108  0  0  0.126724  0  0.946355  0  0  0.143382  0.122796  0  0.949028  0
H  H14  1  0.25013327  0.77347962  0.56554993  1  0  0.102117  0  0.968499  0  0  0.111027  0  1.034141  0  0  0.114614  0  1.031225  0  0  0.102869  0.108349  0  1.036352  0
H  H15  1  0.74986803  0.22652077  0.43445010  1  0  0.10214  0  0.968542  0  0  0.111054  0  1.034167  0  0  0.11464  0  1.031251  0  0  0.102887  0.108377  0  1.03638  0
H  H16  1  0.07769545  0.25889609  0.00616725  1  0  0.098365  0  0.984461  0  0  0.104895  0  1.052288  0  0  0.106977  0  1.053113  0  0  0.097841  0.103302  0  1.052196  0
H  H17  1  0.92230925  0.74110102  0.99382794  1  0  0.098335  0  0.984486  0  0  0.10486  0  1.052328  0  0  0.106942  0  1.053153  0  0  0.097831  0.103267  0  1.05224  0
H  H18  1  0.07821538  0.08799391  0.71208778  1  0  0.110666  0  0.912806  0  0  0.122863  0  0.976853  0  0  0.124576  0  0.975573  0  0  0.124551  0.121596  0  0.977678  0
H  H19  1  0.92178153  0.91200207  0.28791502  1  0  0.11065  0  0.912768  0  0  0.122834  0  0.976858  0  0  0.124544  0  0.975582  0  0  0.12456  0.121568  0  0.977684  0
H  H20  1  0.01953804  0.89338492  0.67048623  1  0  0.093592  0  0.917538  0  0  0.108981  0  0.976886  0  0  0.109822  0  0.976543  0  0  0.120903  0.108354  0  0.976997  0
H  H21  1  0.98046367  0.10660887  0.32951290  1  0  0.093613  0  0.917516  0  0  0.109025  0  0.976862  0  0  0.109864  0  0.976517  0  0  0.120938  0.108399  0  0.976977  0
H  H22  1  0.15225042  0.91566635  0.12962255  1  0  0.098926  0  0.95507  0  0  0.108024  0  1.019331  0  0  0.111076  0  1.018222  0  0  0.101357  0.105807  0  1.020257  0
H  H23  1  0.84775395  0.08432969  0.87036988  1  0  0.098915  0  0.954896  0  0  0.108006  0  1.019192  0  0  0.111061  0  1.018084  0  0  0.10135  0.105788  0  1.020117  0
H  H24  1  0.32729467  0.20981770  0.80818760  1  0  0.120852  0  0.95519  0  0  0.12681  0  1.018279  0  0  0.129848  0  1.015598  0  0  0.134356  0.124395  0  1.020525  0
H  H25  1  0.67270789  0.79017940  0.19180997  1  0  0.12088  0  0.955182  0  0  0.126843  0  1.018263  0  0  0.129872  0  1.015604  0  0  0.134365  0.12443  0  1.020508  0
H  H26  1  0.15601476  0.18074437  0.56797682  1  0  0.109659  0  0.948089  0  0  0.121816  0  1.004442  0  0  0.125019  0  1.002478  0  0  0.106293  0.119457  0  1.006137  0
H  H27  1  0.84397972  0.81925496  0.43202346  1  0  0.10965  0  0.948106  0  0  0.121845  0  1.004413  0  0  0.125049  0  1.002449  0  0  0.106317  0.119487  0  1.006108  0
H  H28  1  0.32294768  0.76871661  0.91288340  1  0  0.130014  0  0.980307  0  0  0.136184  0  1.04005  0  0  0.139533  0  1.039628  0  0  0.119118  0.133517  0  1.04104  0
H  H29  1  0.67705598  0.23128811  0.08712361  1  0  0.129923  0  0.980363  0  0  0.136085  0  1.04012  0  0  0.139431  0  1.039704  0  0  0.119102  0.133423  0  1.041112  0
H  H30  1  0.37970226  0.95237810  0.29672568  1  0  0.106519  0  0.953154  0  0  0.113305  0  1.021207  0  0  0.117123  0  1.018455  0  0  0.103184  0.110713  0  1.022913  0
H  H31  1  0.62029786  0.04762998  0.70327713  1  0  0.106471  0  0.953165  0  0  0.113225  0  1.021257  0  0  0.117042  0  1.018506  0  0  0.103163  0.110665  0  1.022922  0
H  H32  1  0.27495910  0.16289243  0.38617651  1  0  0.095734  0  0.957812  0  0  0.107838  0  1.012244  0  0  0.110974  0  1.011029  0  0  0.101757  0.105268  0  1.01365  0
H  H33  1  0.72503961  0.83711457  0.61382514  1  0  0.095717  0  0.957958  0  0  0.107852  0  1.012346  0  0  0.110986  0  1.011135  0  0  0.101799  0.10528  0  1.013751  0
C  C34  1  0.88283277  0.51349936  0.06715035  1  0  -0.059855  0  3.753092  0  0  -0.035818  0  3.982528  0  0  -0.042385  0  4.004475  0  0  -0.016299  -0.030555  0  3.967338  0
C  C35  1  0.11716360  0.48649440  0.93285513  1  0  -0.059933  0  3.753101  0  0  -0.03592  0  3.982612  0  0  -0.042489  0  4.004561  0  0  -0.016272  -0.030657  0  3.967425  0
C  C36  1  0.44235985  0.99879334  0.95425607  1  0  0.129546  0  3.687287  0  0  0.134028  0  3.925633  0  0  0.140624  0  3.942532  0  0  0.036867  0.128433  0  3.916172  0
C  C37  1  0.55764731  0.00121250  0.04574728  1  0  0.129431  0  3.687434  0  0  0.133849  0  3.925826  0  0  0.140429  0  3.942739  0  0  0.036826  0.128276  0  3.916345  0
C  C38  1  0.85077161  0.42690901  0.94815290  1  0  -0.065085  0  3.706963  0  0  -0.089562  0  3.959039  0  0  -0.089674  0  3.977444  0  0  -0.081558  -0.089376  0  3.94718  0
C  C39  1  0.14922416  0.57308256  0.05185197  1  0  -0.065011  0  3.707181  0  0  -0.089468  0  3.959221  0  0  -0.089579  0  3.977626  0  0  -0.081543  -0.089293  0  3.947375  0
C  C40  1  0.19044389  0.97613866  0.57564338  1  0  0.054819  0  3.765841  0  0  0.078924  0  4.008856  0  0  0.075737  0  4.03499  0  0  -0.017309  0.080658  0  3.99121  0
C  C41  1  0.80955554  0.02386283  0.42435768  1  0  0.054782  0  3.765976  0  0  0.078924  0  4.008975  0  0  0.075736  0  4.035107  0  0  -0.017299  0.080656  0  3.991331  0
C  C42  1  0.75795814  0.52793497  0.13919978  1  0  0.62455  0  3.939595  0  0  0.578332  0  4.226116  0  0  0.61213  0  4.22103  0  0  0.193639  0.555169  0  4.228572  0
C  C43  1  0.24203577  0.47206215  0.86080154  1  0  0.624612  0  3.939277  0  0  0.578354  0  4.225857  0  0  0.612151  0  4.220775  0  0  0.193705  0.555191  0  4.228314  0
C  C44  1  0.03276570  0.58634486  0.11844905  1  0  -0.070589  0  3.721521  0  0  -0.090889  0  3.968339  0  0  -0.091716  0  3.987584  0  0  -0.082279  -0.090942  0  3.955355  0
C  C45  1  0.96723257  0.41364779  0.88155703  1  0  -0.07056  0  3.721403  0  0  -0.090877  0  3.968243  0  0  -0.091706  0  3.987491  0  0  -0.082287  -0.090929  0  3.955253  0
C  C46  1  0.32210186  0.85003191  0.42617834  1  0  -0.059283  0  3.771595  0  0  -0.030937  0  4.001483  0  0  -0.040342  0  4.026476  0  0  -0.017233  -0.024908  0  3.984084  0
C  C47  1  0.67789566  0.14997071  0.57382129  1  0  -0.059386  0  3.771505  0  0  -0.031114  0  4.001442  0  0  -0.040524  0  4.026434  0  0  -0.017329  -0.025081  0  3.984046  0
C  C48  1  0.44219539  0.12381851  0.92325739  1  0  -0.11458  0  3.613962  0  0  -0.13796  0  3.868134  0  0  -0.144876  0  3.88436  0  0  -0.057257  -0.132683  0  3.857632  0
C  C49  1  0.55780587  0.87618191  0.07674018  1  0  -0.114549  0  3.613841  0  0  -0.137858  0  3.867976  0  0  -0.144766  0  3.884195  0  0  -0.057229  -0.13259  0  3.857478  0
C  C50  1  0.12808874  0.09787167  0.07627257  1  0  -0.069755  0  3.769658  0  0  -0.048184  0  4.006188  0  0  -0.054582  0  4.028358  0  0  -0.024382  -0.043782  0  3.990681  0
C  C51  1  0.87191735  0.90212653  0.92372379  1  0  -0.069855  0  3.769918  0  0  -0.048242  0  4.00639  0  0  -0.054647  0  4.028574  0  0  -0.024391  -0.043839  0  3.990877  0
C  C52  1  0.39273777  0.72711206  0.37434566  1  0  0.642022  0  3.914738  0  0  0.591566  0  4.202688  0  0  0.626299  0  4.1988  0  0  0.201209  0.568111  0  4.203734  0
C  C53  1  0.60725997  0.27289170  0.62564935  1  0  0.642158  0  3.914958  0  0  0.591794  0  4.202789  0  0  0.626532  0  4.198893  0  0  0.201286  0.568333  0  4.203841  0
C  C54  1  0.22130122  0.86951109  0.80965359  1  0  0.109946  0  3.596116  0  0  0.064664  0  3.85304  0  0  0.073407  0  3.86779  0  0  0.076574  0.059206  0  3.843572  0
C  C55  1  0.77870311  0.13048815  0.19035037  1  0  0.10971  0  3.596443  0  0  0.06448  0  3.853261  0  0  0.073221  0  3.86801  0  0  0.076461  0.058991  0  3.843795  0
C  C56  1  0.25269812  0.85864273  0.52615672  1  0  -0.116943  0  3.697707  0  0  -0.149276  0  3.939507  0  0  -0.14925  0  3.960181  0  0  -0.085125  -0.148762  0  3.925036  0
C  C57  1  0.74730156  0.14135988  0.47384217  1  0  -0.116907  0  3.697694  0  0  -0.149221  0  3.939461  0  0  -0.149189  0  3.960128  0  0  -0.085083  -0.148711  0  3.924993  0
C  C58  1  0.04276765  0.14527653  0.00274398  1  0  -0.089642  0  3.752917  0  0  -0.113638  0  4.006721  0  0  -0.114813  0  4.028264  0  0  -0.095337  -0.113421  0  3.992549  0
C  C59  1  0.95723457  0.85471951  0.99725001  1  0  -0.089582  0  3.752784  0  0  -0.113595  0  4.006595  0  0  -0.114771  0  4.028142  0  0  -0.09534  -0.113379  0  3.992424  0
C  C60  1  0.11634997  0.98709361  0.68395714  1  0  -0.060955  0  3.625651  0  0  -0.13474  0  3.885895  0  0  -0.130454  0  3.896455  0  0  -0.042114  -0.137759  0  3.879325  0
C  C61  1  0.88364911  0.01290237  0.31604492  1  0  -0.060898  0  3.625571  0  0  -0.13477  0  3.885962  0  0  -0.130478  0  3.896511  0  0  -0.042172  -0.137793  0  3.879407  0
C  C62  1  0.08430343  0.95181031  0.07295345  1  0  -0.091038  0  3.761917  0  0  -0.113975  0  4.01632  0  0  -0.115388  0  4.037611  0  0  -0.093903  -0.111294  0  4.001662  0
C  C63  1  0.91570593  0.04818787  0.92704305  1  0  -0.090988  0  3.762066  0  0  -0.113933  0  4.016471  0  0  -0.11535  0  4.03777  0  0  -0.093881  -0.111251  0  4.001804  0
C  C64  1  0.26854911  0.20145147  0.15504067  1  0  0.633111  0  3.947502  0  0  0.582388  0  4.244065  0  0  0.616975  0  4.237192  0  0  0.197352  0.558922  0  4.247566  0
C  C65  1  0.73145128  0.79854565  0.84495681  1  0  0.63303  0  3.947765  0  0  0.582285  0  4.244365  0  0  0.616876  0  4.237493  0  0  0.197266  0.55882  0  4.247866  0
C  C66  1  0.33300756  0.11733440  0.83679411  1  0  0.118874  0  3.550543  0  0  0.077408  0  3.800055  0  0  0.086514  0  3.813888  0  0  0.076534  0.070357  0  3.791885  0
C  C67  1  0.66699752  0.88266377  0.16320631  1  0  0.118853  0  3.550471  0  0  0.077337  0  3.800025  0  0  0.086446  0  3.813847  0  0  0.076514  0.070289  0  3.79186  0
C  C68  1  0.19971048  0.08675669  0.52606776  1  0  -0.098366  0  3.715863  0  0  -0.121601  0  3.962705  0  0  -0.12247  0  3.98404  0  0  -0.083092  -0.121363  0  3.948387  0
C  C69  1  0.80028676  0.91324482  0.47393238  1  0  -0.098389  0  3.715978  0  0  -0.121661  0  3.962819  0  0  -0.122532  0  3.984155  0  0  -0.083136  -0.121425  0  3.948504  0
C  C70  1  0.32831014  0.87059914  0.89531537  1  0  -0.110817  0  3.643752  0  0  -0.130697  0  3.896894  0  0  -0.137946  0  3.915734  0  0  -0.058335  -0.127639  0  3.887341  0
C  C71  1  0.67169616  0.12940339  0.10468954  1  0  -0.110603  0  3.64374  0  0  -0.130491  0  3.896867  0  0  -0.137731  0  3.915703  0  0  -0.058311  -0.12745  0  3.887337  0
C  C72  1  0.32703114  0.95929465  0.37504708  1  0  -0.056852  0  3.703995  0  0  -0.086984  0  3.9576  0  0  -0.08574  0  3.977112  0  0  -0.078821  -0.086929  0  3.942977  0
C  C73  1  0.67296728  0.04071125  0.62495427  1  0  -0.056791  0  3.703845  0  0  -0.086887  0  3.957479  0  0  -0.085643  0  3.976991  0  0  -0.078839  -0.086858  0  3.942838  0
C  C74  1  0.26699084  0.07737170  0.42550239  1  0  -0.069834  0  3.765872  0  0  -0.08171  0  4.021128  0  0  -0.085681  0  4.043415  0  0  -0.092104  -0.078332  0  4.005198  0
C  C75  1  0.73300820  0.92263638  0.57450120  1  0  -0.0698  0  3.766077  0  0  -0.081705  0  4.021355  0  0  -0.085674  0  4.043639  0  0  -0.092109  -0.078328  0  4.005431  0
N  N76  1  0.22477468  0.99140533  0.78157868  1  0  -0.005274  0  3.559214  0  0  0.08971  0  3.76986  0  0  0.075978  0  3.796562  0  0  -0.206678  0.099223  0  3.75227  0
N  N77  1  0.77522791  0.00859176  0.21842053  1  0  -0.005152  0  3.559376  0  0  0.089844  0  3.770025  0  0  0.076111  0  3.796727  0  0  -0.206561  0.099354  0  3.752453  0
O  O78  1  0.43445666  0.71240693  0.27408446  1  0  -0.640365  0  1.974566  0  0  -0.576058  0  2.219826  0  0  -0.607444  0  2.211674  0  0  -0.320018  -0.553762  0  2.22476  0
O  O79  1  0.56552960  0.28759470  0.72590949  1  0  -0.640483  0  1.974733  0  0  -0.576167  0  2.219913  0  0  -0.607558  0  2.211756  0  0  -0.320062  -0.553866  0  2.224849  0
O  O80  1  0.63017017  0.43249787  0.09819224  1  0  -0.647492  0  2.002389  0  0  -0.577724  0  2.237235  0  0  -0.607863  0  2.227388  0  0  -0.327236  -0.556168  0  2.243471  0
O  O81  1  0.36982250  0.56749490  0.90180377  1  0  -0.6476  0  2.002163  0  0  -0.577817  0  2.23704  0  0  -0.607951  0  2.22719  0  0  -0.327344  -0.556258  0  2.243276  0
O  O82  1  0.41033299  0.63942228  0.42923082  1  0  -0.663203  0  1.973815  0  0  -0.592421  0  2.195169  0  0  -0.622511  0  2.183588  0  0  -0.323685  -0.571443  0  2.203024  0
O  O83  1  0.58967220  0.36058472  0.57076700  1  0  -0.663223  0  1.973895  0  0  -0.59249  0  2.195191  0  0  -0.622578  0  2.183609  0  0  -0.323672  -0.571515  0  2.203052  0
O  O84  1  0.78002189  0.62980971  0.23749283  1  0  -0.652466  0  1.926602  0  0  -0.600606  0  2.157526  0  0  -0.627187  0  2.147117  0  0  -0.331837  -0.581295  0  2.163838  0
O  O85  1  0.21996523  0.37019077  0.76250498  1  0  -0.652385  0  1.926562  0  0  -0.600514  0  2.15751  0  0  -0.627098  0  2.147106  0  0  -0.331804  -0.581199  0  2.163815  0
O  O86  1  0.35732719  0.14620462  0.20160376  1  0  -0.639163  0  2.009273  0  0  -0.578425  0  2.232688  0  0  -0.605505  0  2.226555  0  0  -0.316009  -0.559008  0  2.236094  0
O  O87  1  0.64267379  0.85379469  0.79839433  1  0  -0.639074  0  2.009222  0  0  -0.578345  0  2.232622  0  0  -0.605426  0  2.226492  0  0  -0.315957  -0.558929  0  2.236031  0
O  O88  1  0.28819226  0.33719885  0.16771042  1  0  -0.647454  0  1.997409  0  0  -0.582388  0  2.244323  0  0  -0.612783  0  2.233414  0  0  -0.336726  -0.561464  0  2.251774  0
O  O89  1  0.71180524  0.66279933  0.83229297  1  0  -0.647447  0  1.997584  0  0  -0.582381  0  2.244525  0  0  -0.612767  0  2.233598  0  0  -0.336691  -0.561456  0  2.251979  0
O  O90  1  0.58741083  0.34583373  0.34392952  1  0  -0.864622  0  1.85003  0  0  -0.79831  0  2.040224  0  0  -0.823793  0  2.003076  0  0  -0.595614  -0.780018  0  2.066014  0
O  O91  1  0.41259316  0.65416889  0.65606627  1  0  -0.864731  0  1.849926  0  0  -0.798428  0  2.040116  0  0  -0.82391  0  2.002965  0  0  -0.595664  -0.780131  0  2.065902  0
