# generated using pymatgen
data_CuH22C18IN4
_symmetry_space_group_name_H-M   'P 1'
_cell_length_a   8.69756616
_cell_length_b   8.93831151
_cell_length_c   12.01937298
_cell_angle_alpha   91.63312090
_cell_angle_beta   98.04903213
_cell_angle_gamma   100.46492063
_symmetry_Int_Tables_number   1
_chemical_formula_structural   CuH22C18IN4
_chemical_formula_sum   'Cu2 H44 C36 I2 N8'
_cell_volume   908.41333426
_cell_formula_units_Z   2
loop_
 _symmetry_equiv_pos_site_id
 _symmetry_equiv_pos_as_xyz
  1  'x, y, z'
loop_
 _atom_site_type_symbol
 _atom_site_label
 _atom_site_symmetry_multiplicity
 _atom_site_fract_x
 _atom_site_fract_y
 _atom_site_fract_z
 _atom_site_occupancy
 _atom_site_pbe_bader_charge
 _atom_site_pbe_bader_spin_density
 _atom_site_pbe_cm5_charge
 _atom_site_pbe_ddec_charge
 _atom_site_pbe_ddec_spin_density
 _atom_site_pbe_ddec_sum_bond_order
 _atom_site_pbe_magmom
Cu  Cu0  1  0.78847956  0.20976151  0.73372026  1  0.528908  0  0.420881  0.269026  0  2.396497  0
Cu  Cu1  1  0.21152077  0.79023983  0.26628184  1  0.528891  0  0.420894  0.26904  0  2.396564  0
H  H2  1  0.28321408  0.19014492  0.44527732  1  0.061233  0  0.099552  0.141762  0  1.036571  0
H  H3  1  0.71678814  0.80985413  0.55472326  1  0.06122  0  0.099545  0.141761  0  1.036563  0
H  H4  1  0.58796034  0.07284008  0.26675149  1  0.065922  0  0.095932  0.141372  0  1.012794  0
H  H5  1  0.41203978  0.92716012  0.73325056  1  0.065939  0  0.095937  0.141379  0  1.012793  0
H  H6  1  0.56324501  0.26407205  0.25400114  1  0.040394  0  0.089242  0.124671  0  1.020533  0
H  H7  1  0.43675582  0.73592587  0.74600094  1  0.040374  0  0.089235  0.124644  0  1.020526  0
H  H8  1  0.39549082  0.11688121  0.25110158  1  0.078723  0  0.089206  0.135528  0  1.037249  0
H  H9  1  0.60451395  0.88311898  0.74890178  1  0.078745  0  0.089189  0.135521  0  1.037239  0
H  H10  1  0.49527037  0.23506650  0.76998093  1  0.051524  0  0.087823  0.122301  0  1.059553  0
H  H11  1  0.50473069  0.76493256  0.23001953  1  0.051527  0  0.087823  0.122325  0  1.059511  0
H  H12  1  0.30137046  0.15672277  0.70081078  1  0.065372  0  0.079351  0.125278  0  1.047969  0
H  H13  1  0.69862734  0.84327742  0.29918854  1  0.065385  0  0.079362  0.125292  0  1.047951  0
H  H14  1  0.37753709  0.35331524  0.69625006  1  0.030793  0  0.090423  0.12943  0  1.013044  0
H  H15  1  0.62246303  0.64668495  0.30375033  1  0.030779  0  0.090426  0.12944  0  1.013034  0
H  H16  1  0.78950504  0.71378240  0.95078543  1  0.109867  0  0.103229  0.144042  0  1.039516  0
H  H17  1  0.21050409  0.28622235  0.04921597  1  0.109876  0  0.103184  0.144017  0  1.039508  0
H  H18  1  0.85918849  0.52354335  0.67050400  1  0.060034  0  0.086554  0.122516  0  1.061669  0
H  H19  1  0.14081860  0.47645684  0.32950541  1  0.060149  0  0.086568  0.122537  0  1.061639  0
H  H20  1  0.81620530  0.69726155  0.72346094  1  0.059909  0  0.077781  0.130558  0  1.051051  0
H  H21  1  0.18379504  0.30273979  0.27653699  1  0.059904  0  0.077763  0.130523  0  1.05103  0
H  H22  1  0.66099633  0.54194352  0.67160373  1  0.052468  0  0.092219  0.139922  0  0.994439  0
H  H23  1  0.33900379  0.45805668  0.32839583  1  0.052505  0  0.092217  0.139918  0  0.994455  0
H  H24  1  0.87831949  0.44058704  0.19039528  1  0.069493  0  0.096551  0.139127  0  1.015725  0
H  H25  1  0.12168251  0.55941088  0.80960525  1  0.069555  0  0.096559  0.139142  0  1.015744  0
H  H26  1  0.67734643  0.46085918  0.16466497  1  0.049606  0  0.090837  0.12457  0  1.017254  0
H  H27  1  0.32265982  0.53913075  0.83533666  1  0.049567  0  0.090848  0.124607  0  1.017265  0
H  H28  1  0.83153328  0.62384545  0.17193733  1  0.085118  0  0.093448  0.141846  0  1.021041  0
H  H29  1  0.16847502  0.37614905  0.82807209  1  0.085097  0  0.093433  0.141827  0  1.021043  0
H  H30  1  0.86425661  0.22417415  0.09826639  1  0.09864  0  0.108556  0.104255  0  0.995095  0
H  H31  1  0.13573399  0.77582490  0.90173384  1  0.098488  0  0.108571  0.104278  0  0.994992  0
H  H32  1  0.88262989  0.15053478  0.96392087  1  0.102001  0  0.100261  0.088915  0  1.045547  0
H  H33  1  0.11736674  0.84946541  0.03607999  1  0.101902  0  0.100243  0.088899  0  1.04553  0
H  H34  1  0.50434599  0.27588204  0.97625942  1  0.055647  0  0.100486  0.100543  0  1.015626  0
H  H35  1  0.49564407  0.72412613  0.02373097  1  0.055797  0  0.100498  0.100653  0  1.015533  0
H  H36  1  0.75135596  0.90374320  0.03314966  1  0.065724  0  0.088686  0.090997  0  1.053702  0
H  H37  1  0.24863642  0.09626497  0.96684013  1  0.065503  0  0.088672  0.090999  0  1.053694  0
H  H38  1  0.11394783  0.28550218  0.58227256  1  0.066465  0  0.096393  0.098896  0  1.040715  0
H  H39  1  0.88604299  0.71449801  0.41772855  1  0.081491  0  0.096364  0.09884  0  1.040704  0
H  H40  1  0.72871346  0.45138419  0.39300545  1  0.068398  0  0.099812  0.096792  0  1.023999  0
H  H41  1  0.27127991  0.54861714  0.60699594  1  0.068447  0  0.099814  0.096838  0  1.023924  0
H  H42  1  0.81488203  0.14200407  0.38134756  1  0.067296  0  0.105773  0.102893  0  1.005124  0
H  H43  1  0.18511902  0.85799499  0.61865207  1  0.067298  0  0.105775  0.102917  0  1.005106  0
H  H44  1  0.87587434  0.11419100  0.52509569  1  0.101139  0  0.099463  0.087712  0  1.03921  0
H  H45  1  0.12412650  0.88580691  0.47490555  1  0.101173  0  0.099475  0.087765  0  1.039169  0
C  C46  1  0.47843651  0.21192655  0.59131389  1  0.455631  0  0.089649  0.261109  0  4.017758  0
C  C47  1  0.52156455  0.78807250  0.40868823  1  0.455605  0  0.089596  0.261079  0  4.017724  0
C  C48  1  0.40645693  0.19357381  0.47814731  1  0.042768  0  -0.125688  -0.347612  0  3.956778  0
C  C49  1  0.59354434  0.80642638  0.52185569  1  0.042667  0  -0.125629  -0.347546  0  3.956651  0
C  C50  1  0.52455084  0.17533760  0.41465716  1  0.332232  0  0.099312  0.207219  0  3.987763  0
C  C51  1  0.47545160  0.82466260  0.58534679  1  0.33226  0  0.099268  0.207195  0  3.987819  0
C  C52  1  0.51835827  0.15618367  0.29065817  1  -0.047213  0  -0.236453  -0.428747  0  3.96573  0
C  C53  1  0.48164533  0.84381652  0.70934673  1  -0.047333  0  -0.236398  -0.428681  0  3.965704  0
C  C54  1  0.40949184  0.23983728  0.69474416  1  -0.084662  0  -0.242703  -0.426834  0  3.95182  0
C  C55  1  0.59050711  0.76016291  0.30525778  1  -0.084622  0  -0.242686  -0.426846  0  3.951787  0
C  C56  1  0.78834846  0.51505234  0.83428360  1  0.436078  0  0.089438  0.26216  0  4.030474  0
C  C57  1  0.21165045  0.48495355  0.16571845  1  0.436031  0  0.089436  0.262118  0  4.030576  0
C  C58  1  0.78984112  0.59350922  0.93757672  1  -0.046092  0  -0.127702  -0.352569  0  3.957436  0
C  C59  1  0.21015690  0.40649211  0.06242598  1  -0.046042  0  -0.127608  -0.352444  0  3.957294  0
C  C60  1  0.79601093  0.48688228  0.01961285  1  0.35238  0  0.098716  0.210378  0  3.984849  0
C  C61  1  0.20398963  0.51312019  0.98038763  1  0.352452  0  0.098663  0.21024  0  3.984855  0
C  C62  1  0.78095599  0.57271270  0.71915369  1  -0.070779  0  -0.247694  -0.439519  0  3.958682  0
C  C63  1  0.21904341  0.42728977  0.28084668  1  -0.070907  0  -0.24768  -0.439481  0  3.958677  0
C  C64  1  0.79588631  0.50337910  0.14296783  1  -0.077808  0  -0.234959  -0.43105  0  3.970853  0
C  C65  1  0.20411707  0.49661995  0.85703370  1  -0.077762  0  -0.234964  -0.431058  0  3.970934  0
C  C66  1  0.80543182  0.20510008  0.01056522  1  0.278371  0  -0.051821  -0.135036  0  3.939849  0
C  C67  1  0.19456366  0.79490011  0.98943387  1  0.27862  0  -0.051834  -0.135041  0  3.939781  0
C  C68  1  0.64584981  0.10127110  0.00388311  1  -0.001957  0  -0.0151  0.086434  0  3.974244  0
C  C69  1  0.35414234  0.89873593  0.99611578  1  -0.001719  0  -0.015034  0.086418  0  3.974484  0
C  C70  1  0.50340785  0.15480346  0.98662955  1  -0.054666  0  -0.094534  -0.131498  0  3.99577  0
C  C71  1  0.49658592  0.84520585  0.01336872  1  -0.054799  0  -0.094608  -0.131732  0  3.995967  0
C  C72  1  0.64044347  0.94548000  0.01729969  1  -0.074696  0  -0.09596  -0.130365  0  3.988599  0
C  C73  1  0.35954775  0.05452817  0.98269247  1  -0.074646  0  -0.096018  -0.130413  0  3.988856  0
C  C74  1  0.06467517  0.37970284  0.54538864  1  -0.105571  0  -0.090344  -0.130825  0  3.987941  0
C  C75  1  0.93531914  0.62029735  0.45461199  1  -0.120464  0  -0.090321  -0.130736  0  3.987582  0
C  C76  1  0.91242125  0.34996073  0.48394425  1  0.038544  0  -0.013133  0.08471  0  3.976377  0
C  C77  1  0.08757611  0.65003719  0.51605415  1  0.039003  0  -0.013167  0.084636  0  3.97633  0
C  C78  1  0.84852724  0.47208285  0.43923069  1  -0.055917  0  -0.091356  -0.124307  0  3.970043  0
C  C79  1  0.15146663  0.52791507  0.56076985  1  -0.055485  0  -0.091348  -0.1243  0  3.970106  0
C  C80  1  0.81949534  0.18861523  0.46761988  1  0.290144  0  -0.05152  -0.133464  0  3.929361  0
C  C81  1  0.18050528  0.81138154  0.53238049  1  0.290036  0  -0.051506  -0.133483  0  3.929313  0
I  I82  1  0.97533526  0.02268453  0.75788192  1  -0.564105  0  -0.256842  -0.485168  0  1.520252  0
I  I83  1  0.02466602  0.97731566  0.24211859  1  -0.564092  0  -0.256844  -0.485164  0  1.520241  0
N  N84  1  0.63295745  0.20384388  0.59766116  1  -0.751375  0  -0.290868  -0.25562  0  3.526733  0
N  N85  1  0.36704272  0.79615062  0.40234244  1  -0.751837  0  -0.290837  -0.255603  0  3.526822  0
N  N86  1  0.65870593  0.18084382  0.48957590  1  -0.790836  0  -0.155166  0.098315  0  3.735945  0
N  N87  1  0.34129606  0.81915409  0.51042713  1  -0.790277  0  -0.155231  0.098184  0  3.736105  0
N  N88  1  0.79459738  0.36750637  0.85153787  1  -0.750358  0  -0.294899  -0.25891  0  3.532159  0
N  N89  1  0.20540385  0.63249952  0.14846275  1  -0.750432  0  -0.294904  -0.258884  0  3.532272  0
N  N90  1  0.79965945  0.35233866  0.96475614  1  -0.785304  0  -0.152782  0.098305  0  3.742081  0
N  N91  1  0.20034482  0.64766495  0.03524391  1  -0.785351  0  -0.152783  0.098321  0  3.742077  0
