# generated using pymatgen
data_ZnH22C23(NO)6
_symmetry_space_group_name_H-M   'P 1'
_cell_length_a   9.22909295
_cell_length_b   16.81658532
_cell_length_c   18.06231096
_cell_angle_alpha   89.99984120
_cell_angle_beta   90.00008505
_cell_angle_gamma   94.40653226
_symmetry_Int_Tables_number   1
_chemical_formula_structural   ZnH22C23(NO)6
_chemical_formula_sum   'Zn4 H88 C92 N24 O24'
_cell_volume   2795.01712994
_cell_formula_units_Z   4
loop_
 _symmetry_equiv_pos_site_id
 _symmetry_equiv_pos_as_xyz
  1  'x, y, z'
loop_
 _atom_site_type_symbol
 _atom_site_label
 _atom_site_symmetry_multiplicity
 _atom_site_fract_x
 _atom_site_fract_y
 _atom_site_fract_z
 _atom_site_occupancy
 _atom_site_pbe_bader_charge
 _atom_site_pbe_bader_spin_density
 _atom_site_pbe_cm5_charge
 _atom_site_pbe_ddec_charge
 _atom_site_pbe_ddec_spin_density
 _atom_site_pbe_ddec_sum_bond_order
 _atom_site_pbe_magmom
Zn  Zn0  1  0.51190788  0.47557982  0.18693358  1  1.279933  0  0.717934  0.709955  0  2.438832  0
Zn  Zn1  1  0.98809064  0.02442047  0.68693182  1  1.27985  0  0.717962  0.710004  0  2.438813  0
Zn  Zn2  1  0.48808939  0.52441844  0.81306601  1  1.279872  0  0.717971  0.710041  0  2.438813  0
Zn  Zn3  1  0.01191378  0.97558256  0.31306721  1  1.279865  0  0.717965  0.710087  0  2.438734  0
H  H4  1  0.59863056  0.75633142  0.28357260  1  0.096196  0  0.117091  0.123873  0  1.002278  0
H  H5  1  0.90136363  0.74366986  0.78356634  1  0.096664  0  0.117098  0.123884  0  1.002269  0
H  H6  1  0.40137213  0.24366684  0.71642920  1  0.096252  0  0.117118  0.123879  0  1.002223  0
H  H7  1  0.09862855  0.25633077  0.21642938  1  0.096262  0  0.117124  0.123892  0  1.002278  0
H  H8  1  0.56257698  0.80012698  0.19650615  1  0.067532  0  0.105572  0.089616  0  1.014451  0
H  H9  1  0.93742541  0.69987278  0.69650058  1  0.067416  0  0.105579  0.089648  0  1.014572  0
H  H10  1  0.43742362  0.19987188  0.80349621  1  0.06745  0  0.105598  0.089652  0  1.014497  0
H  H11  1  0.06257311  0.30012667  0.30349679  1  0.067497  0  0.10558  0.089637  0  1.014452  0
H  H12  1  0.44645566  0.75696453  0.10251210  1  0.045496  0  0.10285  0.115762  0  1.030204  0
H  H13  1  0.05354382  0.74303766  0.60251111  1  0.045512  0  0.102849  0.115717  0  1.030219  0
H  H14  1  0.55354836  0.24303552  0.89748804  1  0.045539  0  0.102852  0.115735  0  1.030251  0
H  H15  1  0.94645145  0.25696178  0.39748903  1  0.04551  0  0.10287  0.11575  0  1.030237  0
H  H16  1  0.37670947  0.76158142  0.97070441  1  0.018844  0  0.092204  0.091765  0  1.012453  0
H  H17  1  0.12328643  0.73841852  0.47070077  1  0.018749  0  0.092229  0.091778  0  1.012448  0
H  H18  1  0.62328981  0.23841565  0.02929795  1  0.01881  0  0.092207  0.091746  0  1.012469  0
H  H19  1  0.87670398  0.26158509  0.52929661  1  0.018905  0  0.092244  0.091819  0  1.01244  0
H  H20  1  0.18475577  0.76244500  0.87457987  1  0.102835  0  0.093103  0.089899  0  1.083367  0
H  H21  1  0.31524105  0.73755582  0.37457693  1  0.102782  0  0.093117  0.089933  0  1.083388  0
H  H22  1  0.81524210  0.23754968  0.12542415  1  0.102728  0  0.093104  0.089912  0  1.083385  0
H  H23  1  0.68475093  0.26245138  0.62542045  1  0.102849  0  0.093152  0.089914  0  1.083433  0
H  H24  1  0.92234078  0.75249114  0.91142871  1  0.085489  0  0.092617  0.100967  0  1.046253  0
H  H25  1  0.57765573  0.74750858  0.41142501  1  0.085376  0  0.09261  0.101014  0  1.046106  0
H  H26  1  0.07765774  0.24750831  0.08857531  1  0.085366  0  0.092616  0.101041  0  1.046068  0
H  H27  1  0.42233677  0.25249444  0.58857181  1  0.085188  0  0.092625  0.10101  0  1.04609  0
H  H28  1  0.85347118  0.73850369  0.04361007  1  0.06637  0  0.096782  0.106792  0  1.014894  0
H  H29  1  0.64652850  0.76149531  0.54360689  1  0.066426  0  0.096779  0.106803  0  1.014869  0
H  H30  1  0.14652750  0.26149695  0.95639395  1  0.066434  0  0.096776  0.106826  0  1.014826  0
H  H31  1  0.35346877  0.23850295  0.45639104  1  0.066304  0  0.096774  0.106764  0  1.014971  0
H  H32  1  0.92272708  0.72441666  0.17292468  1  0.131756  0  0.101598  0.124825  0  1.082757  0
H  H33  1  0.57727750  0.77558377  0.67291976  1  0.132069  0  0.101595  0.124827  0  1.082739  0
H  H34  1  0.07727585  0.27558340  0.82708044  1  0.13213  0  0.101593  0.124821  0  1.082784  0
H  H35  1  0.42272110  0.22441628  0.32707762  1  0.132119  0  0.101593  0.124819  0  1.082816  0
H  H36  1  0.97419909  0.67707927  0.36586187  1  0.077477  0  0.116315  0.104563  0  0.969862  0
H  H37  1  0.52581553  0.82292718  0.86585733  1  0.077719  0  0.116315  0.104569  0  0.969891  0
H  H38  1  0.02581047  0.32292974  0.63414381  1  0.077627  0  0.116288  0.10448  0  0.969945  0
H  H39  1  0.47418282  0.17707108  0.13414281  1  0.077669  0  0.116334  0.104542  0  0.969905  0
H  H40  1  0.89577074  0.67418979  0.27627253  1  0.100945  0  0.109848  0.09769  0  1.006273  0
H  H41  1  0.60424173  0.82581869  0.77626639  1  0.1007  0  0.109854  0.097703  0  1.006249  0
H  H42  1  0.10423682  0.32582040  0.72373425  1  0.100687  0  0.109861  0.097676  0  1.006276  0
H  H43  1  0.39576003  0.17418076  0.22373431  1  0.100683  0  0.109848  0.097665  0  1.006246  0
H  H44  1  0.17353367  0.58185770  0.37895857  1  0.133022  0  0.127779  0.114853  0  1.011056  0
H  H45  1  0.32646268  0.91813953  0.87895679  1  0.133137  0  0.127777  0.114831  0  1.011077  0
H  H46  1  0.82646693  0.41814116  0.62104212  1  0.132994  0  0.127797  0.114812  0  1.011151  0
H  H47  1  0.67353676  0.08185873  0.12104169  1  0.13309  0  0.127773  0.114821  0  1.0111  0
H  H48  1  0.14730557  0.41989466  0.41158804  1  0.097493  0  0.11149  0.136568  0  1.001265  0
H  H49  1  0.35269010  0.08010179  0.91158936  1  0.097866  0  0.111512  0.136609  0  1.001294  0
H  H50  1  0.85269162  0.58010299  0.58841155  1  0.09783  0  0.111494  0.136587  0  1.001288  0
H  H51  1  0.64731026  0.91989528  0.08841244  1  0.097603  0  0.111499  0.13657  0  1.001324  0
H  H52  1  0.34066963  0.35712451  0.31514594  1  0.145315  0  0.121386  0.11189  0  1.018025  0
H  H53  1  0.15932496  0.14287401  0.81514640  1  0.145358  0  0.121382  0.111905  0  1.017992  0
H  H54  1  0.65932772  0.64287435  0.68485309  1  0.145361  0  0.121398  0.111922  0  1.018011  0
H  H55  1  0.84067356  0.85712544  0.18485430  1  0.145307  0  0.121383  0.111915  0  1.017998  0
H  H56  1  0.11582103  0.41921367  0.99480023  1  0.161563  0  0.122959  0.110521  0  1.02027  0
H  H57  1  0.38417489  0.08079089  0.49479664  1  0.161499  0  0.122932  0.110518  0  1.020342  0
H  H58  1  0.88416914  0.58078815  0.00520268  1  0.161598  0  0.122958  0.110535  0  1.020272  0
H  H59  1  0.61582118  0.91921452  0.50520295  1  0.161561  0  0.122949  0.110514  0  1.020288  0
H  H60  1  0.21275402  0.57599642  0.96203183  1  0.109388  0  0.106492  0.133247  0  1.034115  0
H  H61  1  0.28724659  0.92400653  0.46203060  1  0.109342  0  0.106509  0.133263  0  1.034111  0
H  H62  1  0.78724141  0.42400422  0.03796887  1  0.10944  0  0.106496  0.133256  0  1.034075  0
H  H63  1  0.71275807  0.07599830  0.53796843  1  0.109421  0  0.106468  0.133215  0  1.03408  0
H  H64  1  0.43807963  0.60765882  0.06037925  1  0.1191  0  0.118561  0.109618  0  1.006963  0
H  H65  1  0.06192716  0.89234232  0.56038010  1  0.119135  0  0.11855  0.109616  0  1.006938  0
H  H66  1  0.56192314  0.39234004  0.93961868  1  0.119027  0  0.118512  0.109562  0  1.007031  0
H  H67  1  0.93808035  0.10765953  0.43961838  1  0.1191  0  0.118521  0.10958  0  1.006921  0
H  H68  1  0.05074921  0.56692371  0.15712315  1  0.109909  0  0.122508  0.114693  0  1.013454  0
H  H69  1  0.44925360  0.93306999  0.65711975  1  0.109685  0  0.122504  0.114588  0  1.013427  0
H  H70  1  0.94925183  0.43307038  0.84287644  1  0.109722  0  0.122492  0.114655  0  1.013441  0
H  H71  1  0.55075174  0.06693186  0.34288593  1  0.109654  0  0.122471  0.114564  0  1.013436  0
H  H72  1  0.05492826  0.40585696  0.18876161  1  0.101917  0  0.107525  0.132188  0  1.024513  0
H  H73  1  0.44506645  0.09413715  0.68876020  1  0.102012  0  0.107524  0.132175  0  1.024456  0
H  H74  1  0.94506853  0.59413772  0.81123521  1  0.094325  0  0.107501  0.132147  0  1.024506  0
H  H75  1  0.55493664  0.90586410  0.31124161  1  0.101993  0  0.107557  0.132253  0  1.024485  0
H  H76  1  0.76373209  0.35686933  0.20677016  1  0.146714  0  0.119239  0.111117  0  1.056407  0
H  H77  1  0.73626275  0.14312732  0.70676957  1  0.146714  0  0.119219  0.111122  0  1.056398  0
H  H78  1  0.23626486  0.64312654  0.79322832  1  0.14668  0  0.119235  0.11115  0  1.056368  0
H  H79  1  0.26374400  0.85687691  0.29322836  1  0.146814  0  0.11923  0.111177  0  1.056395  0
H  H80  1  0.36727209  0.59591332  0.27463311  1  0.55548  0  0.326478  0.269  0  0.984306  0
H  H81  1  0.13272724  0.90408420  0.77463121  1  0.555436  0  0.326517  0.269098  0  0.984255  0
H  H82  1  0.63272943  0.40408434  0.72536759  1  0.555449  0  0.326517  0.269081  0  0.984277  0
H  H83  1  0.86727444  0.09591466  0.22536672  1  0.555478  0  0.326522  0.269133  0  0.984226  0
H  H84  1  0.28029937  0.37619735  0.10148719  1  0.556693  0  0.308338  0.258271  0  1.035214  0
H  H85  1  0.21969934  0.12380417  0.60148497  1  0.556676  0  0.308324  0.258252  0  1.035213  0
H  H86  1  0.71969590  0.62380210  0.89851351  1  0.556699  0  0.308338  0.258229  0  1.035299  0
H  H87  1  0.78030066  0.87619826  0.39851240  1  0.556704  0  0.308349  0.258301  0  1.035135  0
H  H88  1  0.78073878  0.59706736  0.15982680  1  0.562564  0  0.30819  0.253517  0  1.040995  0
H  H89  1  0.71926328  0.90293071  0.65982276  1  0.562499  0  0.308171  0.253533  0  1.040994  0
H  H90  1  0.21926267  0.40292971  0.84017334  1  0.562539  0  0.308161  0.253463  0  1.041088  0
H  H91  1  0.28073889  0.09707173  0.34017627  1  0.562516  0  0.308139  0.25344  0  1.04113  0
C  C92  1  0.59255649  0.67316325  0.19394076  1  1.600873  0  0.202911  0.586768  0  4.217382  0
C  C93  1  0.90743939  0.82683651  0.69393374  1  1.601074  0  0.202989  0.586915  0  4.217152  0
C  C94  1  0.40744186  0.32683501  0.80605883  1  1.600916  0  0.202876  0.586642  0  4.217443  0
C  C95  1  0.09256246  0.17316355  0.30605976  1  1.601065  0  0.202943  0.58671  0  4.217382  0
C  C96  1  0.53906106  0.74698799  0.23120554  1  0.419708  0  -0.071969  -0.14633  0  3.893897  0
C  C97  1  0.96093709  0.75301166  0.73120040  1  0.419362  0  -0.072003  -0.146424  0  3.893954  0
C  C98  1  0.46094055  0.25301028  0.76879627  1  0.419713  0  -0.072005  -0.146304  0  3.893968  0
C  C99  1  0.03906027  0.24698719  0.26879642  1  0.419731  0  -0.071988  -0.146386  0  3.893874  0
C  C100  1  0.29349099  0.73802802  0.19187494  1  0.437389  0  0.071374  0.152333  0  4.069348  0
C  C101  1  0.20651079  0.76197333  0.69187180  1  0.437374  0  0.071298  0.152268  0  4.069254  0
C  C102  1  0.70651370  0.26196906  0.80812576  1  0.437402  0  0.071371  0.152371  0  4.069351  0
C  C103  1  0.79348740  0.23802374  0.30812612  1  0.437439  0  0.071377  0.152276  0  4.069251  0
C  C104  1  0.33252667  0.74950419  0.11872649  1  0.031367  0  -0.118703  -0.279412  0  4.029382  0
C  C105  1  0.16747726  0.75049856  0.61872502  1  0.035766  0  -0.118697  -0.279348  0  4.029563  0
C  C106  1  0.66747702  0.25049348  0.88127531  1  0.031369  0  -0.118746  -0.279472  0  4.029483  0
C  C107  1  0.83252218  0.24949970  0.38127457  1  0.031395  0  -0.118752  -0.279451  0  4.029435  0
C  C108  1  0.22534075  0.75048514  0.06243576  1  -0.054434  0  -0.017793  0.080585  0  4.045372  0
C  C109  1  0.27465669  0.74951895  0.56243215  1  -0.058827  0  -0.017702  0.080625  0  4.045293  0
C  C110  1  0.77465844  0.24951133  0.93756660  1  -0.054427  0  -0.017695  0.080699  0  4.045309  0
C  C111  1  0.72533765  0.25048168  0.43756522  1  -0.054392  0  -0.01767  0.080754  0  4.04525  0
C  C112  1  0.26197259  0.75770309  0.98640446  1  -0.057884  0  -0.10278  -0.143708  0  3.998966  0
C  C113  1  0.23802242  0.74229799  0.48640090  1  -0.057196  0  -0.1028  -0.143587  0  3.99875  0
C  C114  1  0.73802677  0.24229457  0.01359900  1  -0.057526  0  -0.102778  -0.143606  0  3.998952  0
C  C115  1  0.76196999  0.25770443  0.51359758  1  -0.057879  0  -0.102832  -0.143804  0  3.998945  0
C  C116  1  0.15507435  0.75797545  0.93284151  1  -0.039666  0  -0.108459  -0.100292  0  4.047163  0
C  C117  1  0.34492495  0.74202639  0.43283914  1  -0.040225  0  -0.108487  -0.100424  0  4.047261  0
C  C118  1  0.84492268  0.24202102  0.06716196  1  -0.039909  0  -0.10846  -0.100343  0  4.047219  0
C  C119  1  0.65506655  0.25797722  0.56715824  1  -0.039706  0  -0.108521  -0.100311  0  4.047339  0
C  C120  1  0.00686430  0.75176240  0.95351766  1  -0.025631  0  -0.106861  -0.099221  0  4.032047  0
C  C121  1  0.49313264  0.74823759  0.45351483  1  -0.02578  0  -0.106883  -0.09934  0  4.032057  0
C  C122  1  0.99313497  0.24823466  0.04648580  1  -0.025792  0  -0.106889  -0.099392  0  4.031887  0
C  C123  1  0.50685946  0.25176245  0.54648310  1  -0.025401  0  -0.106896  -0.099298  0  4.031794  0
C  C124  1  0.96763958  0.74420231  0.02719249  1  -0.126778  0  -0.099882  -0.142862  0  3.985761  0
C  C125  1  0.53236014  0.75579734  0.52718980  1  -0.126779  0  -0.099876  -0.142783  0  3.985723  0
C  C126  1  0.03235894  0.25579714  0.97281097  1  -0.126786  0  -0.099863  -0.142765  0  3.985691  0
C  C127  1  0.46763380  0.24420032  0.47280647  1  -0.126732  0  -0.099906  -0.142825  0  3.985703  0
C  C128  1  0.07525056  0.74254912  0.08315288  1  -0.007399  0  -0.016174  0.087441  0  4.023208  0
C  C129  1  0.42474862  0.75745134  0.58315048  1  -0.007295  0  -0.016214  0.087317  0  4.023279  0
C  C130  1  0.92474980  0.25744795  0.91684948  1  -0.007308  0  -0.016239  0.087201  0  4.023412  0
C  C131  1  0.57524873  0.24254751  0.41684690  1  -0.007471  0  -0.016161  0.087435  0  4.023245  0
C  C132  1  0.03770925  0.73113826  0.15892226  1  -0.004452  0  -0.121427  -0.284427  0  4.01126  0
C  C133  1  0.46229237  0.76886258  0.65891819  1  -0.004897  0  -0.121433  -0.284406  0  4.011272  0
C  C134  1  0.96229252  0.26886119  0.84108121  1  -0.00491  0  -0.121371  -0.284277  0  4.011305  0
C  C135  1  0.53770490  0.23113567  0.34107918  1  -0.004842  0  -0.121454  -0.284494  0  4.011335  0
C  C136  1  0.14335500  0.72636686  0.21210763  1  0.45018  0  0.07177  0.157304  0  4.082999  0
C  C137  1  0.35664916  0.77363563  0.71210514  1  0.450302  0  0.071812  0.157321  0  4.082771  0
C  C138  1  0.85664877  0.27363141  0.78789472  1  0.450128  0  0.071691  0.157195  0  4.083057  0
C  C139  1  0.64334911  0.22636204  0.28789335  1  0.450146  0  0.071796  0.157351  0  4.082812  0
C  C140  1  0.97370883  0.70832526  0.31248328  1  0.366969  0  -0.065492  -0.127722  0  3.903119  0
C  C141  1  0.52630774  0.79168074  0.81247882  1  0.366805  0  -0.065401  -0.127627  0  3.902858  0
C  C142  1  0.02630498  0.29168316  0.68752185  1  0.366836  0  -0.06534  -0.127357  0  3.902875  0
C  C143  1  0.47369178  0.20831811  0.18752132  1  0.366825  0  -0.065377  -0.127479  0  3.902753  0
C  C144  1  0.92178366  0.79150340  0.32653783  1  1.625247  0  0.206087  0.587589  0  4.208579  0
C  C145  1  0.57823395  0.70850197  0.82653584  1  1.625732  0  0.206029  0.587458  0  4.2088  0
C  C146  1  0.07823232  0.20850502  0.67346453  1  1.625586  0  0.205984  0.587378  0  4.208826  0
C  C147  1  0.42176673  0.29149748  0.17346485  1  1.625712  0  0.206083  0.587494  0  4.208596  0
C  C148  1  0.22616954  0.53243403  0.35515107  1  0.381253  0  0.028013  0.008681  0  3.948455  0
C  C149  1  0.27382699  0.96756505  0.85515023  1  0.381154  0  0.028097  0.008856  0  3.948377  0
C  C150  1  0.77383207  0.46756423  0.64484962  1  0.381239  0  0.028047  0.008817  0  3.948375  0
C  C151  1  0.72617261  0.03243440  0.14484936  1  0.38122  0  0.028045  0.008794  0  3.948448  0
C  C152  1  0.21581689  0.45102827  0.37049749  1  -0.010007  0  -0.116363  -0.227248  0  4.036376  0
C  C153  1  0.28417443  0.04896888  0.87049718  1  -0.010215  0  -0.11645  -0.227385  0  4.036567  0
C  C154  1  0.78417938  0.54897058  0.62950320  1  -0.010232  0  -0.11633  -0.227286  0  4.036402  0
C  C155  1  0.71581959  0.95102937  0.12950407  1  -0.010007  0  -0.116344  -0.227226  0  4.036386  0
C  C156  1  0.31357043  0.41832540  0.32157028  1  0.388174  0  0.021602  0.014793  0  3.97636  0
C  C157  1  0.18642285  0.08167130  0.82157036  1  0.388228  0  0.021585  0.014731  0  3.976396  0
C  C158  1  0.68642784  0.58167226  0.67843152  1  0.388217  0  0.021526  0.014699  0  3.976499  0
C  C159  1  0.81357543  0.91832636  0.17843033  1  0.388203  0  0.021528  0.014691  0  3.976294  0
C  C160  1  0.20298620  0.45796944  0.01866543  1  0.303561  0  0.022166  0.003893  0  3.948343  0
C  C161  1  0.29701146  0.04203410  0.51866293  1  0.303532  0  0.022212  0.0039  0  3.948485  0
C  C162  1  0.79700706  0.54203119  0.98133749  1  0.303536  0  0.022167  0.003829  0  3.948264  0
C  C163  1  0.70298878  0.95797012  0.48133556  1  0.303533  0  0.02224  0.003922  0  3.948487  0
C  C164  1  0.25320645  0.53650134  0.00332179  1  0.004374  0  -0.118883  -0.225482  0  4.019972  0
C  C165  1  0.24679394  0.96350174  0.50332038  1  0.004497  0  -0.118894  -0.225521  0  4.02004  0
C  C166  1  0.74678789  0.46349930  0.99667835  1  0.004421  0  -0.118931  -0.225523  0  4.020014  0
C  C167  1  0.75321056  0.03650189  0.49667810  1  0.004366  0  -0.118893  -0.225469  0  4.02003  0
C  C168  1  0.36827193  0.55345566  0.05298489  1  0.436048  0  0.017451  0.020056  0  3.975353  0
C  C169  1  0.13173042  0.94654490  0.55298510  1  0.436004  0  0.01741  0.020085  0  3.9753  0
C  C170  1  0.63172642  0.44654260  0.94701359  1  0.435924  0  0.017529  0.020208  0  3.97526  0
C  C171  1  0.86827142  0.05345515  0.44701504  1  0.43602  0  0.017439  0.020092  0  3.975472  0
C  C172  1  0.96279357  0.52223525  0.16917738  1  0.348212  0  0.020802  0.002647  0  3.938231  0
C  C173  1  0.53720827  0.97776101  0.66917466  1  0.348269  0  0.020862  0.002965  0  3.93819  0
C  C174  1  0.03720554  0.47776062  0.83082055  1  0.348243  0  0.020846  0.002797  0  3.938321  0
C  C175  1  0.46279399  0.02224203  0.33082880  1  0.413934  0  0.020852  0.002973  0  3.938317  0
C  C176  1  0.96187416  0.44115768  0.18508464  1  -0.015651  0  -0.118641  -0.219798  0  4.015815  0
C  C177  1  0.53812339  0.05883547  0.68508135  1  -0.015177  0  -0.118707  -0.219873  0  4.01627  0
C  C178  1  0.03812255  0.55883641  0.81491329  1  -0.007913  0  -0.11862  -0.219752  0  4.016101  0
C  C179  1  0.46188420  0.94116698  0.31491935  1  -0.081005  0  -0.11871  -0.219948  0  4.01615  0
C  C180  1  0.81500592  0.41550007  0.19495988  1  0.439139  0  0.017147  0.012975  0  3.961968  0
C  C181  1  0.68498704  0.08449900  0.69495829  1  0.438821  0  0.01713  0.012934  0  3.961835  0
C  C182  1  0.18499019  0.58449758  0.80503805  1  0.439261  0  0.017112  0.012925  0  3.961813  0
C  C183  1  0.31501955  0.91550404  0.30503964  1  0.438831  0  0.017093  0.012911  0  3.961745  0
N  N184  1  0.37920736  0.47609814  0.27907567  1  -0.758537  0  -0.251915  -0.169231  0  3.467809  0
N  N185  1  0.12078589  0.02389928  0.77907530  1  -0.758639  0  -0.251876  -0.169117  0  3.467936  0
N  N186  1  0.62078975  0.52389892  0.72092447  1  -0.758573  0  -0.251918  -0.169235  0  3.467965  0
N  N187  1  0.87921363  0.97609957  0.22092374  1  -0.758596  0  -0.251878  -0.169179  0  3.467908  0
N  N188  1  0.32418585  0.54472341  0.30033585  1  -0.825589  0  -0.276072  -0.067469  0  3.698555  0
N  N189  1  0.17581038  0.95527463  0.80033441  1  -0.82564  0  -0.276164  -0.067726  0  3.698673  0
N  N190  1  0.67581459  0.45527425  0.69966540  1  -0.825651  0  -0.276137  -0.067582  0  3.698659  0
N  N191  1  0.82419030  0.04472482  0.19966407  1  -0.825629  0  -0.276149  -0.067725  0  3.698684  0
N  N192  1  0.38656171  0.48956188  0.09591913  1  -0.758135  0  -0.261201  -0.185643  0  3.51504  0
N  N193  1  0.11344132  0.01043966  0.59591935  1  -0.757929  0  -0.26118  -0.185684  0  3.515167  0
N  N194  1  0.61343681  0.51043757  0.90407879  1  -0.758079  0  -0.261227  -0.185739  0  3.515095  0
N  N195  1  0.88655968  0.98956218  0.40408024  1  -0.758116  0  -0.261148  -0.185665  0  3.515128  0
N  N196  1  0.28504506  0.43197704  0.07405873  1  -0.848623  0  -0.277323  -0.086323  0  3.68844  0
N  N197  1  0.21495266  0.06802575  0.57405721  1  -0.848741  0  -0.277299  -0.086295  0  3.688606  0
N  N198  1  0.71494720  0.56802419  0.92594141  1  -0.848586  0  -0.277293  -0.086219  0  3.688371  0
N  N199  1  0.78504325  0.93197846  0.42594238  1  -0.848613  0  -0.277365  -0.086375  0  3.688606  0
N  N200  1  0.73180980  0.47719594  0.18586403  1  -0.755662  0  -0.259341  -0.17431  0  3.506895  0
N  N201  1  0.76819065  0.02280257  0.68586211  1  -0.755987  0  -0.259294  -0.174251  0  3.506825  0
N  N202  1  0.26818940  0.52280053  0.81413667  1  -0.755804  0  -0.259354  -0.174369  0  3.506858  0
N  N203  1  0.23181594  0.97720047  0.31413637  1  -0.75589  0  -0.259355  -0.174365  0  3.506819  0
N  N204  1  0.82355802  0.54158390  0.17025745  1  -0.837703  0  -0.279145  -0.089905  0  3.702801  0
N  N205  1  0.67644498  0.95841295  0.67025489  1  -0.837373  0  -0.279141  -0.09009  0  3.702783  0
N  N206  1  0.17644226  0.45841257  0.82974269  1  -0.837586  0  -0.2791  -0.089922  0  3.702963  0
N  N207  1  0.32356020  0.04158771  0.32974802  1  -0.837469  0  -0.279049  -0.089949  0  3.703015  0
O  O208  1  0.51930986  0.60734409  0.20575492  1  -1.207739  0  -0.31873  -0.567989  0  2.35904  0
O  O209  1  0.98068397  0.89265623  0.70574723  1  -1.207833  0  -0.318703  -0.567921  0  2.358942  0
O  O210  1  0.48068749  0.39265477  0.79424633  1  -1.207644  0  -0.318671  -0.567907  0  2.359045  0
O  O211  1  0.01932222  0.10734383  0.29424627  1  -1.207794  0  -0.318677  -0.567874  0  2.359044  0
O  O212  1  0.70838540  0.68280518  0.15648047  1  -1.205527  0  -0.323959  -0.55297  0  2.213589  0
O  O213  1  0.79160923  0.81719409  0.65647449  1  -1.205738  0  -0.324042  -0.553108  0  2.213544  0
O  O214  1  0.29160754  0.31719307  0.84351580  1  -1.205592  0  -0.32399  -0.552959  0  2.21361  0
O  O215  1  0.20839511  0.18280835  0.34351846  1  -1.205731  0  -0.324022  -0.552979  0  2.213615  0
O  O216  1  0.38875427  0.73691513  0.25006687  1  -1.095702  0  -0.173483  -0.160408  0  2.615603  0
O  O217  1  0.11124549  0.76308605  0.75006365  1  -1.09557  0  -0.173451  -0.160353  0  2.615437  0
O  O218  1  0.61124725  0.26308254  0.74993494  1  -1.095669  0  -0.173469  -0.160398  0  2.61555  0
O  O219  1  0.88875271  0.23691102  0.24993593  1  -1.095695  0  -0.173509  -0.16034  0  2.615616  0
O  O220  1  0.11893729  0.70919821  0.28548696  1  -1.068873  0  -0.179265  -0.174581  0  2.629361  0
O  O221  1  0.38107440  0.79080228  0.78548499  1  -1.068689  0  -0.179362  -0.17468  0  2.629173  0
O  O222  1  0.88107215  0.29080185  0.71451540  1  -1.068604  0  -0.179307  -0.174656  0  2.62928  0
O  O223  1  0.61892495  0.20919538  0.21451404  1  -1.068667  0  -0.179373  -0.174693  0  2.629235  0
O  O224  1  0.79588955  0.79289248  0.35409682  1  -1.203109  0  -0.324686  -0.563222  0  2.204399  0
O  O225  1  0.70413279  0.70711520  0.85410103  1  -1.20314  0  -0.324692  -0.563221  0  2.204208  0
O  O226  1  0.20412684  0.20711892  0.64589723  1  -1.20309  0  -0.324691  -0.563274  0  2.204192  0
O  O227  1  0.29586797  0.29288485  0.14589856  1  -1.203119  0  -0.324749  -0.563294  0  2.204063  0
O  O228  1  0.00980766  0.85070823  0.31099067  1  -1.197367  0  -0.317623  -0.537721  0  2.368862  0
O  O229  1  0.49021908  0.64929877  0.81098915  1  -1.197876  0  -0.317597  -0.537631  0  2.369263  0
O  O230  1  0.99022033  0.14930080  0.68901279  1  -1.197636  0  -0.317596  -0.537614  0  2.369228  0
O  O231  1  0.50978253  0.35069949  0.18901099  1  -1.197853  0  -0.317599  -0.53762  0  2.369272  0
