# generated using pymatgen
data_ZnH14C24N3O4
_symmetry_space_group_name_H-M   'P 1'
_cell_length_a   11.80203613
_cell_length_b   13.19194505
_cell_length_c   19.36664700
_cell_angle_alpha   90.15127062
_cell_angle_beta   87.06108497
_cell_angle_gamma   86.85318174
_symmetry_Int_Tables_number   1
_chemical_formula_structural   ZnH14C24N3O4
_chemical_formula_sum   'Zn2 H28 C48 N6 O8'
_cell_volume   3006.67710483
_cell_formula_units_Z   2
loop_
 _symmetry_equiv_pos_site_id
 _symmetry_equiv_pos_as_xyz
  1  'x, y, z'
loop_
 _atom_site_type_symbol
 _atom_site_label
 _atom_site_symmetry_multiplicity
 _atom_site_fract_x
 _atom_site_fract_y
 _atom_site_fract_z
 _atom_site_occupancy
 _atom_site_pbe_bader_charge
 _atom_site_pbe_bader_spin_density
 _atom_site_pbe_cm5_charge
 _atom_site_pbe_ddec_charge
 _atom_site_pbe_ddec_spin_density
 _atom_site_pbe_ddec_sum_bond_order
 _atom_site_pbe_magmom
Zn  Zn0  1  0.61695738  0.50352715  0.49515578  1  1.271521  0  0.663272  0.810884  0  2.447008  0
Zn  Zn1  1  0.38304250  0.49647099  0.50484207  1  1.272986  0  0.663253  0.81079  0  2.447213  0
H  H2  1  0.67769105  0.47869070  0.27227390  1  0.07517  0  0.105927  0.111846  0  0.998171  0
H  H3  1  0.64185412  0.82369628  0.48963424  1  0.09695  0  0.101871  0.106851  0  1.012119  0
H  H4  1  0.72125940  0.17804746  0.48454416  1  0.059098  0  0.100621  0.105017  0  1.008067  0
H  H5  1  0.27875151  0.82195068  0.51545697  1  0.059203  0  0.100657  0.105115  0  1.008086  0
H  H6  1  0.26381740  0.01160658  0.51718313  1  0.06859  0  0.099826  0.098762  0  0.998659  0
H  H7  1  0.73618592  0.98839081  0.48282082  1  0.068468  0  0.099807  0.098798  0  0.998754  0
H  H8  1  0.81299494  0.41061793  0.56392967  1  0.104146  0  0.135335  0.111837  0  0.964697  0
H  H9  1  0.18700057  0.58938250  0.43606935  1  0.104168  0  0.135322  0.111858  0  0.964637  0
H  H10  1  0.77570504  0.62656780  0.41110891  1  0.123539  0  0.132823  0.111273  0  0.968494  0
H  H11  1  0.22429225  0.37343111  0.58889057  1  0.123566  0  0.132802  0.111243  0  0.968472  0
H  H12  1  0.31494701  0.35630885  0.09414391  1  0.059803  0  0.101026  0.102904  0  0.993675  0
H  H13  1  0.32230678  0.52129910  0.72772814  1  0.07519  0  0.105923  0.111832  0  0.998171  0
H  H14  1  0.12604064  0.35458633  0.04341187  1  0.069011  0  0.101014  0.09617  0  0.992551  0
H  H15  1  0.97835398  0.49234424  0.07223948  1  0.057566  0  0.099323  0.094722  0  1.008802  0
H  H16  1  0.02049110  0.63119582  0.15325224  1  0.049382  0  0.098553  0.092661  0  0.997156  0
H  H17  1  0.21010364  0.63279524  0.20350861  1  0.05232  0  0.100154  0.099643  0  0.99854  0
H  H18  1  0.78990178  0.36720971  0.79648237  1  0.053204  0  0.100161  0.099627  0  0.998425  0
H  H19  1  0.97951973  0.36881821  0.84673289  1  0.049834  0  0.098573  0.092659  0  0.9972  0
H  H20  1  0.02165087  0.50767056  0.92774790  1  0.057755  0  0.099318  0.09478  0  1.008661  0
H  H21  1  0.87395559  0.64541636  0.95658197  1  0.069062  0  0.101083  0.096321  0  0.992598  0
H  H22  1  0.68504541  0.64368628  0.90585778  1  0.059941  0  0.101027  0.102923  0  0.993649  0
H  H23  1  0.01321848  0.35384151  0.60364021  1  0.113137  0  0.123243  0.130557  0  0.972625  0
H  H24  1  0.98677788  0.64615892  0.39635878  1  0.113125  0  0.12325  0.130575  0  0.972582  0
H  H25  1  0.67344148  0.47169437  0.14289192  1  0.087003  0  0.105445  0.106216  0  1.003353  0
H  H26  1  0.32655949  0.52828556  0.85710950  1  0.086975  0  0.10549  0.106353  0  1.003353  0
H  H27  1  0.31369170  0.50443319  0.28707353  1  0.091702  0  0.102764  0.108994  0  1.013458  0
H  H28  1  0.68630569  0.49556420  0.71292491  1  0.091529  0  0.102746  0.108983  0  1.013507  0
H  H29  1  0.35815505  0.17630261  0.51036487  1  0.097113  0  0.101827  0.106785  0  1.01217  0
C  C30  1  0.47078946  0.69879266  0.50094034  1  1.535567  0  0.213746  0.595453  0  4.162087  0
C  C31  1  0.44020577  0.13414199  0.50464446  1  -0.090575  0  -0.079571  -0.136418  0  3.934313  0
C  C32  1  0.55456321  0.97315496  0.49602714  1  0.046574  0  -0.005433  0.07843  0  4.006397  0
C  C33  1  0.44544511  0.02684393  0.50397355  1  -0.007414  0  -0.005522  0.078279  0  4.006388  0
C  C34  1  0.04820117  0.40650460  0.56598917  1  0.026337  0  -0.065128  -0.155424  0  3.957466  0
C  C35  1  0.95179768  0.59349659  0.43400974  1  0.026036  0  -0.065077  -0.155332  0  3.957335  0
C  C36  1  0.16351803  0.41655194  0.55838948  1  0.418132  0  0.054674  0.086079  0  3.915232  0
C  C37  1  0.83647912  0.58344925  0.44161104  1  0.418378  0  0.054612  0.085976  0  3.915222  0
C  C38  1  0.14429587  0.53856326  0.47208270  1  0.617562  0  0.08664  0.079506  0  3.839492  0
C  C39  1  0.85569967  0.46143641  0.52791684  1  0.617588  0  0.086605  0.079571  0  3.839405  0
C  C40  1  0.02450803  0.53411653  0.47569825  1  -0.024953  0  0.012971  0.052907  0  4.00613  0
C  C41  1  0.52922820  0.30120621  0.49905748  1  1.535439  0  0.213911  0.595671  0  4.161694  0
C  C42  1  0.97548832  0.46588390  0.52430126  1  -0.085067  0  0.013055  0.052974  0  4.005973  0
C  C43  1  0.49724068  0.49924968  0.36439210  1  1.558806  0  0.215613  0.592652  0  4.167987  0
C  C44  1  0.50275269  0.50074393  0.63560750  1  1.55883  0  0.215719  0.592965  0  4.167657  0
C  C45  1  0.59755594  0.48388969  0.24665380  1  -0.019674  0  -0.083761  -0.092298  0  3.979988  0
C  C46  1  0.40244282  0.51609860  0.75334821  1  -0.019561  0  -0.08366  -0.092163  0  3.979811  0
C  C47  1  0.59486026  0.47969871  0.17505670  1  -0.028937  0  -0.08331  -0.108923  0  3.991911  0
C  C48  1  0.40513959  0.52028578  0.82494579  1  -0.028917  0  -0.083454  -0.109221  0  3.992104  0
C  C49  1  0.49106680  0.48792581  0.14253525  1  -0.004615  0  -0.00038  -0.021176  0  3.955836  0
C  C50  1  0.50893376  0.51206096  0.85746619  1  -0.004344  0  -0.000438  -0.021097  0  3.955992  0
C  C51  1  0.38748415  0.49608343  0.18283727  1  -0.012843  0  0.00464  0.047411  0  3.95692  0
C  C52  1  0.53794670  0.18747634  0.49800449  1  0.021137  0  -0.019445  -0.027604  0  3.977195  0
C  C53  1  0.61251511  0.50391092  0.81716163  1  -0.013053  0  0.004645  0.047378  0  3.957141  0
C  C54  1  0.39219516  0.50006032  0.25481113  1  0.025655  0  -0.08046  -0.137761  0  3.932781  0
C  C55  1  0.60780410  0.49993403  0.74518932  1  0.025987  0  -0.080427  -0.137724  0  3.932933  0
C  C56  1  0.49567325  0.49512821  0.28701538  1  -0.050951  0  -0.013071  -0.01316  0  3.963013  0
C  C57  1  0.50432435  0.50486538  0.71298409  1  -0.051208  0  -0.013053  -0.013237  0  3.962932  0
C  C58  1  0.50555844  0.50679066  0.93349906  1  0.95623  0  0.241754  0.249403  0  4.000768  0
C  C59  1  0.49444194  0.49319914  0.06650239  1  0.956501  0  0.241757  0.249358  0  4.000927  0
C  C60  1  0.27532261  0.49524772  0.15185090  1  -0.029836  0  -0.00736  0.070476  0  4.024228  0
C  C61  1  0.25054178  0.41707093  0.10656219  1  -0.051217  0  -0.094147  -0.134618  0  3.983056  0
C  C62  1  0.14429079  0.41602388  0.07826682  1  -0.055294  0  -0.095596  -0.080945  0  4.040355  0
C  C63  1  0.46206332  0.81252255  0.50199511  1  0.021474  0  -0.019404  -0.027658  0  3.977324  0
C  C64  1  0.06112110  0.49301017  0.09479394  1  -0.081856  0  -0.097048  -0.09535  0  4.033916  0
C  C65  1  0.08468999  0.57050349  0.14038648  1  -0.008192  0  -0.097407  -0.084022  0  4.049552  0
C  C66  1  0.19074211  0.57130794  0.16896407  1  -0.014398  0  -0.092609  -0.134567  0  3.989914  0
C  C67  1  0.72467879  0.50475346  0.84814794  1  -0.029895  0  -0.007371  0.070361  0  4.024155  0
C  C68  1  0.80926158  0.42869777  0.83102799  1  -0.015105  0  -0.092568  -0.134378  0  3.989653  0
C  C69  1  0.91531673  0.42950828  0.85960291  1  -0.008122  0  -0.097433  -0.084177  0  4.04981  0
C  C70  1  0.93887982  0.50699933  0.90519511  1  -0.082142  0  -0.097036  -0.095287  0  4.033779  0
C  C71  1  0.85570945  0.58398261  0.92172845  1  -0.056438  0  -0.095669  -0.081225  0  4.040392  0
C  C72  1  0.74945457  0.58292949  0.89343525  1  -0.050721  0  -0.094151  -0.134511  0  3.983016  0
C  C73  1  0.34645203  0.97026592  0.51091116  1  -0.109717  0  -0.092631  -0.136086  0  4.010637  0
C  C74  1  0.65355727  0.02973069  0.48909002  1  -0.109757  0  -0.092579  -0.1362  0  4.010733  0
C  C75  1  0.35422932  0.86578983  0.50992481  1  0.047608  0  -0.091139  -0.102026  0  4.009774  0
C  C76  1  0.64577985  0.13420906  0.49007328  1  0.047822  0  -0.091116  -0.101888  0  4.009663  0
C  C77  1  0.55980407  0.86585994  0.49535567  1  -0.09071  0  -0.079616  -0.136407  0  3.93427  0
N  N78  1  0.42250297  0.56201686  0.03720738  1  -0.576064  0  -0.152932  -0.140413  0  3.218742  0
N  N79  1  0.57749942  0.43796763  0.96279348  1  -0.576116  0  -0.152858  -0.140409  0  3.218511  0
N  N80  1  0.42799951  0.56880658  0.96916061  1  -0.524454  0  -0.163553  -0.162499  0  3.202286  0
N  N81  1  0.57200208  0.43117715  0.03083976  1  -0.524527  0  -0.163521  -0.162443  0  3.202184  0
N  N82  1  0.79003943  0.51790046  0.48812861  1  -1.214501  0  -0.305903  -0.17075  0  3.513312  0
N  N83  1  0.20995943  0.48210072  0.51186979  1  -1.214419  0  -0.30585  -0.170627  0  3.513283  0
O  O84  1  0.57050026  0.65602406  0.49639922  1  -1.179228  0  -0.32195  -0.558376  0  2.338427  0
O  O85  1  0.42951557  0.34397708  0.50359349  1  -1.179322  0  -0.322054  -0.558488  0  2.338242  0
O  O86  1  0.37835316  0.65296575  0.50473923  1  -1.166172  0  -0.320577  -0.548543  0  2.307787  0
O  O87  1  0.62166646  0.34702856  0.49525956  1  -1.166025  0  -0.320594  -0.548605  0  2.307597  0
O  O88  1  0.59415556  0.50129554  0.39028155  1  -1.162306  0  -0.318447  -0.549602  0  2.325302  0
O  O89  1  0.40583870  0.49869730  0.60971750  1  -1.162486  0  -0.318483  -0.549731  0  2.325169  0
O  O90  1  0.40175869  0.50000322  0.39828437  1  -1.170886  0  -0.319461  -0.550135  0  2.324075  0
O  O91  1  0.59823534  0.49999342  0.60171366  1  -1.170698  0  -0.319532  -0.550322  0  2.32398  0
