# generated using pymatgen
data_Zn4H52C79(N8F)2
_symmetry_space_group_name_H-M   'P 1'
_cell_length_a   19.63946919
_cell_length_b   20.83618062
_cell_length_c   21.38060652
_cell_angle_alpha   106.95244212
_cell_angle_beta   105.36236240
_cell_angle_gamma   113.72366044
_symmetry_Int_Tables_number   1
_chemical_formula_structural   Zn4H52C79(N8F)2
_chemical_formula_sum   'Zn4 H52 C79 N16 F2'
_cell_volume   6893.43172184
_cell_formula_units_Z   1
loop_
 _symmetry_equiv_pos_site_id
 _symmetry_equiv_pos_as_xyz
  1  'x, y, z'
loop_
 _atom_site_type_symbol
 _atom_site_label
 _atom_site_symmetry_multiplicity
 _atom_site_fract_x
 _atom_site_fract_y
 _atom_site_fract_z
 _atom_site_occupancy
 _atom_site_pbe_bader_charge
 _atom_site_pbe_bader_spin_density
 _atom_site_pbe_cm5_charge
 _atom_site_pbe_ddec_charge
 _atom_site_pbe_ddec_spin_density
 _atom_site_pbe_ddec_sum_bond_order
 _atom_site_pbe_magmom
Zn  Zn0  1  0.40496709  0.38535479  0.49769538  1  1.174107  0  0.744923  0.670517  0  2.240334  0
Zn  Zn1  1  0.62165262  0.62477101  0.50339439  1  1.200862  0  0.758086  0.686757  0  2.299909  0
Zn  Zn2  1  0.41153645  0.49954669  0.41189539  1  1.179256  0  0.740757  0.629919  0  2.396526  0
Zn  Zn3  1  0.61227868  0.52232875  0.60599316  1  1.176855  0  0.768181  0.687714  0  2.258596  0
H  H4  1  0.26704875  0.21820455  0.35333823  1  0.066467  0  0.112078  0.098935  0  1.00909  0
H  H5  1  0.71607142  0.55830628  0.42568266  1  0.093936  0  0.119826  0.10633  0  1.004708  0
H  H6  1  0.64117994  0.02589632  0.55301129  1  0.066716  0  0.106864  0.11241  0  0.980481  0
H  H7  1  0.68131889  0.09633111  0.46203717  1  0.06144  0  0.100116  0.090101  0  0.993427  0
H  H8  1  0.88478285  0.27451794  0.30258360  1  0.073621  0  0.097893  0.090499  0  0.991583  0
H  H9  1  0.99196888  0.41015676  0.51693683  1  0.065137  0  0.097231  0.088675  0  0.989102  0
H  H10  1  0.94450373  0.51636072  0.49242341  1  0.042897  0  0.098346  0.08534  0  0.989865  0
H  H11  1  0.99892987  0.50792481  0.38096865  1  0.044892  0  0.096571  0.082967  0  0.996416  0
H  H12  1  0.83749875  0.38014733  0.27796399  1  0.06927  0  0.097202  0.084888  0  0.997387  0
H  H13  1  0.59336862  0.42031446  0.80215259  1  0.058306  0  0.097417  0.096442  0  1.007395  0
H  H14  1  0.43113817  0.38279135  0.29430629  1  0.119635  0  0.120219  0.116601  0  1.003733  0
H  H15  1  0.62702226  0.77976271  0.54786828  1  0.10647  0  0.112364  0.106373  0  1.029386  0
H  H16  1  0.40704892  0.34583626  0.16196204  1  0.075813  0  0.09984  0.100887  0  0.999546  0
H  H17  1  0.66796329  0.51366997  0.25451054  1  0.068585  0  0.097256  0.095696  0  1.005698  0
H  H18  1  0.59058077  0.40196695  0.00543199  1  0.03544  0  0.096306  0.092256  0  1.013654  0
H  H19  1  0.34753627  0.35996183  0.85134998  1  0.060956  0  0.09842  0.096635  0  1.000874  0
H  H20  1  0.40305072  0.30072340  0.04026555  1  0.037144  0  0.100272  0.099595  0  1.000465  0
H  H21  1  0.35777024  0.40301343  0.75618143  1  0.053904  0  0.098943  0.099522  0  1.000894  0
H  H22  1  0.40415527  0.33884747  0.94976380  1  0.050715  0  0.097027  0.094563  0  1.010017  0
H  H23  1  0.58432431  0.37921819  0.89785906  1  0.032006  0  0.099372  0.098518  0  1.003069  0
H  H24  1  0.66338953  0.46981769  0.13219363  1  0.071247  0  0.097805  0.095818  0  1.001701  0
H  H25  1  0.08662944  0.28752711  0.22050555  1  0.024933  0  0.098588  0.097881  0  1.007572  0
H  H26  1  0.30081822  0.55506607  0.45754234  1  0.094928  0  0.119154  0.115435  0  0.996292  0
H  H27  1  0.69034146  0.76189757  0.84634135  1  0.028627  0  0.099129  0.099175  0  1.004612  0
H  H28  1  0.79244085  0.92334123  0.76183567  1  0.082802  0  0.095221  0.099236  0  1.02217  0
H  H29  1  0.88763260  0.08633518  0.00729589  1  0.072009  0  0.096803  0.094205  0  1.009506  0
H  H30  1  0.98919160  0.00987801  0.16813286  1  0.035655  0  0.098361  0.096934  0  1.000142  0
H  H31  1  0.74949099  0.87230376  0.96529124  1  0.037924  0  0.099949  0.098657  0  1.002837  0
H  H32  1  0.12953295  0.11373549  0.26276060  1  0.046281  0  0.097945  0.098776  0  1.004226  0
H  H33  1  0.86782704  0.96486350  0.06600109  1  0.034624  0  0.096858  0.094169  0  1.009617  0
H  H34  1  0.94812192  0.18360060  0.12404615  1  0.031323  0  0.099405  0.098875  0  1.001906  0
H  H35  1  0.85117398  0.03408098  0.88152714  1  0.076326  0  0.099409  0.097628  0  0.999158  0
H  H36  1  0.63946458  0.59998148  0.33686407  1  0.074784  0  0.118313  0.105023  0  0.991574  0
H  H37  1  0.65589604  0.65933841  0.74513898  1  0.084037  0  0.117734  0.105195  0  1.016989  0
H  H38  1  0.40901732  0.23460474  0.40240564  1  0.122644  0  0.116968  0.111346  0  1.004823  0
H  H39  1  0.64944067  0.39370701  0.51525686  1  0.147468  0  0.12009  0.112533  0  1.052033  0
H  H40  1  0.22459803  0.37468409  0.27529740  1  0.069912  0  0.116068  0.100733  0  1.002631  0
H  H41  1  0.36111755  0.38597806  0.62757086  1  0.085182  0  0.115681  0.102854  0  0.99929  0
H  H42  1  0.32098983  0.64746815  0.37185377  1  0.053812  0  0.100586  0.140427  0  0.979289  0
H  H43  1  0.36872323  0.64890084  0.31241363  1  0.059465  0  0.102997  0.146346  0  0.978328  0
H  H44  1  0.32379988  0.56319904  0.32507235  1  0.004503  0  0.094575  0.12879  0  1.001004  0
H  H45  1  0.84995322  0.23181763  0.42481584  1  0.026555  0  0.089201  0.121126  0  1.001999  0
H  H46  1  0.80277255  0.28034960  0.46167188  1  0.044222  0  0.090259  0.123678  0  1.004053  0
H  H47  1  0.75811273  0.22084212  0.36643621  1  0.027467  0  0.0926  0.127952  0  0.995062  0
H  H48  1  0.21014342  0.33711584  0.47503800  1  0.116503  0  0.123102  0.112193  0  0.982076  0
H  H49  1  0.63295052  0.30212189  0.64425509  1  0.040392  0  0.100519  0.144409  0  0.976242  0
H  H50  1  0.69189628  0.33774875  0.59935795  1  0.034262  0  0.094637  0.131587  0  0.993102  0
H  H51  1  0.67743051  0.40268743  0.66269741  1  0.0213  0  0.091004  0.126542  0  1.002641  0
H  H52  1  0.62495745  0.52645190  0.76413063  1  0.071991  0  0.115959  0.102279  0  1.001285  0
H  H53  1  0.44240802  0.97442624  0.32182460  1  0.071851  0  0.101203  0.090627  0  0.990326  0
H  H54  1  0.57461541  0.94614255  0.33937620  1  0.068289  0  0.099558  0.0878  0  0.993098  0
H  H55  1  0.40126898  0.90333122  0.41237894  1  0.090517  0  0.105878  0.110931  0  0.982343  0
C  C56  1  0.27040945  0.26650841  0.34161903  1  0.406677  0  -0.003896  -0.067  0  4.008455  0
C  C57  1  0.24614965  0.39213146  0.47431437  1  0.415515  0  0.020955  -0.035238  0  3.935398  0
C  C58  1  0.56244502  0.49548834  0.72150484  1  0.398692  0  0.003747  -0.062342  0  3.997951  0
C  C59  1  0.69569095  0.52614446  0.45523739  1  0.468416  0  0.021633  -0.023733  0  3.93483  0
C  C60  1  0.43966936  0.65879188  0.41359068  1  0.481704  0  0.102027  0.220211  0  3.959132  0
C  C61  1  0.48758349  0.44498739  0.71951705  1  0.001615  0  -0.034241  -0.031184  0  4.084005  0
C  C62  1  0.50861661  0.73675767  0.45378181  1  0.089081  0  -0.034184  -0.025145  0  4.17779  0
C  C63  1  0.21996756  0.44130676  0.45709467  1  0.114006  0  -0.030858  0.045809  0  4.201938  0
C  C64  1  0.71174412  0.76640777  0.72720880  1  0.091037  0  -0.038038  -0.146431  0  4.077014  0
C  C65  1  0.55992781  0.97067269  0.38296265  1  -0.036841  0  -0.073056  -0.08248  0  3.625401  0
C  C66  1  0.48620860  0.98499564  0.37304693  1  -0.031793  0  -0.072473  -0.067617  0  3.646835  0
C  C67  1  0.69660334  0.45841976  0.45410781  1  0.065277  0  -0.024606  0.049895  0  4.182843  0
C  C68  1  0.53164666  0.19282973  0.46556743  1  -0.331334  0  -0.057531  -0.081276  0  4.213485  0
C  C69  1  0.51871664  0.80301818  0.44339207  1  -0.364091  0  -0.062991  -0.095043  0  4.225907  0
C  C70  1  0.61912936  0.05309435  0.45099493  1  -0.02106  0  -0.073836  -0.070984  0  3.641411  0
C  C71  1  0.48246774  0.44209513  0.31545419  1  0.391622  0  0.010757  -0.034008  0  3.945281  0
C  C72  1  0.54521033  0.06887164  0.44118244  1  0.078886  0  -0.001679  0.068849  0  3.826719  0
C  C73  1  0.59738975  0.01533257  0.50181159  1  -0.029901  0  -0.078098  -0.160275  0  3.633645  0
C  C74  1  0.53714112  0.93142863  0.43368660  1  0.098447  0  0.005344  0.154896  0  3.806712  0
C  C75  1  0.52323085  0.02802371  0.49089997  1  0.604959  0  0.105465  0.270825  0  3.720135  0
C  C76  1  0.46308465  0.94683626  0.42314005  1  -0.061562  0  -0.078634  -0.159711  0  3.636053  0
C  C77  1  0.54342254  0.13811633  0.44994909  1  -0.052293  0  -0.075126  -0.154088  0  4.148508  0
C  C78  1  0.53700749  0.47320389  0.28659468  1  0.052836  0  -0.034541  -0.040591  0  4.074228  0
C  C79  1  0.52964401  0.86132129  0.43491934  1  -0.000216  0  -0.068608  -0.155943  0  4.145322  0
C  C80  1  0.89790895  0.32857777  0.34480532  1  -0.057806  0  -0.074679  -0.119961  0  3.61349  0
C  C81  1  0.86851329  0.33248800  0.40667267  1  0.046584  0  0.002289  0.144209  0  3.645344  0
C  C82  1  0.73374411  0.42274716  0.42113935  1  -0.272927  0  -0.063095  -0.114997  0  4.195716  0
C  C83  1  0.57138814  0.32350430  0.56033525  1  0.468465  0  0.093497  0.210822  0  3.993863  0
C  C84  1  0.13898675  0.42713254  0.43465052  1  -0.474553  0  -0.068655  -0.119936  0  4.218554  0
C  C85  1  0.87236927  0.38722867  0.33129286  1  -0.033818  0  -0.076006  -0.083084  0  3.656817  0
C  C86  1  0.84254504  0.39261484  0.39360500  1  0.089038  0  0.00289  0.096208  0  3.782169  0
C  C87  1  0.96082911  0.45814438  0.38841397  1  -0.019161  0  -0.075211  -0.080169  0  3.648023  0
C  C88  1  0.98801886  0.39982510  0.40257376  1  0.105581  0  0.002537  0.137393  0  3.818668  0
C  C89  1  0.52137500  0.25704401  0.49041821  1  0.159351  0  -0.035399  -0.030239  0  4.175145  0
C  C90  1  0.93303127  0.46303666  0.45065131  1  -0.0054  0  -0.07326  -0.069436  0  3.653471  0
C  C91  1  0.95691644  0.40386129  0.46404537  1  -0.058236  0  -0.074773  -0.117493  0  3.619511  0
C  C92  1  0.77536626  0.39987327  0.39949737  1  -0.077668  0  -0.061658  -0.129774  0  4.127189  0
C  C93  1  0.06704375  0.41023965  0.41421087  1  0.109456  0  -0.066935  -0.142546  0  4.145991  0
C  C94  1  0.47770764  0.41746402  0.77377178  1  0.007317  0  -0.011468  0.082788  0  4.050732  0
C  C95  1  0.58904915  0.55302512  0.33779983  1  0.397196  0  0.009018  -0.045756  0  4.004939  0
C  C96  1  0.54028670  0.40901862  0.81428091  1  -0.101057  0  -0.096298  -0.135298  0  4.011043  0
C  C97  1  0.53484066  0.38538756  0.86789169  1  0.008412  0  -0.093782  -0.127028  0  3.989506  0
C  C98  1  0.46637562  0.36933516  0.88403218  1  0.020044  0  -0.018525  0.104244  0  4.057941  0
C  C99  1  0.40167989  0.37321633  0.84047982  1  -0.104712  0  -0.094355  -0.132883  0  3.997779  0
C  C100  1  0.42789523  0.42427843  0.65187640  1  0.39798  0  0.006539  -0.046227  0  3.971811  0
C  C101  1  0.40730503  0.39730743  0.78685749  1  -0.000107  0  -0.097869  -0.136845  0  4.015393  0
C  C102  1  0.46122454  0.34814663  0.08701990  1  -0.035024  0  -0.093461  -0.128693  0  3.986984  0
C  C103  1  0.46368768  0.37314075  0.15577923  1  -0.099088  0  -0.09346  -0.131893  0  3.996646  0
C  C104  1  0.60944121  0.46754271  0.20750630  1  -0.11537  0  -0.098459  -0.138613  0  4.015676  0
C  C105  1  0.60707877  0.44233709  0.13885311  1  -0.058228  0  -0.094507  -0.132066  0  4.00355  0
C  C106  1  0.53198292  0.38568008  0.07644155  1  0.04675  0  -0.017522  0.104033  0  4.061267  0
C  C107  1  0.46003978  0.27013889  0.45645573  1  0.366771  0  0.006798  -0.051381  0  3.979741  0
C  C108  1  0.46353756  0.35713982  0.94715250  1  -0.079084  0  -0.097259  -0.140498  0  4.018281  0
C  C109  1  0.53004000  0.37784474  0.00603725  1  -0.048941  0  -0.09716  -0.137119  0  4.017304  0
C  C110  1  0.53688387  0.43636776  0.21700990  1  0.038252  0  -0.010132  0.085845  0  4.04271  0
C  C111  1  0.56573944  0.73278755  0.50596634  1  0.416911  0  0.007337  -0.046761  0  3.975228  0
C  C112  1  0.12119888  0.20843735  0.24591728  1  -0.033103  0  -0.010707  0.088949  0  4.044891  0
C  C113  1  0.06640578  0.22638760  0.20797776  1  0.029842  0  -0.09538  -0.134753  0  3.998818  0
C  C114  1  0.98794494  0.16775842  0.15378272  1  -0.047021  0  -0.095424  -0.131545  0  3.996314  0
C  C115  1  0.95998925  0.08796702  0.13542767  1  -0.031752  0  -0.019834  0.10163  0  4.061467  0
C  C116  1  0.01076319  0.07106135  0.17959829  1  -0.099061  0  -0.094982  -0.133082  0  4.002461  0
C  C117  1  0.08999057  0.12969668  0.23288411  1  0.036751  0  -0.100125  -0.140183  0  4.011565  0
C  C118  1  0.75994756  0.88396716  0.92109264  1  -0.057604  0  -0.093346  -0.128689  0  3.992388  0
C  C119  1  0.66173884  0.44152332  0.50088158  1  0.432205  0  0.018161  -0.031634  0  3.910574  0
C  C120  1  0.72648799  0.82148086  0.85359359  1  0.022487  0  -0.095369  -0.133118  0  3.9943  0
C  C121  1  0.78263515  0.91148512  0.80605455  1  -0.007863  0  -0.098912  -0.138674  0  3.999946  0
C  C122  1  0.29234777  0.50366428  0.46539959  1  0.396763  0  0.005148  -0.062325  0  3.953374  0
C  C123  1  0.81554848  0.97406145  0.87365975  1  -0.117858  0  -0.092541  -0.127559  0  3.99156  0
C  C124  1  0.80883016  0.96205982  0.93382164  1  -0.004158  0  -0.017542  0.103996  0  4.059273  0
C  C125  1  0.88935919  0.02314534  0.06825745  1  0.021042  0  -0.096757  -0.138538  0  4.013243  0
C  C126  1  0.86063117  0.02835871  0.00598632  1  -0.118557  0  -0.097063  -0.139164  0  4.012357  0
C  C127  1  0.73967271  0.83340295  0.79506026  1  -0.02302  0  -0.013155  0.10054  0  4.045717  0
C  C128  1  0.24828967  0.34623858  0.30225200  1  0.388471  0  0.008453  -0.047431  0  3.9869  0
C  C129  1  0.20739624  0.26928823  0.29429074  1  0.014455  0  -0.039455  -0.04383  0  4.092923  0
C  C130  1  0.35908126  0.62771679  0.35255392  1  -0.014875  0  -0.227018  -0.421841  0  3.987835  0
C  C131  1  0.81713867  0.26278828  0.41542227  1  -0.058341  0  -0.237548  -0.414001  0  4.012141  0
C  C132  1  0.64745039  0.34263375  0.61978774  1  -0.014866  0  -0.231456  -0.42138  0  3.989166  0
C  C133  1  0.67421541  0.68653153  0.71151110  1  0.398551  0  0.012252  -0.021327  0  3.986082  0
C  C134  1  0.71834863  0.76284278  0.66252378  1  1.019205  0  0.203626  0.336924  0  4.06295  0
N  N135  1  0.34265951  0.33623387  0.37562865  1  -0.757166  0  -0.274441  -0.236308  0  3.434037  0
N  N136  1  0.50072347  0.49913495  0.37851509  1  -0.826246  0  -0.285383  -0.215837  0  3.576252  0
N  N137  1  0.54188960  0.37163723  0.56682114  1  -0.758599  0  -0.260186  -0.291858  0  3.34122  0
N  N138  1  0.56662755  0.56818866  0.39194419  1  -0.792284  0  -0.285316  -0.206316  0  3.56692  0
N  N139  1  0.47294030  0.33840499  0.50313866  1  -0.811453  0  -0.293791  -0.205794  0  3.726263  0
N  N140  1  0.64295235  0.49592575  0.52807121  1  -0.81249  0  -0.290565  -0.192204  0  3.67085  0
N  N141  1  0.32797768  0.38496246  0.35026227  1  -0.807612  0  -0.284341  -0.178204  0  3.637092  0
N  N142  1  0.46448594  0.45824658  0.61567733  1  -0.757578  0  -0.269687  -0.206581  0  3.486398  0
N  N143  1  0.53455169  0.65837505  0.49745357  1  -0.803161  0  -0.285747  -0.223829  0  3.542085  0
N  N144  1  0.35627737  0.49195191  0.48500041  1  -0.764216  0  -0.280451  -0.22291  0  3.47431  0
N  N145  1  0.66135097  0.64166051  0.64477684  1  -0.802058  0  -0.282309  -0.204248  0  3.573641  0
N  N146  1  0.68937649  0.69002973  0.61356055  1  -0.816627  0  -0.287761  -0.306382  0  3.531172  0
N  N147  1  0.32659156  0.42313419  0.49057778  1  -0.795846  0  -0.279757  -0.166896  0  3.651918  0
N  N148  1  0.54736009  0.50289755  0.65951832  1  -0.795593  0  -0.294174  -0.18246  0  3.698662  0
N  N149  1  0.45705046  0.61347475  0.44046614  1  -0.782972  0  -0.276363  -0.224747  0  3.56184  0
N  N150  1  0.66388841  0.54813083  0.49974649  1  -0.796569  0  -0.275211  -0.196674  0  3.574818  0
F  F151  1  0.74950122  0.82263159  0.64554714  1  -0.64285  0  -0.0846  -0.142  0  1.355015  0
F  F152  1  0.50503167  0.05834715  0.54599529  1  -0.641242  0  -0.136521  -0.195264  0  1.268252  0
