# generated using pymatgen
data_H18RuC22NO6
_symmetry_space_group_name_H-M   'P 1'
_cell_length_a   9.43705952
_cell_length_b   10.56161189
_cell_length_c   10.93429069
_cell_angle_alpha   84.57122189
_cell_angle_beta   87.18671966
_cell_angle_gamma   82.14107742
_symmetry_Int_Tables_number   1
_chemical_formula_structural   H18RuC22NO6
_chemical_formula_sum   'H36 Ru2 C44 N2 O12'
_cell_volume   1074.02637715
_cell_formula_units_Z   2
loop_
 _symmetry_equiv_pos_site_id
 _symmetry_equiv_pos_as_xyz
  1  'x, y, z'
loop_
 _atom_site_type_symbol
 _atom_site_label
 _atom_site_symmetry_multiplicity
 _atom_site_fract_x
 _atom_site_fract_y
 _atom_site_fract_z
 _atom_site_occupancy
 _atom_site_pbe_cm5_charge
 _atom_site_pbe_ddec_charge
 _atom_site_pbe_ddec_spin_density
 _atom_site_pbe_ddec_sum_bond_order
 _atom_site_pbe_magmom
H  H0  1  0.76261961  0.73840369  0.04481996  1  0.103707  0.118888  0.000703  1.06072  0.0
H  H1  1  0.23735866  0.26159645  0.95518279  1  0.103731  0.118918  0.000705  1.060593  0.0
H  H2  1  0.69587991  0.16510653  0.17412566  1  0.104777  0.118312  0.000575  1.059798  0.0
H  H3  1  0.30410628  0.83486395  0.82587692  1  0.104757  0.118239  0.000576  1.059961  0.0
H  H4  1  0.65862810  0.27500775  0.79406222  1  0.109146  0.117303  -7.2e-05  0.990811  0.0
H  H5  1  0.34139121  0.72498690  0.20590698  1  0.109136  0.117312  -7.1e-05  0.990703  0.0
H  H6  1  0.27303338  0.06552065  0.32322653  1  0.106672  0.111221  -4.8e-05  0.99497  0.0
H  H7  1  0.72697526  0.93448132  0.67675274  1  0.106684  0.111227  -4.8e-05  0.994992  0.0
H  H8  1  0.67251246  0.56951860  0.93828488  1  0.093308  0.087753  -0.000228  1.040335  0.0
H  H9  1  0.32748625  0.43046644  0.06171521  1  0.093367  0.087845  -0.000228  1.040307  0.0
H  H10  1  0.55115598  0.38016510  0.17725270  1  0.093964  0.08502  -0.00015  1.028396  0.0
H  H11  1  0.44883822  0.61980836  0.82274839  1  0.094034  0.085103  -0.00015  1.028426  0.0
H  H12  1  0.93366488  0.64097978  0.68934822  1  0.09762  0.101561  1e-06  1.080541  0.0
H  H13  1  0.06631678  0.35904035  0.31069784  1  0.097595  0.101555  1e-06  1.080482  0.0
H  H14  1  0.55932998  0.45992152  0.64920643  1  0.098543  0.097085  1.2e-05  1.00169  0.0
H  H15  1  0.44068402  0.54008031  0.35077991  1  0.09858  0.09714  1.2e-05  1.001668  0.0
H  H16  1  0.87507898  0.23864154  0.59905475  1  0.096544  0.103298  -2.9e-05  1.070236  0.0
H  H17  1  0.12495539  0.76135876  0.40092343  1  0.096461  0.103284  -2.9e-05  1.070162  0.0
H  H18  1  0.32354006  0.11359584  0.53564911  1  0.099889  0.09958  -5e-06  0.994415  0.0
H  H19  1  0.67647874  0.88641519  0.46431718  1  0.099835  0.099457  -5e-06  0.994519  0.0
H  H20  1  0.20493080  0.55366929  0.90986727  1  0.106371  0.113397  1e-05  1.006798  0.0
H  H21  1  0.79501933  0.44635596  0.09019270  1  0.106348  0.113448  1e-05  1.00674  0.0
H  H22  1  0.15894782  0.59620543  0.75291805  1  0.097579  0.099815  -5e-06  1.004744  0.0
H  H23  1  0.84102986  0.40383342  0.24714430  1  0.09771  0.100015  -4e-06  1.004517  0.0
H  H24  1  0.03864723  0.65194686  0.87483743  1  0.103113  0.113815  -6.1e-05  0.991986  0.0
H  H25  1  0.96129197  0.34806027  0.12521513  1  0.103076  0.113619  -6e-05  0.9921  0.0
H  H26  1  0.70553094  0.64029166  0.59414250  1  0.096548  0.08824  -5e-05  1.025992  0.0
H  H27  1  0.29446135  0.35972795  0.40589029  1  0.096558  0.08831  -5e-05  1.026031  0.0
H  H28  1  0.58544164  0.23682788  0.40165325  1  0.106546  0.113564  4e-05  0.994192  0.0
H  H29  1  0.41457978  0.76316785  0.59834872  1  0.106543  0.113626  4e-05  0.993954  0.0
H  H30  1  0.67264375  0.16767843  0.53977446  1  0.098453  0.097461  -2.6e-05  1.005071  0.0
H  H31  1  0.32738394  0.83232428  0.46021943  1  0.098494  0.097552  -2.5e-05  1.004963  0.0
H  H32  1  0.69230513  0.32918033  0.48166905  1  0.092662  0.089015  -9e-06  1.028949  0.0
H  H33  1  0.30771403  0.67082247  0.51831882  1  0.092633  0.089032  -9e-06  1.029003  0.0
H  H34  1  0.12050341  0.20186906  0.67207884  1  0.105454  0.111653  1e-06  1.003864  0.0
H  H35  1  0.87952667  0.79814473  0.32789588  1  0.105413  0.111693  -0.0  1.00382  0.0
Ru  Ru36  1  0.88221383  0.98266589  0.02778576  1  0.72962  0.715951  1.064905  3.875515  0.991
Ru  Ru37  1  0.11779458  0.01733110  0.97220026  1  0.729841  0.716219  1.064889  3.875615  0.991
C  C38  1  0.90955444  0.23099389  0.89286201  1  0.213428  0.543849  -0.008598  4.143532  -0.004
C  C39  1  0.09044311  0.76899812  0.10712759  1  0.213365  0.543698  -0.0086  4.143262  -0.004
C  C40  1  0.02598162  0.08020469  0.21942146  1  0.210159  0.539217  -0.008755  4.139948  -0.004
C  C41  1  0.97401767  0.91978946  0.78056060  1  0.210113  0.538938  -0.008757  4.139956  -0.004
C  C42  1  0.58454212  0.88386284  0.99693011  1  0.102692  0.161677  -0.008012  3.991563  -0.001
C  C43  1  0.41545693  0.11613354  0.00307651  1  0.10273  0.161854  -0.007999  3.990851  -0.001
C  C44  1  0.55186197  0.09089355  0.06003618  1  0.104835  0.16842  -0.009551  3.984208  -0.002
C  C45  1  0.44813365  0.90909119  0.93997414  1  0.10489  0.168585  -0.009548  3.983384  -0.002
C  C46  1  0.85294584  0.35078889  0.82009983  1  -0.027017  -0.15037  -0.000568  3.974367  0.0
C  C47  1  0.14705157  0.64921072  0.17989292  1  -0.026957  -0.150142  -0.000567  3.974067  0.0
C  C48  1  0.04647423  0.11705963  0.34375410  1  -0.028187  -0.149503  -0.00063  3.979096  0.0
C  C49  1  0.95354640  0.88294044  0.65622840  1  -0.028022  -0.149124  -0.000629  3.979444  0.0
C  C50  1  0.66246697  0.75869982  0.99709609  1  -0.099206  -0.167529  -0.005788  3.964964  -0.003
C  C51  1  0.33751949  0.24128889  0.00290614  1  -0.099273  -0.167599  -0.005803  3.964882  -0.003
C  C52  1  0.59625336  0.18742809  0.12589858  1  -0.099781  -0.164419  -0.006636  3.976115  -0.003
C  C53  1  0.40372997  0.81254707  0.87410747  1  -0.099798  -0.164429  -0.00665  3.975641  -0.003
C  C54  1  0.93055002  0.45677294  0.79422642  1  0.097323  0.246712  -0.001736  4.007963  -0.001
C  C55  1  0.06944108  0.54323366  0.20578993  1  0.097316  0.24656  -0.001738  4.007734  -0.001
C  C56  1  0.71826909  0.35561458  0.76921625  1  -0.083532  -0.079753  -0.002277  3.994672  -0.001
C  C57  1  0.28173933  0.64438237  0.23077160  1  -0.083449  -0.079722  -0.002279  3.99435  -0.001
C  C58  1  0.93208462  0.16647778  0.42210455  1  0.095185  0.240786  -0.002232  4.013487  -0.001
C  C59  1  0.06793234  0.83353194  0.57787471  1  0.094933  0.240257  -0.002233  4.014145  -0.001
C  C60  1  0.18665453  0.10140845  0.38595751  1  -0.084452  -0.078472  -0.00207  3.992309  -0.001
C  C61  1  0.81335896  0.89859641  0.61402316  1  -0.084411  -0.078358  -0.002072  3.99218  -0.001
C  C62  1  0.61222768  0.66527583  0.93784228  1  -0.097262  -0.073412  -0.009791  4.027645  -0.005
C  C63  1  0.38775614  0.33471590  0.06215347  1  -0.097368  -0.073543  -0.009773  4.028016  -0.005
C  C64  1  0.51584804  0.30637642  0.12708998  1  -0.10012  -0.086032  -0.0099  4.043089  -0.005
C  C65  1  0.48412977  0.69359989  0.87290710  1  -0.100205  -0.086088  -0.009883  4.042645  -0.005
C  C66  1  0.87560839  0.55928558  0.71148164  1  -0.10685  -0.213692  9.1e-05  3.98542  0.0
C  C67  1  0.12437339  0.44073368  0.28856081  1  -0.10685  -0.213685  9.2e-05  3.985358  0.0
C  C68  1  0.66378196  0.45832469  0.68819898  1  -0.109404  -0.136395  0.000233  4.085182  0.0
C  C69  1  0.33622909  0.54167593  0.31179582  1  -0.109509  -0.136549  0.000233  4.084998  0.0
C  C70  1  0.96155570  0.19857940  0.53890847  1  -0.113519  -0.224546  0.000132  3.996877  0.0
C  C71  1  0.03847299  0.80143633  0.46106436  1  -0.11323  -0.223886  0.000133  3.99628  0.0
C  C72  1  0.21457019  0.13011985  0.50320731  1  -0.103111  -0.117675  0.000499  4.046177  0.001
C  C73  1  0.78545499  0.86989785  0.49676280  1  -0.103167  -0.117694  0.000499  4.046414  0.001
C  C74  1  0.11674905  0.57188613  0.84647979  1  -0.135237  -0.167423  -6e-06  3.862148  0.0
C  C75  1  0.88320915  0.42813473  0.15356731  1  -0.135218  -0.167463  -6e-06  3.861861  0.0
C  C76  1  0.74459822  0.55893080  0.65808853  1  -0.08511  -0.039382  -0.002456  4.02532  -0.001
C  C77  1  0.25539913  0.44108338  0.34193343  1  -0.085084  -0.039431  -0.002458  4.025508  -0.001
C  C78  1  0.68104320  0.23286316  0.45570686  1  -0.137732  -0.176644  6.1e-05  3.907198  0.0
C  C79  1  0.31897724  0.76713850  0.54428835  1  -0.137808  -0.176872  6.1e-05  3.906927  0.0
C  C80  1  0.10123807  0.17932558  0.57955175  1  -0.080911  -0.02788  -0.002368  3.978092  -0.001
C  C81  1  0.89878532  0.82069013  0.42042040  1  -0.080853  -0.028147  -0.00237  3.978206  -0.001
N  N82  1  0.63902637  0.97731660  0.05114105  1  -0.327136  -0.299103  -0.042941  3.384559  -0.039
N  N83  1  0.36095240  0.02267386  0.94886508  1  -0.327215  -0.299267  -0.042993  3.383898  -0.039
O  O84  1  0.81831636  0.16314721  0.94645973  1  -0.295363  -0.459889  0.011187  2.51997  0.013
O  O85  1  0.18168219  0.83685166  0.05352479  1  -0.295434  -0.459998  0.011188  2.519799  0.013
O  O86  1  0.90564062  0.04673536  0.19420807  1  -0.294939  -0.45113  0.01705  2.521582  0.018
O  O87  1  0.09436251  0.95326151  0.80578095  1  -0.295001  -0.451109  0.017056  2.521336  0.018
O  O88  1  0.95447931  0.80360706  0.10598395  1  -0.296669  -0.45934  0.01526  2.505029  0.015
O  O89  1  0.04552008  0.19638680  0.89400910  1  -0.296705  -0.459445  0.015265  2.505129  0.015
O  O90  1  0.86736265  0.91859330  0.85824915  1  -0.30093  -0.46276  0.01474  2.474499  0.016
O  O91  1  0.13264064  0.08139591  0.14173947  1  -0.3009  -0.462764  0.014737  2.474733  0.016
O  O92  1  0.05333704  0.45523834  0.85454534  1  -0.179222  -0.147672  -0.000269  2.577743  0.0
O  O93  1  0.94665470  0.54477103  0.14547537  1  -0.179277  -0.147592  -0.000269  2.577875  0.0
O  O94  1  0.79796027  0.18506214  0.37732052  1  -0.178488  -0.150633  -0.000211  2.626034  0.0
O  O95  1  0.20205208  0.81493007  0.62266656  1  -0.178366  -0.150513  -0.000211  2.626144  0.0
