# generated using pymatgen
data_ErH6(CO)8
_symmetry_space_group_name_H-M   'P 1'
_cell_length_a   8.79277688
_cell_length_b   8.79282060
_cell_length_c   12.55299712
_cell_angle_alpha   83.49897752
_cell_angle_beta   83.49942611
_cell_angle_gamma   87.02268051
_symmetry_Int_Tables_number   1
_chemical_formula_structural   ErH6(CO)8
_chemical_formula_sum   'Er4 H24 C32 O32'
_cell_volume   957.32094931
_cell_formula_units_Z   4
loop_
 _symmetry_equiv_pos_site_id
 _symmetry_equiv_pos_as_xyz
  1  'x, y, z'
loop_
 _atom_site_type_symbol
 _atom_site_label
 _atom_site_symmetry_multiplicity
 _atom_site_fract_x
 _atom_site_fract_y
 _atom_site_fract_z
 _atom_site_occupancy
 _atom_site_pbe_bader_spin_density
 _atom_site_pbe_cm5_charge
 _atom_site_pbe_ddec_charge
 _atom_site_pbe_ddec_spin_density
 _atom_site_pbe_ddec_sum_bond_order
 _atom_site_pbe_magmom
Er  Er0  1  0.73519691  0.80711819  0.77745358  1  0  1.535212  2.055407  0  2.227144  0
Er  Er1  1  0.19288731  0.26479968  0.72254759  1  0  1.535219  2.05537  0  2.227265  0
Er  Er2  1  0.26479955  0.19288835  0.22254565  1  0  1.535219  2.055417  0  2.227135  0
Er  Er3  1  0.80711634  0.73519884  0.27745329  1  0  1.535217  2.05541  0  2.22718  0
H  H4  1  0.44813683  0.81895274  0.02395267  1  0  0.108846  0.076258  0  0.972103  0
H  H5  1  0.18105224  0.55186067  0.47604900  1  0  0.108876  0.076302  0  0.972152  0
H  H6  1  0.55186439  0.18104921  0.97604813  1  0  0.108853  0.076264  0  0.972112  0
H  H7  1  0.81895141  0.44813784  0.52395188  1  0  0.108852  0.076228  0  0.97217  0
H  H8  1  0.40533705  0.61916534  0.03408882  1  0  0.101996  0.073676  0  1.004676  0
H  H9  1  0.38084144  0.59465953  0.46591165  1  0  0.102  0.073707  0  1.004664  0
H  H10  1  0.59466641  0.38083776  0.96591330  1  0  0.101993  0.07369  0  1.00465  0
H  H11  1  0.61916234  0.40533555  0.53408790  1  0  0.101973  0.07366  0  1.004653  0
H  H12  1  0.26311323  0.78998221  0.89579846  1  0  0.108027  0.085361  0  0.988806  0
H  H13  1  0.21002190  0.73687724  0.60420516  1  0  0.108038  0.085346  0  0.988867  0
H  H14  1  0.73687778  0.21001746  0.10420733  1  0  0.108032  0.085334  0  0.988796  0
H  H15  1  0.78998417  0.26311784  0.39579580  1  0  0.108001  0.08529  0  0.988847  0
H  H16  1  0.37968689  0.63866278  0.84014564  1  0  0.1062  0.0737  0  0.987167  0
H  H17  1  0.36134498  0.62030778  0.65985734  1  0  0.106182  0.073718  0  0.987129  0
H  H18  1  0.62030976  0.36133918  0.15985792  1  0  0.106182  0.073712  0  0.987146  0
H  H19  1  0.63866334  0.37968844  0.34014335  1  0  0.106194  0.073704  0  0.98716  0
H  H20  1  0.67872893  0.68456804  0.01092584  1  0  0.310085  0.358911  0  0.962957  0
H  H21  1  0.31543311  0.32127172  0.48907456  1  0  0.310102  0.35895  0  0.962908  0
H  H22  1  0.32127692  0.31543276  0.98906990  1  0  0.310109  0.358938  0  0.962888  0
H  H23  1  0.68456710  0.67872679  0.51092420  1  0  0.310092  0.35895  0  0.96293  0
H  H24  1  0.41131919  0.92910514  0.76216817  1  0  0.315332  0.373107  0  0.952742  0
H  H25  1  0.07089687  0.58866265  0.73782837  1  0  0.315328  0.373056  0  0.952928  0
H  H26  1  0.58866614  0.07089337  0.23783020  1  0  0.315313  0.373057  0  0.952893  0
H  H27  1  0.92910819  0.41132898  0.26216658  1  0  0.315355  0.373097  0  0.952789  0
C  C28  1  0.56627048  0.91991059  0.54466332  1  0  0.114264  0.182994  0  4.104027  0
C  C29  1  0.08009855  0.43371057  0.95532363  1  0  0.114219  0.182929  0  4.104661  0
C  C30  1  0.43370934  0.08008218  0.45532718  1  0  0.114192  0.18293  0  4.104193  0
C  C31  1  0.91992659  0.56626501  0.04465825  1  0  0.114176  0.182742  0  4.103999  0
C  C32  1  0.43653170  0.02772283  0.57116534  1  0  0.11676  0.192356  0  4.080732  0
C  C33  1  0.97227715  0.56344360  0.92884017  1  0  0.116638  0.192203  0  4.081045  0
C  C34  1  0.56344338  0.97227453  0.42883632  1  0  0.116595  0.192167  0  4.080892  0
C  C35  1  0.02772746  0.43653087  0.07117291  1  0  0.116749  0.192429  0  4.081424  0
C  C36  1  0.91135683  0.96915120  0.95894148  1  0  0.120636  0.212493  0  4.107983  0
C  C37  1  0.03084989  0.08864524  0.54105406  1  0  0.120543  0.212412  0  4.107826  0
C  C38  1  0.08863784  0.03084273  0.04105651  1  0  0.120539  0.212373  0  4.107771  0
C  C39  1  0.96916594  0.91136358  0.45893944  1  0  0.120577  0.212347  0  4.107988  0
C  C40  1  0.06790915  0.02333895  0.92669918  1  0  0.118727  0.196595  0  4.116898  0
C  C41  1  0.97665846  0.93207379  0.57332398  1  0  0.118631  0.196727  0  4.117349  0
C  C42  1  0.93206737  0.97665158  0.07332841  1  0  0.118598  0.196667  0  4.117545  0
C  C43  1  0.02334663  0.06791788  0.42669407  1  0  0.118745  0.19662  0  4.117212  0
C  C44  1  0.69189741  0.19551202  0.74114922  1  0  0.124497  0.209257  0  4.095545  0
C  C45  1  0.80449387  0.30811375  0.75884843  1  0  0.124422  0.20913  0  4.095532  0
C  C46  1  0.30810455  0.80450024  0.25884991  1  0  0.124474  0.209237  0  4.095739  0
C  C47  1  0.19550603  0.69189278  0.24115290  1  0  0.124515  0.209276  0  4.095878  0
C  C48  1  0.56923564  0.31611575  0.74904854  1  0  0.115744  0.199231  0  4.133762  0
C  C49  1  0.68387668  0.43078494  0.75095589  1  0  0.116  0.199674  0  4.134045  0
C  C50  1  0.43077360  0.68388621  0.25095640  1  0  0.115911  0.19948  0  4.134074  0
C  C51  1  0.31611676  0.56923992  0.24904529  1  0  0.115798  0.199311  0  4.134074  0
C  C52  1  0.45790720  0.71534634  0.98139211  1  0  -0.074941  0.050926  0  3.890213  0
C  C53  1  0.28466230  0.54208699  0.51860846  1  0  -0.074925  0.050894  0  3.890238  0
C  C54  1  0.54209279  0.28465791  0.01860781  1  0  -0.074931  0.050906  0  3.890225  0
C  C55  1  0.71534492  0.45790809  0.48139082  1  0  -0.074917  0.050977  0  3.890237  0
C  C56  1  0.38101923  0.74481137  0.87908350  1  0  -0.072226  0.060869  0  3.883594  0
C  C57  1  0.25519499  0.61897362  0.62091704  1  0  -0.072253  0.060784  0  3.883507  0
C  C58  1  0.61897631  0.25518943  0.12091785  1  0  -0.072191  0.060886  0  3.88348  0
C  C59  1  0.74481219  0.38102261  0.37908215  1  0  -0.07217  0.06098  0  3.883509  0
O  O60  1  0.64702317  0.82137152  0.59665302  1  0  -0.328458  -0.510132  0  2.450883  0
O  O61  1  0.17862712  0.35298277  0.90334844  1  0  -0.328341  -0.509885  0  2.451788  0
O  O62  1  0.35297333  0.17863387  0.40334550  1  0  -0.328372  -0.50996  0  2.450973  0
O  O63  1  0.82137063  0.64702033  0.09665732  1  0  -0.328508  -0.510125  0  2.450311  0
O  O64  1  0.35797825  0.05801073  0.65754530  1  0  -0.333532  -0.509847  0  2.43125  0
O  O65  1  0.94198256  0.64200793  0.84244841  1  0  -0.333593  -0.509978  0  2.430809  0
O  O66  1  0.64201544  0.94197860  0.34244278  1  0  -0.333577  -0.509967  0  2.430894  0
O  O67  1  0.05801622  0.35799744  0.15753559  1  0  -0.333488  -0.509753  0  2.431997  0
O  O68  1  0.80288227  0.93198386  0.91163977  1  0  -0.391704  -0.555612  0  2.465948  0
O  O69  1  0.06801185  0.19712874  0.58836484  1  0  -0.391769  -0.555705  0  2.465503  0
O  O70  1  0.19712363  0.06801581  0.08836722  1  0  -0.391741  -0.555671  0  2.465473  0
O  O71  1  0.93199130  0.80288238  0.41163667  1  0  -0.391689  -0.555553  0  2.465738  0
O  O72  1  0.15147145  0.05115020  0.83882882  1  0  -0.392532  -0.557113  0  2.443698  0
O  O73  1  0.94885388  0.84854772  0.66115761  1  0  -0.392103  -0.556648  0  2.445116  0
O  O74  1  0.84854816  0.94884944  0.16115715  1  0  -0.392114  -0.556586  0  2.445419  0
O  O75  1  0.05115356  0.15147026  0.33882787  1  0  -0.392513  -0.557077  0  2.444043  0
O  O76  1  0.69630600  0.05864483  0.72139464  1  0  -0.390666  -0.547969  0  2.499426  0
O  O77  1  0.94135931  0.30371634  0.77859949  1  0  -0.390547  -0.547834  0  2.499692  0
O  O78  1  0.30369659  0.94135139  0.27860332  1  0  -0.39059  -0.547926  0  2.499884  0
O  O79  1  0.05864484  0.69629821  0.22139768  1  0  -0.390671  -0.547993  0  2.499735  0
O  O80  1  0.42549353  0.32278173  0.75684731  1  0  -0.401669  -0.554922  0  2.492782  0
O  O81  1  0.67720221  0.57449926  0.74316357  1  0  -0.401642  -0.554849  0  2.493333  0
O  O82  1  0.57449167  0.67722023  0.24315637  1  0  -0.401609  -0.554792  0  2.493216  0
O  O83  1  0.32278738  0.42550727  0.25683700  1  0  -0.401665  -0.5549  0  2.492871  0
O  O84  1  0.61708939  0.67775424  0.94970149  1  0  -0.443587  -0.567994  0  2.411765  0
O  O85  1  0.32225185  0.38290704  0.55030046  1  0  -0.443588  -0.568058  0  2.411868  0
O  O86  1  0.38291069  0.32224771  0.05030019  1  0  -0.443585  -0.568031  0  2.411726  0
O  O87  1  0.67775189  0.61708918  0.44970059  1  0  -0.443586  -0.568063  0  2.411794  0
O  O88  1  0.47118334  0.85545366  0.80970454  1  0  -0.467186  -0.597906  0  2.48019  0
O  O89  1  0.14455044  0.52880899  0.69030094  1  0  -0.46721  -0.597807  0  2.48026  0
O  O90  1  0.52880763  0.14454714  0.19029877  1  0  -0.467193  -0.597847  0  2.48016  0
O  O91  1  0.85545440  0.47118838  0.30970312  1  0  -0.4672  -0.597917  0  2.480217  0
