# generated using pymatgen
data_ZnH13C16NO6
_symmetry_space_group_name_H-M   'P 1'
_cell_length_a   10.83536250
_cell_length_b   10.83593584
_cell_length_c   16.11800000
_cell_angle_alpha   71.44500859
_cell_angle_beta   71.44399095
_cell_angle_gamma   64.92933985
_symmetry_Int_Tables_number   1
_chemical_formula_structural   ZnH13C16NO6
_chemical_formula_sum   'Zn4 H52 C64 N4 O24'
_cell_volume   1587.54470646
_cell_formula_units_Z   4
loop_
 _symmetry_equiv_pos_site_id
 _symmetry_equiv_pos_as_xyz
  1  'x, y, z'
loop_
 _atom_site_type_symbol
 _atom_site_label
 _atom_site_symmetry_multiplicity
 _atom_site_fract_x
 _atom_site_fract_y
 _atom_site_fract_z
 _atom_site_occupancy
 _atom_site_hle17_bader_spin_density
 _atom_site_hle17_ddec_charge
 _atom_site_hle17_ddec_spin_density
 _atom_site_hle17_ddec_sum_bond_order
 _atom_site_hle17_magmom
 _atom_site_hse06_10hf_bader_spin_density
 _atom_site_hse06_10hf_ddec_charge
 _atom_site_hse06_10hf_ddec_spin_density
 _atom_site_hse06_10hf_ddec_sum_bond_order
 _atom_site_hse06_10hf_magmom
 _atom_site_hse06_bader_spin_density
 _atom_site_hse06_ddec_charge
 _atom_site_hse06_ddec_spin_density
 _atom_site_hse06_ddec_sum_bond_order
 _atom_site_hse06_magmom
 _atom_site_pbe_bader_charge
 _atom_site_pbe_bader_spin_density
 _atom_site_pbe_cm5_charge
 _atom_site_pbe_ddec_charge
 _atom_site_pbe_ddec_spin_density
 _atom_site_pbe_ddec_sum_bond_order
 _atom_site_pbe_magmom
Zn  Zn0  1  0.09213510  0.43911436  0.15295508  1  0  1.096174  0  1.781205  0  0  0.926615  0  2.236608  0  0  0.974507  0  2.178087  0  1.311208  0  0.684339  0.892937  0  2.27685  0
Zn  Zn1  1  0.56088630  0.90786483  0.34704429  1  0  1.096231  0  1.781262  0  0  0.926652  0  2.236692  0  0  0.974555  0  2.178166  0  1.311305  0  0.684384  0.892976  0  2.276936  0
Zn  Zn2  1  0.90786423  0.56088657  0.84704498  1  0  1.096201  0  1.781192  0  0  0.92664  0  2.236588  0  0  0.974533  0  2.178067  0  1.31121  0  0.684369  0.892962  0  2.27683  0
Zn  Zn3  1  0.43911438  0.09213506  0.65295509  1  0  1.096241  0  1.781237  0  0  0.926675  0  2.236649  0  0  0.974581  0  2.178127  0  1.311296  0  0.684392  0.892999  0  2.276894  0
H  H4  1  0.16729970  0.32608687  0.39858401  1  0  0.108908  0  0.949707  0  0  0.116043  0  1.015782  0  0  0.120353  0  1.011861  0  0.107807  0  0.106498  0.112861  0  1.018806  0
H  H5  1  0.67391239  0.83270193  0.10141530  1  0  0.108961  0  0.949687  0  0  0.116107  0  1.015736  0  0  0.120416  0  1.011822  0  0.107632  0  0.106524  0.112926  0  1.01876  0
H  H6  1  0.83270098  0.67391301  0.60141537  1  0  0.108893  0  0.949737  0  0  0.116052  0  1.01578  0  0  0.120362  0  1.01186  0  0.107818  0  0.106508  0.11287  0  1.018805  0
H  H7  1  0.32608732  0.16729795  0.89858491  1  0  0.108969  0  0.949668  0  0  0.116114  0  1.015732  0  0  0.120427  0  1.011805  0  0.107639  0  0.106533  0.112932  0  1.018756  0
H  H8  1  0.99277641  0.25750886  0.68035884  1  0  0.093928  0  0.972597  0  0  0.101131  0  1.042969  0  0  0.104633  0  1.039914  0  0.08489  0  0.101012  0.098696  0  1.044955  0
H  H9  1  0.74249205  0.00722313  0.81964056  1  0  0.093916  0  0.972625  0  0  0.101141  0  1.042978  0  0  0.104644  0  1.03992  0  0.085286  0  0.100998  0.098705  0  1.044964  0
H  H10  1  0.00722427  0.74249103  0.31964054  1  0  0.093934  0  0.972593  0  0  0.101138  0  1.042961  0  0  0.10464  0  1.039905  0  0.08488  0  0.101017  0.098704  0  1.044948  0
H  H11  1  0.25750901  0.99277571  0.18035958  1  0  0.093951  0  0.97259  0  0  0.101156  0  1.042963  0  0  0.104659  0  1.039905  0  0.084884  0  0.101005  0.098721  0  1.044949  0
H  H12  1  0.72195610  0.45917142  0.49176513  1  0  0.106374  0  0.941141  0  0  0.116653  0  1.003833  0  0  0.120439  0  1.000596  0  0.100407  0  0.107805  0.113832  0  1.006455  0
H  H13  1  0.54082885  0.27804253  0.00823461  1  0  0.106385  0  0.941102  0  0  0.116691  0  1.003762  0  0  0.120465  0  1.000538  0  0.100451  0  0.107844  0.113875  0  1.006379  0
H  H14  1  0.27804458  0.54082846  0.50823487  1  0  0.10635  0  0.941175  0  0  0.116651  0  1.003837  0  0  0.120431  0  1.000614  0  0.100392  0  0.107815  0.113853  0  1.006434  0
H  H15  1  0.45917086  0.72195736  0.99176498  1  0  0.106381  0  0.941105  0  0  0.116687  0  1.003767  0  0  0.120461  0  1.000542  0  0.100445  0  0.107839  0.113871  0  1.006384  0
H  H16  1  0.59215261  0.58206475  0.61474424  1  0  0.10606  0  0.957122  0  0  0.116931  0  1.018259  0  0  0.120061  0  1.016843  0  0.092793  0  0.103505  0.114696  0  1.019317  0
H  H17  1  0.41793458  0.40784820  0.88525523  1  0  0.106018  0  0.957202  0  0  0.116908  0  1.018328  0  0  0.120038  0  1.016911  0  0.093073  0  0.103495  0.114673  0  1.019386  0
H  H18  1  0.40784770  0.41793618  0.38525500  1  0  0.10601  0  0.95715  0  0  0.116871  0  1.018304  0  0  0.120001  0  1.016889  0  0.092805  0  0.103485  0.114636  0  1.019361  0
H  H19  1  0.58206513  0.59215169  0.11474436  1  0  0.105982  0  0.957197  0  0  0.116842  0  1.018361  0  0  0.119971  0  1.016948  0  0.093073  0  0.103461  0.114607  0  1.01942  0
H  H20  1  0.39908698  0.60091309  0.74999974  1  0  0.099787  0  0.934226  0  0  0.1142  0  0.984428  0  0  0.117234  0  0.982731  0  0.086582  0  0.105219  0.111955  0  0.985781  0
H  H21  1  0.60091408  0.39908575  0.24999979  1  0  0.099813  0  0.934213  0  0  0.114238  0  0.984405  0  0  0.11726  0  0.982722  0  0.086569  0  0.105229  0.111991  0  0.985759  0
H  H22  1  0.82483118  0.17516872  0.74999977  1  0  0.091946  0  0.968436  0  0  0.103493  0  1.030978  0  0  0.106318  0  1.030004  0  0.04688  0  0.099271  0.101611  0  1.031496  0
H  H23  1  0.17516950  0.82483116  0.24999961  1  0  0.091939  0  0.968438  0  0  0.103485  0  1.030979  0  0  0.106311  0  1.030004  0  0.046886  0  0.099272  0.101604  0  1.031496  0
H  H24  1  0.92715278  0.70318828  0.21309610  1  0  0.094064  0  0.943088  0  0  0.09867  0  1.012051  0  0  0.101831  0  1.008852  0  0.138795  0  0.122864  0.096294  0  1.014347  0
H  H25  1  0.29681106  0.07284765  0.28690345  1  0  0.094033  0  0.94311  0  0  0.098613  0  1.01211  0  0  0.101774  0  1.008909  0  0.138803  0  0.122848  0.096236  0  1.014409  0
H  H26  1  0.07284731  0.29681057  0.78690363  1  0  0.094074  0  0.943068  0  0  0.098667  0  1.012047  0  0  0.101828  0  1.008847  0  0.138798  0  0.122868  0.096292  0  1.014343  0
H  H27  1  0.70318828  0.92715327  0.71309600  1  0  0.094052  0  0.943098  0  0  0.098631  0  1.012095  0  0  0.101792  0  1.008894  0  0.138808  0  0.122851  0.096254  0  1.014393  0
H  H28  1  0.88547820  0.95255729  0.15361525  1  0  0.114424  0  0.942156  0  0  0.127514  0  0.994789  0  0  0.130767  0  0.993602  0  0.111877  0  0.115877  0.12521  0  0.995752  0
H  H29  1  0.04744284  0.11452196  0.34638543  1  0  0.114517  0  0.942098  0  0  0.12758  0  0.994755  0  0  0.130832  0  0.993573  0  0.111936  0  0.115892  0.125281  0  0.995712  0
H  H30  1  0.11452151  0.04744259  0.84638558  1  0  0.114432  0  0.94216  0  0  0.127524  0  0.994787  0  0  0.130775  0  0.993604  0  0.111884  0  0.11588  0.12522  0  0.995749  0
H  H31  1  0.95255784  0.88547792  0.65361457  1  0  0.114516  0  0.942079  0  0  0.127578  0  0.994741  0  0  0.13083  0  0.993558  0  0.111933  0  0.115889  0.125279  0  0.995697  0
H  H32  1  0.14695958  0.84785528  0.89989237  1  0  0.113262  0  0.941292  0  0  0.127268  0  0.99202  0  0  0.130494  0  0.990928  0  0.075563  0  0.116441  0.124981  0  0.992961  0
H  H33  1  0.15214428  0.85304058  0.60010720  1  0  0.11325  0  0.941294  0  0  0.127274  0  0.992003  0  0  0.1305  0  0.990911  0  0.07571  0  0.116451  0.124986  0  0.992946  0
H  H34  1  0.85304013  0.15214460  0.10010784  1  0  0.113255  0  0.941291  0  0  0.127263  0  0.992017  0  0  0.130489  0  0.990926  0  0.075559  0  0.11644  0.124976  0  0.992958  0
H  H35  1  0.84785543  0.14695930  0.39989239  1  0  0.113226  0  0.941312  0  0  0.127235  0  0.992043  0  0  0.13046  0  0.990953  0  0.075703  0  0.116451  0.124947  0  0.992986  0
H  H36  1  0.17912292  0.60146792  0.97176216  1  0  0.095711  0  0.93576  0  0  0.104878  0  0.996873  0  0  0.107638  0  0.993957  0  0.14344  0  0.12499  0.102807  0  0.999054  0
H  H37  1  0.39853283  0.82087753  0.52823770  1  0  0.095671  0  0.935828  0  0  0.104826  0  0.996952  0  0  0.107582  0  0.994033  0  0.143403  0  0.124979  0.102756  0  0.999131  0
H  H38  1  0.82087679  0.39853197  0.02823743  1  0  0.095696  0  0.935825  0  0  0.104866  0  0.996936  0  0  0.107622  0  0.994019  0  0.143445  0  0.124977  0.102795  0  0.999116  0
H  H39  1  0.60146650  0.17912340  0.47176236  1  0  0.095657  0  0.935814  0  0  0.104804  0  0.996944  0  0  0.10756  0  0.994026  0  0.143586  0  0.124961  0.102734  0  0.999124  0
H  H40  1  0.38586198  0.33904283  0.15031620  1  0  0.429349  0  0.873687  0  0  0.395679  0  0.941318  0  0  0.406319  0  0.925839  0  0.635321  0  0.286302  0.38811  0  0.952315  0
H  H41  1  0.66095781  0.61413812  0.34968314  1  0  0.429363  0  0.873681  0  0  0.39569  0  0.941318  0  0  0.40633  0  0.92584  0  0.635316  0  0.286272  0.388122  0  0.952314  0
H  H42  1  0.61413870  0.66095706  0.84968318  1  0  0.42933  0  0.873724  0  0  0.395659  0  0.941355  0  0  0.4063  0  0.925876  0  0.635325  0  0.28629  0.38809  0  0.952352  0
H  H43  1  0.33904153  0.38586281  0.65031631  1  0  0.429375  0  0.873664  0  0  0.395705  0  0.941296  0  0  0.406345  0  0.925818  0  0.635318  0  0.286272  0.388136  0  0.952293  0
H  H44  1  0.84306637  0.54663429  0.10277690  1  0  0.430363  0  0.867361  0  0  0.39919  0  0.932427  0  0  0.409651  0  0.917127  0  0.649461  0  0.289869  0.391812  0  0.943191  0
H  H45  1  0.45336435  0.15693465  0.39722392  1  0  0.430337  0  0.867397  0  0  0.399148  0  0.932467  0  0  0.409603  0  0.917179  0  0.64945  0  0.289851  0.39177  0  0.943229  0
H  H46  1  0.15693431  0.45336560  0.89722310  1  0  0.430353  0  0.867376  0  0  0.399175  0  0.932451  0  0  0.409635  0  0.917151  0  0.64946  0  0.289863  0.391797  0  0.943214  0
H  H47  1  0.54663634  0.84306524  0.60277609  1  0  0.430351  0  0.867376  0  0  0.399182  0  0.932437  0  0  0.40964  0  0.91714  0  0.649443  0  0.289862  0.391804  0  0.9432  0
H  H48  1  0.83341522  0.48711178  0.20960414  1  0  0.410447  0  0.898195  0  0  0.377744  0  0.96507  0  0  0.389247  0  0.948332  0  0.636873  0  0.281862  0.369678  0  0.976739  0
H  H49  1  0.51288806  0.16658461  0.29039668  1  0  0.410459  0  0.898174  0  0  0.377759  0  0.965048  0  0  0.389263  0  0.948309  0  0.636876  0  0.281868  0.369693  0  0.976718  0
H  H50  1  0.16658546  0.51288811  0.79039586  1  0  0.410444  0  0.8982  0  0  0.377739  0  0.965077  0  0  0.389243  0  0.948338  0  0.636878  0  0.281859  0.369674  0  0.976746  0
H  H51  1  0.48711165  0.83341528  0.70960354  1  0  0.410457  0  0.898169  0  0  0.377755  0  0.965045  0  0  0.38926  0  0.948304  0  0.636878  0  0.28186  0.369689  0  0.976714  0
H  H52  1  0.31751416  0.48718478  0.17279713  1  0  0.409183  0  0.85747  0  0  0.386255  0  0.925982  0  0  0.392861  0  0.919096  0  0.584147  0  0.301103  0.381619  0  0.930419  0
H  H53  1  0.51281555  0.68248461  0.32720257  1  0  0.409125  0  0.857572  0  0  0.386193  0  0.926097  0  0  0.392799  0  0.919195  0  0.584125  0  0.301072  0.381558  0  0.930532  0
H  H54  1  0.68248517  0.51281615  0.82720294  1  0  0.409084  0  0.857464  0  0  0.386152  0  0.926  0  0  0.392756  0  0.919218  0  0.584152  0  0.301052  0.381516  0  0.930436  0
H  H55  1  0.48718453  0.31751423  0.67279779  1  0  0.409145  0  0.857561  0  0  0.386217  0  0.926075  0  0  0.392822  0  0.919162  0  0.584123  0  0.301089  0.381581  0  0.930512  0
C  C56  1  0.93055648  0.44481485  0.34025796  1  0  0.662215  0  3.889763  0  0  0.608683  0  4.183781  0  0  0.643204  0  4.176459  0  1.560593  0  0.215535  0.585339  0  4.187758  0
C  C57  1  0.55518394  0.06944467  0.15974342  1  0  0.662186  0  3.889661  0  0  0.608621  0  4.183771  0  0  0.64314  0  4.176456  0  1.560545  0  0.215538  0.585269  0  4.187756  0
C  C58  1  0.06944420  0.55518503  0.65974142  1  0  0.662114  0  3.889839  0  0  0.608581  0  4.183846  0  0  0.643103  0  4.176525  0  1.560582  0  0.215491  0.585238  0  4.18782  0
C  C59  1  0.44481540  0.93055626  0.84025665  1  0  0.662202  0  3.889694  0  0  0.608643  0  4.183794  0  0  0.643163  0  4.176479  0  1.560548  0  0.215549  0.585292  0  4.187779  0
C  C60  1  0.94299035  0.39703749  0.43617432  1  0  -0.079954  0  3.777202  0  0  -0.055827  0  4.019725  0  0  -0.06634  0  4.04453  0  -0.007406  0  -0.022081  -0.048968  0  4.003497  0
C  C61  1  0.60296361  0.05700912  0.06382506  1  0  -0.079876  0  3.777055  0  0  -0.055836  0  4.01974  0  0  -0.066348  0  4.044543  0  -0.008043  0  -0.022117  -0.048974  0  4.003513  0
C  C62  1  0.05701033  0.60296239  0.56382569  1  0  -0.079903  0  3.777156  0  0  -0.05577  0  4.019677  0  0  -0.066284  0  4.04448  0  -0.007506  0  -0.022093  -0.048913  0  4.003455  0
C  C63  1  0.39703610  0.94299076  0.93617515  1  0  -0.079895  0  3.777062  0  0  -0.055847  0  4.019741  0  0  -0.06636  0  4.044545  0  -0.007874  0  -0.022123  -0.048986  0  4.003515  0
C  C64  1  0.07705234  0.33403795  0.45393953  1  0  -0.061574  0  3.710968  0  0  -0.100303  0  3.962386  0  0  -0.097014  0  3.981968  0  -0.058572  0  -0.076241  -0.102605  0  3.950076  0
C  C65  1  0.66596063  0.92294934  0.04606116  1  0  -0.061603  0  3.710752  0  0  -0.100304  0  3.962181  0  0  -0.097018  0  3.981763  0  -0.057737  0  -0.0762  -0.102606  0  3.949867  0
C  C66  1  0.92294834  0.66596194  0.54606047  1  0  -0.061531  0  3.710952  0  0  -0.100274  0  3.962355  0  0  -0.096985  0  3.981936  0  -0.058553  0  -0.076226  -0.102576  0  3.950045  0
C  C67  1  0.33403811  0.07705054  0.95393926  1  0  -0.061582  0  3.710747  0  0  -0.100294  0  3.962175  0  0  -0.097007  0  3.981761  0  -0.057857  0  -0.07621  -0.102595  0  3.949864  0
C  C68  1  0.09449622  0.28177507  0.54191579  1  0  -0.072175  0  3.794638  0  0  -0.046226  0  4.030466  0  0  -0.056515  0  4.054952  0  -0.009749  0  -0.022263  -0.039747  0  4.01468  0
C  C69  1  0.71822496  0.90550370  0.95808311  1  0  -0.072222  0  3.794223  0  0  -0.046273  0  4.030035  0  0  -0.056561  0  4.054523  0  -0.009844  0  -0.022255  -0.039792  0  4.014248  0
C  C70  1  0.90550446  0.71822482  0.45808360  1  0  -0.072254  0  3.79461  0  0  -0.046308  0  4.030456  0  0  -0.056596  0  4.054942  0  -0.009815  0  -0.022275  -0.039827  0  4.01467  0
C  C71  1  0.28177610  0.09449514  0.04191704  1  0  -0.072274  0  3.794292  0  0  -0.046324  0  4.030095  0  0  -0.056612  0  4.054582  0  -0.009901  0  -0.022285  -0.039845  0  4.014309  0
C  C72  1  0.97697177  0.29552050  0.61203007  1  0  -0.085343  0  3.679015  0  0  -0.121133  0  3.927408  0  0  -0.118661  0  3.944988  0  -0.106045  0  -0.077444  -0.122298  0  3.915438  0
C  C73  1  0.70447964  0.02302829  0.88797063  1  0  -0.085312  0  3.678784  0  0  -0.121136  0  3.927169  0  0  -0.118664  0  3.944753  0  -0.106348  0  -0.077422  -0.122299  0  3.9152  0
C  C74  1  0.02302891  0.70447939  0.38796931  1  0  -0.085349  0  3.678989  0  0  -0.121132  0  3.927377  0  0  -0.118659  0  3.944957  0  -0.106052  0  -0.077464  -0.122299  0  3.915409  0
C  C75  1  0.29552141  0.97697055  0.11202952  1  0  -0.085315  0  3.678805  0  0  -0.121124  0  3.927192  0  0  -0.118653  0  3.944775  0  -0.105957  0  -0.077409  -0.122287  0  3.915222  0
C  C76  1  0.84174683  0.36116275  0.59578499  1  0  0.043019  0  3.781921  0  0  0.062304  0  4.016695  0  0  0.059257  0  4.041111  0  0.090752  0  -0.00888  0.064158  0  4.0006  0
C  C77  1  0.63883740  0.15825287  0.90421454  1  0  0.042927  0  3.781705  0  0  0.062254  0  4.016433  0  0  0.059205  0  4.040849  0  0.090613  0  -0.008921  0.064102  0  4.000349  0
C  C78  1  0.15825386  0.63883713  0.40421501  1  0  0.043017  0  3.781861  0  0  0.062293  0  4.016656  0  0  0.059247  0  4.04107  0  0.090763  0  -0.008888  0.064144  0  4.000569  0
C  C79  1  0.36116231  0.84174701  0.09578505  1  0  0.04295  0  3.781742  0  0  0.062274  0  4.016462  0  0  0.059226  0  4.040878  0  0.090613  0  -0.008921  0.064125  0  4.000376  0
C  C80  1  0.82567814  0.41075163  0.50675268  1  0  -0.08567  0  3.667351  0  0  -0.121803  0  3.917946  0  0  -0.119792  0  3.936585  0  -0.066222  0  -0.074163  -0.123277  0  3.906393  0
C  C81  1  0.58924809  0.17432084  0.99324896  1  0  -0.085666  0  3.667245  0  0  -0.121799  0  3.917874  0  0  -0.119775  0  3.936514  0  -0.066218  0  -0.074185  -0.123275  0  3.906321  0
C  C82  1  0.17432254  0.58924825  0.49324794  1  0  -0.085674  0  3.667312  0  0  -0.121822  0  3.917907  0  0  -0.119808  0  3.936555  0  -0.066158  0  -0.074161  -0.123313  0  3.906346  0
C  C83  1  0.41075162  0.82567904  0.00675063  1  0  -0.085687  0  3.667269  0  0  -0.121824  0  3.917902  0  0  -0.1198  0  3.936542  0  -0.06625  0  -0.074198  -0.1233  0  3.906349  0
C  C84  1  0.72185916  0.37607206  0.67297147  1  0  0.056258  0  3.814196  0  0  0.072408  0  4.042631  0  0  0.073369  0  4.067282  0  -0.029701  0  -0.011238  0.071761  0  4.026005  0
C  C85  1  0.62392729  0.27813952  0.82702908  1  0  0.056244  0  3.814111  0  0  0.072392  0  4.04253  0  0  0.073356  0  4.067177  0  -0.029636  0  -0.011272  0.071746  0  4.025904  0
C  C86  1  0.27814055  0.62392783  0.32702875  1  0  0.05626  0  3.814177  0  0  0.072411  0  4.042613  0  0  0.073373  0  4.067264  0  -0.029704  0  -0.011235  0.071764  0  4.025987  0
C  C87  1  0.37607280  0.72185933  0.17297065  1  0  0.056243  0  3.814108  0  0  0.072405  0  4.042509  0  0  0.073368  0  4.067155  0  -0.029628  0  -0.011256  0.071758  0  4.025883  0
C  C88  1  0.60034243  0.49630599  0.67342396  1  0  -0.131498  0  3.732528  0  0  -0.150584  0  3.976484  0  0  -0.153549  0  3.995985  0  -0.089795  0  -0.092541  -0.148439  0  3.963194  0
C  C89  1  0.50369443  0.39965726  0.82657552  1  0  -0.131434  0  3.732481  0  0  -0.150548  0  3.976443  0  0  -0.153512  0  3.995943  0  -0.090225  0  -0.092531  -0.148404  0  3.963153  0
C  C90  1  0.39965788  0.50369494  0.32657590  1  0  -0.131427  0  3.732513  0  0  -0.150507  0  3.976488  0  0  -0.15347  0  3.995983  0  -0.089804  0  -0.092513  -0.148363  0  3.963197  0
C  C91  1  0.49630602  0.60034054  0.17342498  1  0  -0.131417  0  3.732551  0  0  -0.150512  0  3.976529  0  0  -0.153475  0  3.996022  0  -0.090209  0  -0.09251  -0.148368  0  3.963237  0
C  C92  1  0.49277161  0.50722724  0.75000124  1  0  -0.065886  0  3.796665  0  0  -0.077655  0  4.046878  0  0  -0.077978  0  4.066533  0  -0.019572  0  -0.091366  -0.077333  0  4.033396  0
C  C93  1  0.50722944  0.49277160  0.24999953  1  0  -0.065917  0  3.796732  0  0  -0.077702  0  4.046942  0  0  -0.078015  0  4.066596  0  -0.019597  0  -0.091369  -0.077378  0  4.033461  0
C  C94  1  0.73110664  0.26889525  0.74999873  1  0  -0.177644  0  3.737014  0  0  -0.201496  0  3.977181  0  0  -0.206125  0  3.998918  0  -0.088967  0  -0.095713  -0.198294  0  3.962309  0
C  C95  1  0.26889404  0.73110464  0.25000065  1  0  -0.177645  0  3.736993  0  0  -0.201499  0  3.977161  0  0  -0.206129  0  3.998899  0  -0.088962  0  -0.095728  -0.198298  0  3.962289  0
C  C96  1  0.23701340  0.21510556  0.56188015  1  0  0.647953  0  3.908422  0  0  0.598977  0  4.195707  0  0  0.633087  0  4.190178  0  1.596689  0  0.204772  0.575875  0  4.198805  0
C  C97  1  0.78489474  0.76298507  0.93812086  1  0  0.648008  0  3.908267  0  0  0.59907  0  4.195488  0  0  0.633181  0  4.189956  0  1.596353  0  0.204769  0.575967  0  4.198588  0
C  C98  1  0.76298631  0.78489433  0.43811944  1  0  0.648147  0  3.90835  0  0  0.599154  0  4.195651  0  0  0.633264  0  4.190118  0  1.596782  0  0.204837  0.576051  0  4.198751  0
C  C99  1  0.21510534  0.23701377  0.06188011  1  0  0.648053  0  3.908344  0  0  0.599131  0  4.195554  0  0  0.633244  0  4.190023  0  1.596606  0  0.204798  0.576028  0  4.198653  0
C  C100  1  0.97507036  0.73989525  0.14412176  1  0  0.133415  0  3.686455  0  0  0.101208  0  3.939359  0  0  0.108383  0  3.957096  0  0.516909  0  0.054129  0.096794  0  3.927235  0
C  C101  1  0.26010768  0.02492950  0.35587777  1  0  0.133493  0  3.686596  0  0  0.101305  0  3.939492  0  0  0.108494  0  3.957239  0  0.517288  0  0.054203  0.09689  0  3.92737  0
C  C102  1  0.02492935  0.26010464  0.85587845  1  0  0.13344  0  3.68645  0  0  0.101246  0  3.939358  0  0  0.108422  0  3.957097  0  0.516914  0  0.054142  0.096832  0  3.927235  0
C  C103  1  0.73989263  0.97507143  0.64412209  1  0  0.133512  0  3.686607  0  0  0.101321  0  3.939501  0  0  0.108509  0  3.957248  0  0.5173  0  0.054218  0.096905  0  3.927379  0
C  C104  1  0.95202605  0.88047304  0.10958189  1  0  -0.140682  0  3.6852  0  0  -0.162241  0  3.936318  0  0  -0.170015  0  3.957694  0  -0.049098  0  -0.072335  -0.157551  0  3.92238  0
C  C105  1  0.11952436  0.04797447  0.39041930  1  0  -0.140867  0  3.685269  0  0  -0.162375  0  3.936403  0  0  -0.17015  0  3.957775  0  -0.049144  0  -0.072384  -0.157687  0  3.922464  0
C  C106  1  0.04797366  0.11952684  0.89041832  1  0  -0.140713  0  3.685213  0  0  -0.16227  0  3.936326  0  0  -0.170045  0  3.957701  0  -0.049098  0  -0.072344  -0.15758  0  3.922388  0
C  C107  1  0.88047536  0.95202541  0.60958091  1  0  -0.140837  0  3.685225  0  0  -0.16237  0  3.936335  0  0  -0.170146  0  3.957708  0  -0.049146  0  -0.072348  -0.157681  0  3.922396  0
C  C108  1  0.01231027  0.92539077  0.01993252  1  0  0.098335  0  3.742956  0  0  0.109014  0  3.976363  0  0  0.112891  0  3.998837  0  -0.039573  0  0.019041  0.106476  0  3.962018  0
C  C109  1  0.07460880  0.98768949  0.48006712  1  0  0.098368  0  3.743111  0  0  0.108976  0  3.9766  0  0  0.112851  0  3.999076  0  -0.039591  0  0.019032  0.106439  0  3.962256  0
C  C110  1  0.98769041  0.07460911  0.98006748  1  0  0.098318  0  3.742883  0  0  0.108998  0  3.97629  0  0  0.112874  0  3.998764  0  -0.072856  0  0.019027  0.10646  0  3.961946  0
C  C111  1  0.92539128  0.01230936  0.51993261  1  0  0.098356  0  3.743061  0  0  0.109071  0  3.976464  0  0  0.112948  0  3.998937  0  -0.07289  0  0.01899  0.106532  0  3.96212  0
C  C112  1  0.09581108  0.82251280  0.96966670  1  0  -0.140577  0  3.677392  0  0  -0.16157  0  3.924931  0  0  -0.169328  0  3.94616  0  0.027128  0  -0.070373  -0.156598  0  3.911185  0
C  C113  1  0.17748531  0.90418860  0.53033390  1  0  -0.140537  0  3.677318  0  0  -0.161541  0  3.924891  0  0  -0.169296  0  3.946112  0  0.027011  0  -0.070385  -0.156571  0  3.911147  0
C  C114  1  0.90418825  0.17748813  0.03033337  1  0  -0.140551  0  3.677348  0  0  -0.16155  0  3.924891  0  0  -0.169306  0  3.946117  0  0.027133  0  -0.070365  -0.156578  0  3.911145  0
C  C115  1  0.82251441  0.09581128  0.46966569  1  0  -0.140516  0  3.6773  0  0  -0.161545  0  3.924852  0  0  -0.169299  0  3.946072  0  0.027022  0  -0.070383  -0.156573  0  3.911108  0
C  C116  1  0.11548939  0.68356714  0.00901539  1  0  0.158545  0  3.669069  0  0  0.1259  0  3.917314  0  0  0.133603  0  3.934568  0  0.500422  0  0.062636  0.121003  0  3.905625  0
C  C117  1  0.31643485  0.88451115  0.49098357  1  0  0.158536  0  3.669221  0  0  0.125922  0  3.917447  0  0  0.133645  0  3.934705  0  0.500378  0  0.062656  0.121023  0  3.90576  0
C  C118  1  0.88451032  0.31643274  0.99098420  1  0  0.158483  0  3.669247  0  0  0.125842  0  3.917495  0  0  0.133552  0  3.934745  0  0.500321  0  0.062585  0.120945  0  3.905806  0
C  C119  1  0.68356449  0.11548977  0.50901649  1  0  0.158584  0  3.669183  0  0  0.125985  0  3.917396  0  0  0.133707  0  3.934654  0  0.500181  0  0.06268  0.121086  0  3.905709  0
N  N120  1  0.05579758  0.64305254  0.09473428  1  0  -0.332341  0  3.334884  0  0  -0.24521  0  3.602607  0  0  -0.265297  0  3.61845  0  -1.264309  0  -0.32964  -0.231759  0  3.591597  0
N  N121  1  0.35694942  0.94420157  0.40526560  1  0  -0.332293  0  3.33512  0  0  -0.245178  0  3.602867  0  0  -0.265309  0  3.618747  0  -1.26457  0  -0.329656  -0.231725  0  3.591857  0
N  N122  1  0.94420213  0.35694735  0.90526531  1  0  -0.33228  0  3.334966  0  0  -0.245164  0  3.602692  0  0  -0.265256  0  3.618539  0  -1.264229  0  -0.329582  -0.231714  0  3.591683  0
N  N123  1  0.64305126  0.05579831  0.59473440  1  0  -0.332364  0  3.335135  0  0  -0.245242  0  3.602861  0  0  -0.265371  0  3.618741  0  -1.264595  0  -0.329677  -0.23179  0  3.591853  0
O  O124  1  0.04586995  0.43567383  0.28328160  1  0  -0.647896  0  2.084347  0  0  -0.577243  0  2.355059  0  0  -0.605323  0  2.340336  0  -1.190905  0  -0.323994  -0.557567  0  2.364664  0
O  O125  1  0.56432640  0.95413416  0.21671635  1  0  -0.647958  0  2.084209  0  0  -0.577267  0  2.354915  0  0  -0.605347  0  2.340194  0  -1.191011  0  -0.324055  -0.55759  0  2.364521  0
O  O126  1  0.95412938  0.56432710  0.71671784  1  0  -0.647829  0  2.084379  0  0  -0.577181  0  2.355092  0  0  -0.605264  0  2.34037  0  -1.190891  0  -0.323948  -0.557506  0  2.364694  0
O  O127  1  0.43567197  0.04586677  0.78328392  1  0  -0.647941  0  2.084242  0  0  -0.577265  0  2.354953  0  0  -0.605348  0  2.340235  0  -1.191004  0  -0.324042  -0.557588  0  2.364559  0
O  O128  1  0.81261583  0.48694700  0.32029577  1  0  -0.648286  0  1.998609  0  0  -0.582873  0  2.211956  0  0  -0.607927  0  2.200241  0  -1.193039  0  -0.315381  -0.565268  0  2.219441  0
O  O129  1  0.51305458  0.18738004  0.17970428  1  0  -0.648247  0  1.998606  0  0  -0.582829  0  2.211969  0  0  -0.607884  0  2.200256  0  -1.19303  0  -0.315337  -0.565222  0  2.219457  0
O  O130  1  0.18738388  0.51305289  0.67970444  1  0  -0.648285  0  1.998621  0  0  -0.582873  0  2.211963  0  0  -0.607929  0  2.200247  0  -1.193046  0  -0.315399  -0.565271  0  2.21945  0
O  O131  1  0.48694610  0.81261984  0.82029573  1  0  -0.648287  0  1.998615  0  0  -0.58286  0  2.211974  0  0  -0.607916  0  2.200258  0  -1.193024  0  -0.315356  -0.565254  0  2.219461  0
O  O132  1  0.24111375  0.17503940  0.64580654  1  0  -0.63667  0  2.020504  0  0  -0.562643  0  2.274753  0  0  -0.592571  0  2.262117  0  -1.163092  0  -0.328729  -0.541683  0  2.282757  0
O  O133  1  0.82496077  0.75888543  0.85419434  1  0  -0.636654  0  2.020467  0  0  -0.56265  0  2.274694  0  0  -0.592578  0  2.262059  0  -1.163086  0  -0.328722  -0.54169  0  2.282695  0
O  O134  1  0.75888596  0.82496048  0.35419367  1  0  -0.636753  0  2.020576  0  0  -0.562718  0  2.274834  0  0  -0.592646  0  2.262195  0  -1.163104  0  -0.328769  -0.54176  0  2.28284  0
O  O135  1  0.17504029  0.24111341  0.14580642  1  0  -0.636652  0  2.020481  0  0  -0.562675  0  2.274717  0  0  -0.592606  0  2.262084  0  -1.163115  0  -0.328717  -0.541716  0  2.282719  0
O  O136  1  0.34530312  0.20116615  0.50006824  1  0  -0.645513  0  1.952358  0  0  -0.589037  0  2.182564  0  0  -0.614394  0  2.172478  0  -1.215716  0  -0.317015  -0.5713  0  2.188976  0
O  O137  1  0.79883359  0.65469861  0.99993095  1  0  -0.645515  0  1.952211  0  0  -0.589075  0  2.182463  0  0  -0.614434  0  2.172374  0  -1.215338  0  -0.317004  -0.571337  0  2.188876  0
O  O138  1  0.65469682  0.79883582  0.49993148  1  0  -0.645582  0  1.952314  0  0  -0.58911  0  2.182566  0  0  -0.614469  0  2.172478  0  -1.215713  0  -0.317023  -0.571373  0  2.188978  0
O  O139  1  0.20116455  0.34530023  0.00006982  1  0  -0.645544  0  1.952237  0  0  -0.589091  0  2.18248  0  0  -0.614452  0  2.172394  0  -1.215523  0  -0.317019  -0.571353  0  2.188891  0
O  O140  1  0.31064829  0.43202472  0.13822367  1  0  -0.829655  0  1.853645  0  0  -0.777319  0  2.048514  0  0  -0.796341  0  2.021071  0  -1.207244  0  -0.579316  -0.763727  0  2.067242  0
O  O141  1  0.56797556  0.68935211  0.36177631  1  0  -0.829603  0  1.853622  0  0  -0.777275  0  2.048492  0  0  -0.796298  0  2.021042  0  -1.207239  0  -0.579273  -0.763683  0  2.067217  0
O  O142  1  0.68935105  0.56797621  0.86177578  1  0  -0.829525  0  1.85363  0  0  -0.77718  0  2.048483  0  0  -0.7962  0  2.021141  0  -1.207242  0  -0.57925  -0.763587  0  2.067209  0
O  O143  1  0.43202512  0.31064777  0.63822369  1  0  -0.829638  0  1.853614  0  0  -0.777321  0  2.04849  0  0  -0.796342  0  2.021023  0  -1.207238  0  -0.57929  -0.763729  0  2.067218  0
O  O144  1  0.88067546  0.46447666  0.14918342  1  0  -0.844302  0  1.858382  0  0  -0.788345  0  2.045417  0  0  -0.80927  0  2.010766  0  -1.270365  0  -0.585667  -0.773144  0  2.069331  0
O  O145  1  0.53552469  0.11932452  0.35081518  1  0  -0.844312  0  1.858399  0  0  -0.788296  0  2.045414  0  0  -0.809215  0  2.010763  0  -1.270357  0  -0.585655  -0.773092  0  2.069329  0
O  O146  1  0.11932522  0.53552322  0.85081659  1  0  -0.844301  0  1.858397  0  0  -0.788347  0  2.045449  0  0  -0.809272  0  2.010797  0  -1.270362  0  -0.585664  -0.773145  0  2.069362  0
O  O147  1  0.46447599  0.88067536  0.64918420  1  0  -0.844305  0  1.858327  0  0  -0.788342  0  2.045319  0  0  -0.809267  0  2.010667  0  -1.270353  0  -0.58566  -0.773141  0  2.069232  0
