# generated using pymatgen
data_CoH16C20(N3O2)2
_symmetry_space_group_name_H-M   'P 1'
_cell_length_a   8.92711889
_cell_length_b   9.99911149
_cell_length_c   12.56105060
_cell_angle_alpha   103.43934033
_cell_angle_beta   109.09664654
_cell_angle_gamma   103.65141078
_symmetry_Int_Tables_number   1
_chemical_formula_structural   CoH16C20(N3O2)2
_chemical_formula_sum   'Co2 H32 C40 N12 O8'
_cell_volume   969.30746354
_cell_formula_units_Z   2
loop_
 _symmetry_equiv_pos_site_id
 _symmetry_equiv_pos_as_xyz
  1  'x, y, z'
loop_
 _atom_site_type_symbol
 _atom_site_label
 _atom_site_symmetry_multiplicity
 _atom_site_fract_x
 _atom_site_fract_y
 _atom_site_fract_z
 _atom_site_occupancy
 _atom_site_hle17_ddec_charge
 _atom_site_hle17_ddec_spin_density
 _atom_site_hle17_ddec_sum_bond_order
 _atom_site_hle17_magmom
 _atom_site_hse06_10hf_ddec_charge
 _atom_site_hse06_10hf_ddec_spin_density
 _atom_site_hse06_10hf_ddec_sum_bond_order
 _atom_site_hse06_10hf_magmom
 _atom_site_hse06_ddec_charge
 _atom_site_hse06_ddec_spin_density
 _atom_site_hse06_ddec_sum_bond_order
 _atom_site_hse06_magmom
 _atom_site_pbe_cm5_charge
 _atom_site_pbe_ddec_charge
 _atom_site_pbe_ddec_spin_density
 _atom_site_pbe_ddec_sum_bond_order
 _atom_site_pbe_magmom
Co  Co0  1  0.65088401  0.35987462  0.51677264  1  0.981752  -2.851982  2.030543  -2.575  0.95863  -2.846136  2.433717  -2.642  1.037093  -2.884973  2.362097  -2.721  0.66114  0.883375  -2.807889  2.506643  -2.564
Co  Co1  1  0.34912183  0.64013012  0.48322930  1  0.981724  -2.852011  2.030598  -2.575  0.958567  -2.846145  2.433728  -2.642  1.037025  -2.884983  2.362112  -2.721  0.661066  0.883282  -2.807891  2.50669  -2.564
H  H2  1  0.12211521  0.44461291  0.19757363  1  0.101141  0.000484  0.969047  0.0  0.109631  0.000445  1.033985  0.0  0.112181  0.000378  1.033375  0.0  0.102114  0.107617  0.000496  1.034898  0.0
H  H3  1  0.87788351  0.55537651  0.80242230  1  0.101092  0.000483  0.969078  0.0  0.109616  0.000445  1.033983  0.0  0.112159  0.000379  1.033388  0.0  0.102143  0.107608  0.000496  1.034874  0.0
H  H4  1  0.24023132  0.27783484  0.09640718  1  0.085041  2e-06  0.963719  0.0  0.094925  1.9e-05  1.026256  0.0  0.097297  1e-05  1.02565  0.0  0.09784  0.092944  3.1e-05  1.027214  0.0
H  H5  1  0.75975941  0.72215234  0.90358331  1  0.085006  3e-06  0.963749  0.0  0.094865  1.9e-05  1.026317  0.0  0.097237  9e-06  1.025712  0.0  0.097811  0.092893  3.1e-05  1.027268  0.0
H  H6  1  0.04899764  0.07350292  0.90558140  1  0.091016  1.5e-05  0.951309  0.0  0.103244  1.8e-05  1.007178  0.0  0.105239  9e-06  1.007775  0.0  0.101211  0.101777  2.3e-05  1.006833  0.0
H  H7  1  0.95098437  0.92648316  0.09440928  1  0.090928  1.3e-05  0.951349  0.0  0.103148  1.8e-05  1.007221  0.0  0.105139  9e-06  1.007826  0.0  0.101195  0.101684  2.2e-05  1.006877  0.0
H  H8  1  0.74672828  0.04012637  0.81770396  1  0.081061  1.5e-05  0.970624  0.0  0.094266  4e-06  1.032835  0.0  0.096063  1e-06  1.033036  0.0  0.096168  0.092701  2.8e-05  1.033187  0.0
H  H9  1  0.25325875  0.95986957  0.18229205  1  0.081012  1.5e-05  0.970637  0.0  0.094219  4e-06  1.032855  0.0  0.096017  0.0  1.033055  0.0  0.096164  0.092656  2.8e-05  1.033205  0.0
H  H10  1  0.50430222  0.08339766  0.84883962  1  0.084213  4.2e-05  0.930812  0.0  0.101179  -2.9e-05  0.993782  0.0  0.101832  -2.3e-05  0.992992  0.0  0.11579  0.100504  -2.3e-05  0.99452  0.0
H  H11  1  0.49569125  0.91660267  0.15115947  1  0.084177  3.8e-05  0.930891  0.0  0.101165  -2.9e-05  0.993837  0.0  0.10182  -2.3e-05  0.993048  0.0  0.115775  0.10049  -2.3e-05  0.994574  0.0
H  H12  1  0.52198031  0.24329629  0.95529788  1  0.105649  3e-06  0.939221  0.0  0.114373  2e-06  1.009218  0.0  0.117579  1.2e-05  1.005065  0.0  0.121542  0.111978  -1.5e-05  1.012371  0.0
H  H13  1  0.47801755  0.75670623  0.04470103  1  0.105639  1e-06  0.939172  0.0  0.114369  2e-06  1.009173  0.0  0.117576  1.1e-05  1.005024  0.0  0.121523  0.111974  -1.5e-05  1.012327  0.0
H  H14  1  0.91048963  0.54562428  0.18986039  1  0.111997  -6.1e-05  0.927522  0.0  0.127567  -9.3e-05  0.98681  0.0  0.129932  -3.2e-05  0.984255  0.0  0.122896  0.125678  -0.000176  0.987929  0.0
H  H15  1  0.08951401  0.45437172  0.81013946  1  0.112009  -6.6e-05  0.927561  0.0  0.127575  -9.4e-05  0.986845  0.0  0.129945  -3.2e-05  0.984292  0.0  0.122884  0.12568  -0.000176  0.987967  0.0
H  H16  1  0.70632628  0.47033862  0.07027563  1  0.095779  -4.2e-05  0.928887  0.0  0.101709  -4.2e-05  1.004728  0.0  0.103764  -3.3e-05  1.001058  0.0  0.11397  0.100231  -5.3e-05  1.006653  0.0
H  H17  1  0.29367627  0.52966066  0.92972616  1  0.095826  -4.3e-05  0.928888  0.0  0.101734  -4.2e-05  1.004735  0.0  0.103786  -3.3e-05  1.001077  0.0  0.11397  0.100257  -5.3e-05  1.006655  0.0
H  H18  1  0.53586609  0.54736162  0.72246800  1  0.096555  0.000305  0.967527  0.0  0.103188  0.000233  1.032933  0.0  0.105389  0.000242  1.031349  0.0  0.132828  0.10128  0.000227  1.034381  0.0
H  H19  1  0.46413253  0.45263981  0.27753009  1  0.096557  0.000304  0.967629  0.0  0.103204  0.000232  1.033004  0.0  0.105403  0.000242  1.031423  0.0  0.132803  0.1013  0.000227  1.034452  0.0
H  H20  1  0.58767956  0.13363860  0.66314270  1  0.114162  0.000124  0.939578  0.0  0.123736  7.2e-05  1.003913  0.0  0.12709  8.4e-05  0.999572  0.0  0.144294  0.120679  9.4e-05  1.007898  0.0
H  H21  1  0.41232028  0.86636285  0.33685886  1  0.114227  0.000125  0.939487  0.0  0.123742  7.2e-05  1.003888  0.0  0.127096  8.4e-05  0.999548  0.0  0.144319  0.120686  9.4e-05  1.007867  0.0
H  H22  1  0.48567004  0.14736561  0.25235295  1  0.088543  0.000204  0.941595  0.0  0.098003  0.000184  1.004915  0.0  0.100433  0.000185  1.001512  0.0  0.132196  0.095951  0.000164  1.007648  0.0
H  H23  1  0.51433057  0.85263476  0.74764939  1  0.088495  0.000205  0.94165  0.0  0.097974  0.000184  1.004949  0.0  0.100402  0.000185  1.001553  0.0  0.132193  0.095924  0.000164  1.007678  0.0
H  H24  1  0.90196144  0.53414383  0.38504988  1  0.132901  0.000101  0.938448  0.0  0.140107  8.7e-05  1.001669  0.0  0.143894  0.00013  0.996645  0.0  0.146669  0.136877  6.8e-05  1.005346  0.0
H  H25  1  0.09804263  0.46585327  0.61495107  1  0.132887  9.9e-05  0.938488  0.0  0.140075  8.8e-05  1.001725  0.0  0.143863  0.00013  0.996701  0.0  0.146661  0.136844  6.8e-05  1.005406  0.0
H  H26  1  0.36131216  0.09306414  0.45620172  1  0.107167  0.000256  0.98535  0.0  0.11097  5.4e-05  1.060515  0.0  0.115166  0.000102  1.056765  0.0  0.103287  0.108003  -9e-06  1.06315  0.0
H  H27  1  0.63869534  0.90694175  0.54380719  1  0.107206  0.000255  0.985263  0.0  0.111002  5.4e-05  1.060447  0.0  0.115198  0.000102  1.056696  0.0  0.103298  0.108029  -9e-06  1.063094  0.0
H  H28  1  0.86467667  0.78276667  0.33514371  1  0.096718  -0.000158  0.94113  0.0  0.105472  -0.000103  1.005094  0.0  0.108709  -7.7e-05  1.003068  0.0  0.10288  0.103009  -0.000126  1.006688  0.0
H  H29  1  0.13532926  0.21724135  0.66485965  1  0.096764  -0.000158  0.941187  0.0  0.105493  -0.000103  1.005152  0.0  0.108731  -7.6e-05  1.003124  0.0  0.10291  0.103039  -0.000126  1.006732  0.0
H  H30  1  0.74037964  0.97071643  0.28582347  1  0.08209  3.3e-05  0.97858  0.0  0.088445  -3.7e-05  1.046656  0.0  0.091186  -8e-06  1.04607  0.0  0.094623  0.086661  -5.7e-05  1.046979  0.0
H  H31  1  0.25963024  0.02929266  0.71417621  1  0.082081  3.1e-05  0.978508  0.0  0.08838  -3.7e-05  1.046651  0.0  0.091125  -8e-06  1.046072  0.0  0.094599  0.086596  -5.7e-05  1.04697  0.0
H  H32  1  0.92703993  0.21863921  0.31992806  1  0.098606  -8.9e-05  0.968009  0.0  0.10362  -2.3e-05  1.037674  0.0  0.106467  1.3e-05  1.03642  0.0  0.101169  0.101534  -7.7e-05  1.038607  0.0
H  H33  1  0.07297182  0.78136554  0.68007286  1  0.098605  -8.9e-05  0.968058  0.0  0.103629  -2.3e-05  1.037691  0.0  0.106475  1.3e-05  1.036436  0.0  0.101175  0.10154  -7.7e-05  1.038625  0.0
C  C34  1  0.76140564  0.22332543  0.95655503  1  0.023822  7.2e-05  3.72551  0.0  0.037652  -1.4e-05  3.967344  0.0  0.035802  -3e-06  3.993168  0.0  -0.01244  0.039041  -2e-05  3.949836  0.0
C  C35  1  0.23858772  0.77667161  0.04344025  1  0.023819  9.9e-05  3.725288  0.0  0.037442  -1.5e-05  3.9674  0.0  0.035595  -3e-06  3.993222  0.0  -0.012482  0.03884  -2e-05  3.949896  0.0
C  C36  1  0.86911820  0.33881632  0.06392995  1  0.035359  5.6e-05  3.711216  0.0  0.049249  1.8e-05  3.95242  0.0  0.047806  2.2e-05  3.975321  0.0  -0.011293  0.050429  -2.6e-05  3.9353  0.0
C  C37  1  0.13087864  0.66117745  0.93606554  1  0.035299  3.6e-05  3.711078  0.0  0.049267  1.8e-05  3.952315  0.0  0.047826  2.2e-05  3.975218  0.0  -0.011303  0.050405  -2.6e-05  3.935243  0.0
C  C38  1  0.04054538  0.35607541  0.11335236  1  -0.104063  0.000104  3.727194  0.0  -0.124939  0.00013  3.973508  0.0  -0.12729  0.000122  3.996227  0.0  -0.089944  -0.123507  0.000166  3.958456  0.0
C  C39  1  0.95944899  0.64391506  0.88663957  1  -0.104033  0.000133  3.727054  0.0  -0.124931  0.00013  3.973348  0.0  -0.127282  0.000123  3.99606  0.0  -0.090064  -0.123489  0.000166  3.958312  0.0
C  C40  1  0.10627897  0.26209563  0.05729055  1  -0.06583  1.1e-05  3.77348  0.0  -0.078161  1.3e-05  4.018237  0.0  -0.080759  7e-06  4.040621  0.0  -0.092105  -0.076542  1.6e-05  4.003467  0.0
C  C41  1  0.89371049  0.73788828  0.94269985  1  -0.065701  -9e-06  3.772989  0.0  -0.078013  1.3e-05  4.017775  0.0  -0.080607  7e-06  4.040156  0.0  -0.091999  -0.076408  1.7e-05  4.003014  0.0
C  C42  1  0.99988275  0.14797406  0.95056374  1  -0.056181  3.2e-05  3.784258  0.0  -0.067665  1.1e-05  4.027598  0.0  -0.069022  1e-05  4.049993  0.0  -0.088857  -0.066888  9e-06  4.012521  0.0
C  C43  1  0.00010367  0.85201421  0.04942755  1  -0.056178  6.3e-05  3.784001  0.0  -0.06764  1.1e-05  4.027359  0.0  -0.068998  1.1e-05  4.049755  0.0  -0.088825  -0.066868  9e-06  4.01229  0.0
C  C44  1  0.82888576  0.12931965  0.90149370  1  -0.124351  9e-06  3.769916  0.0  -0.144482  2.7e-05  4.016485  0.0  -0.148488  1.2e-05  4.040852  0.0  -0.097348  -0.141682  7.8e-05  4.000302  0.0
C  C45  1  0.17110194  0.87067191  0.09850007  1  -0.124212  -8e-06  3.769896  0.0  -0.144278  2.8e-05  4.016495  0.0  -0.148283  1.3e-05  4.040859  0.0  -0.097303  -0.141479  7.8e-05  4.000307  0.0
C  C46  1  0.57615529  0.20056768  0.89418245  1  -0.056891  -0.00051  3.653613  -0.001  -0.140829  -0.000447  3.911848  -0.001  -0.135508  -0.000335  3.919025  -0.001  -0.044489  -0.144276  -0.000561  3.907341  -0.001
C  C47  1  0.42384014  0.79943156  0.10581690  1  -0.056909  -0.000509  3.653654  -0.001  -0.140826  -0.000447  3.911942  -0.001  -0.135522  -0.000334  3.91915  -0.001  -0.044487  -0.144273  -0.000561  3.90743  -0.001
C  C48  1  0.80648966  0.44367207  0.13049098  1  -0.060967  -0.000571  3.628684  -0.001  -0.138769  -0.000526  3.877359  -0.001  -0.126339  -0.000387  3.888579  -0.001  -0.041417  -0.140914  -0.000694  3.871149  -0.001
C  C49  1  0.19351204  0.55632502  0.86950941  1  -0.061056  -0.000565  3.628819  -0.001  -0.138798  -0.000526  3.877444  -0.001  -0.126395  -0.000387  3.888662  -0.001  -0.041377  -0.140934  -0.000694  3.871246  -0.001
C  C50  1  0.54502850  0.44546451  0.73494253  1  0.19797  0.007569  3.699484  0.005  0.149471  0.002016  3.993924  0.001  0.161483  0.001533  4.004713  0.001  0.143191  0.141095  0.002728  3.987011  0.001
C  C51  1  0.45496852  0.55453582  0.26505579  1  0.197957  0.007574  3.699715  0.005  0.149447  0.002016  3.994142  0.001  0.161458  0.001533  4.004935  0.001  0.143235  0.141069  0.002728  3.987229  0.001
C  C52  1  0.57467350  0.23663353  0.70235659  1  0.175342  0.010965  3.620688  0.007  0.105289  0.002217  3.882808  0.001  0.121671  0.001528  3.891254  0.0  0.163744  0.093671  0.003683  3.877709  0.002
C  C53  1  0.42532589  0.76336682  0.29764228  1  0.175244  0.010969  3.620685  0.007  0.105229  0.002219  3.882823  0.001  0.121609  0.00153  3.891268  0.0  0.163706  0.093616  0.003684  3.877717  0.002
C  C54  1  0.58523289  0.23745399  0.25671872  1  0.190999  0.009109  3.742364  0.006  0.142014  0.003678  4.038277  0.002  0.155338  0.003472  4.045319  0.002  0.139781  0.133035  0.004024  4.031163  0.002
C  C55  1  0.41476611  0.76254529  0.74328304  1  0.191024  0.009096  3.742354  0.006  0.142022  0.003677  4.038273  0.002  0.155343  0.00347  4.045326  0.002  0.139798  0.133041  0.004024  4.03116  0.002
C  C56  1  0.79490172  0.43512972  0.32837757  1  0.175391  0.010722  3.588524  0.007  0.104681  0.003166  3.85855  0.001  0.129888  0.002755  3.868845  0.001  0.167605  0.093353  0.004081  3.854079  0.002
C  C57  1  0.20510159  0.56486846  0.67162260  1  0.17541  0.01072  3.588445  0.007  0.104766  0.003167  3.858432  0.001  0.129949  0.002757  3.868722  0.001  0.167666  0.093429  0.004081  3.853966  0.002
C  C58  1  0.15569190  0.17098914  0.38813251  1  -0.07393  -0.007329  3.770803  -0.012  -0.044079  -0.003682  3.995627  -0.006  -0.054689  -0.002468  4.01791  -0.004  -0.018863  -0.037621  -0.004752  3.982612  -0.008
C  C59  1  0.84431363  0.82901781  0.61187295  1  -0.073923  -0.007325  3.770799  -0.012  -0.044033  -0.003684  3.995575  -0.006  -0.054644  -0.002468  4.017857  -0.004  -0.018858  -0.037575  -0.004753  3.982558  -0.008
C  C60  1  0.22521080  0.06664288  0.41846142  1  -0.083407  0.004831  3.704213  0.003  -0.120301  0.00058  3.949615  0.0  -0.117946  0.000648  3.968741  0.0  -0.083337  -0.122871  0.002092  3.938544  0.001
C  C61  1  0.77479914  0.93336626  0.58154546  1  -0.083511  0.004831  3.704124  0.003  -0.120431  0.000581  3.949543  0.0  -0.118075  0.00065  3.968666  0.0  -0.083371  -0.122996  0.002092  3.938477  0.001
C  C62  1  0.12106049  0.92781183  0.40095963  1  -0.069265  -0.003758  3.78901  -0.005  -0.039914  -0.001562  4.016755  -0.002  -0.04891  -0.001125  4.039351  -0.002  -0.020302  -0.034717  -0.001868  4.002806  -0.003
C  C63  1  0.87894352  0.07219730  0.59904747  1  -0.068998  -0.003756  3.788722  -0.005  -0.039668  -0.001563  4.016441  -0.002  -0.048658  -0.001125  4.039032  -0.002  -0.020294  -0.034476  -0.001868  4.002496  -0.003
C  C64  1  0.94550456  0.89161646  0.34980282  1  -0.05004  0.008998  3.708918  0.006  -0.079458  0.003012  3.960154  0.002  -0.076016  0.001876  3.977943  0.001  -0.078766  -0.080766  0.003125  3.947429  0.002
C  C65  1  0.05450613  0.10839160  0.65020404  1  -0.050222  0.00899  3.708965  0.006  -0.079604  0.003013  3.960182  0.002  -0.076163  0.001877  3.977969  0.001  -0.078774  -0.080922  0.003125  3.947451  0.002
C  C66  1  0.87630096  0.99648812  0.32126553  1  -0.074955  -0.002429  3.771443  -0.004  -0.08593  -0.000347  4.029277  -0.001  -0.090666  -0.000315  4.049657  -0.001  -0.09158  -0.082924  -0.000498  4.014825  -0.001
C  C67  1  0.12370250  0.00351660  0.67873507  1  -0.07471  -0.002422  3.771346  -0.004  -0.08563  -0.000347  4.029121  -0.001  -0.090377  -0.000315  4.049514  -0.001  -0.091483  -0.082625  -0.000498  4.014667  -0.001
C  C68  1  0.98014073  0.13591107  0.34093583  1  -0.051113  0.009029  3.700395  0.006  -0.078328  0.00285  3.947705  0.001  -0.07457  0.001907  3.96532  0.001  -0.080757  -0.080002  0.003151  3.935624  0.002
C  C69  1  0.01986665  0.86409150  0.65906687  1  -0.051334  0.009014  3.700498  0.006  -0.078563  0.002851  3.947799  0.001  -0.074805  0.001906  3.965417  0.001  -0.080869  -0.080237  0.003151  3.935718  0.002
C  C70  1  0.26952435  0.31869578  0.40807783  1  0.660036  0.013568  3.860382  0.008  0.617628  -0.000736  4.157987  -0.005  0.659632  -0.001497  4.147787  -0.005  0.215837  0.585248  0.001644  4.163003  -0.002
C  C71  1  0.73047751  0.68130785  0.59192300  1  0.660015  0.013569  3.860298  0.008  0.617616  -0.000734  4.157868  -0.005  0.659621  -0.001495  4.147669  -0.005  0.215864  0.585235  0.001644  4.162883  -0.002
C  C72  1  0.20026572  0.82065875  0.43618869  1  0.611796  0.014511  3.924742  0.011  0.56816  0.006133  4.223504  0.005  0.604146  0.004859  4.220158  0.003  0.194505  0.542302  0.007856  4.222826  0.006
C  C73  1  0.79973551  0.17934930  0.56381997  1  0.611284  0.014507  3.925006  0.011  0.567709  0.006132  4.22372  0.005  0.603691  0.004858  4.22038  0.003  0.194255  0.541856  0.007854  4.223038  0.006
N  N74  1  0.55043303  0.27278143  0.80386134  1  0.039976  -0.000365  3.549854  -0.001  0.160903  -0.00034  3.735431  -0.001  0.149249  -0.000402  3.759726  -0.001  -0.134838  0.16779  -8.4e-05  3.72047  -0.001
N  N75  1  0.44956077  0.72721671  0.19613663  1  0.039986  -0.000361  3.549948  -0.001  0.160929  -0.000339  3.735496  -0.001  0.149281  -0.000401  3.75979  -0.001  -0.134803  0.167809  -8.3e-05  3.720551  -0.001
N  N76  1  0.53181210  0.40679520  0.82674844  1  -0.281393  -0.003257  2.824622  -0.005  -0.281409  -0.001397  3.088182  -0.002  -0.288693  -0.00109  3.100333  -0.002  -0.229082  -0.276639  -0.001769  3.080699  -0.003
N  N77  1  0.46818255  0.59320513  0.17325013  1  -0.281369  -0.003259  2.824663  -0.005  -0.281382  -0.001397  3.088216  -0.002  -0.288665  -0.001091  3.100367  -0.002  -0.2291  -0.276606  -0.001769  3.080731  -0.003
N  N78  1  0.57370019  0.34474514  0.65666311  1  -0.404958  -0.024603  3.264187  -0.051  -0.359908  -0.019138  3.563311  -0.033  -0.383695  -0.016523  3.569155  -0.028  -0.343126  -0.34191  -0.021253  3.561157  -0.037
N  N79  1  0.42630039  0.65525521  0.34333603  1  -0.404925  -0.024604  3.264243  -0.051  -0.359861  -0.019138  3.563329  -0.033  -0.383648  -0.016525  3.569176  -0.028  -0.34313  -0.341857  -0.021253  3.561177  -0.037
N  N80  1  0.74055419  0.38303032  0.20830134  1  0.049848  -0.000914  3.540099  -0.002  0.165457  -0.000542  3.732384  -0.001  0.127953  -0.000534  3.789783  -0.001  -0.131837  0.172118  -0.000481  3.717119  -0.001
N  N81  1  0.25944751  0.61696677  0.79169905  1  0.049859  -0.000909  3.540063  -0.002  0.165383  -0.000542  3.732442  -0.001  0.127941  -0.000535  3.789766  -0.001  -0.131915  0.172081  -0.000481  3.717105  -0.001
N  N82  1  0.60651875  0.25650494  0.16086833  1  -0.289335  -0.00296  2.867329  -0.005  -0.282981  -0.001167  3.128301  -0.002  -0.282628  -0.000932  3.145912  -0.002  -0.227166  -0.277189  -0.001509  3.12005  -0.002
N  N83  1  0.39348296  0.74349216  0.83913286  1  -0.289315  -0.002957  2.867236  -0.005  -0.282934  -0.001167  3.128222  -0.002  -0.282601  -0.000932  3.145823  -0.002  -0.22714  -0.277152  -0.001509  3.119974  -0.002
N  N84  1  0.69734794  0.34469514  0.36164013  1  -0.396676  -0.02729  3.28  -0.055  -0.356655  -0.020924  3.58743  -0.037  -0.380969  -0.01766  3.592748  -0.032  -0.347935  -0.337608  -0.023795  3.581764  -0.042
N  N85  1  0.30265502  0.65530523  0.63836116  1  -0.396645  -0.027287  3.279884  -0.055  -0.356655  -0.020923  3.587322  -0.037  -0.380971  -0.017657  3.592652  -0.032  -0.347952  -0.337604  -0.023795  3.581653  -0.042
O  O86  1  0.41630400  0.33054525  0.40996797  1  -0.646617  -0.041506  2.171543  -0.071  -0.620822  -0.031191  2.470489  -0.049  -0.661202  -0.02118  2.458106  -0.032  -0.320385  -0.581802  -0.044512  2.474529  -0.07
O  O87  1  0.58369997  0.66946384  0.59003354  1  -0.646525  -0.041503  2.171526  -0.071  -0.62072  -0.031189  2.470464  -0.049  -0.661086  -0.021178  2.458058  -0.032  -0.320323  -0.581694  -0.044511  2.474499  -0.07
O  O88  1  0.21326139  0.42448618  0.41992049  1  -0.594676  -0.046855  2.087777  -0.081  -0.565492  -0.037625  2.367244  -0.06  -0.602537  -0.02828  2.353941  -0.045  -0.302838  -0.533834  -0.047083  2.376054  -0.076
O  O89  1  0.78673961  0.57551526  0.58007894  1  -0.594663  -0.046859  2.087661  -0.081  -0.565501  -0.037628  2.367135  -0.06  -0.602557  -0.028282  2.353852  -0.045  -0.302883  -0.533849  -0.047087  2.375947  -0.076
O  O90  1  0.35158207  0.86642467  0.51555317  1  -0.615229  -0.03981  1.967435  -0.07  -0.584354  -0.030568  2.228508  -0.052  -0.621509  -0.021813  2.222894  -0.038  -0.316331  -0.552291  -0.040432  2.229198  -0.067
O  O91  1  0.64842530  0.13357790  0.48444953  1  -0.615009  -0.039808  1.96743  -0.07  -0.584179  -0.030565  2.228478  -0.052  -0.621344  -0.021811  2.222895  -0.038  -0.316244  -0.552122  -0.040427  2.229166  -0.067
O  O92  1  0.12048061  0.68348936  0.38405815  1  -0.615082  -0.036676  1.991072  -0.066  -0.585114  -0.028298  2.247633  -0.05  -0.620849  -0.020229  2.241278  -0.037  -0.310214  -0.554902  -0.036023  2.250128  -0.061
O  O93  1  0.87952463  0.31651981  0.61595402  1  -0.614868  -0.036674  1.991027  -0.066  -0.584899  -0.028298  2.247541  -0.05  -0.620632  -0.02023  2.241189  -0.037  -0.310064  -0.554691  -0.036023  2.250033  -0.061
