# generated using pymatgen
data_LiH4C7(OF)3
_symmetry_space_group_name_H-M   'P 1'
_cell_length_a   4.92794044
_cell_length_b   5.22549434
_cell_length_c   14.96765723
_cell_angle_alpha   92.17005355
_cell_angle_beta   89.99965917
_cell_angle_gamma   89.99907953
_symmetry_Int_Tables_number   1
_chemical_formula_structural   LiH4C7(OF)3
_chemical_formula_sum   'Li2 H8 C14 O6 F6'
_cell_volume   385.15460202
_cell_formula_units_Z   2
loop_
 _symmetry_equiv_pos_site_id
 _symmetry_equiv_pos_as_xyz
  1  'x, y, z'
loop_
 _atom_site_type_symbol
 _atom_site_label
 _atom_site_symmetry_multiplicity
 _atom_site_fract_x
 _atom_site_fract_y
 _atom_site_fract_z
 _atom_site_occupancy
 _atom_site_hle17_bader_spin_density
 _atom_site_hle17_ddec_charge
 _atom_site_hle17_ddec_spin_density
 _atom_site_hle17_ddec_sum_bond_order
 _atom_site_hle17_magmom
 _atom_site_hse06_10hf_bader_spin_density
 _atom_site_hse06_10hf_ddec_charge
 _atom_site_hse06_10hf_ddec_spin_density
 _atom_site_hse06_10hf_ddec_sum_bond_order
 _atom_site_hse06_10hf_magmom
 _atom_site_hse06_bader_spin_density
 _atom_site_hse06_ddec_charge
 _atom_site_hse06_ddec_spin_density
 _atom_site_hse06_ddec_sum_bond_order
 _atom_site_hse06_magmom
 _atom_site_pbe_bader_spin_density
 _atom_site_pbe_cm5_charge
 _atom_site_pbe_ddec_charge
 _atom_site_pbe_ddec_spin_density
 _atom_site_pbe_ddec_sum_bond_order
 _atom_site_pbe_magmom
Li  Li0  1  0.74103975  0.91434497  0.55312975  1  0  0.856903  0  0.389774  0  0  0.815684  0  0.497608  0  0  0.825239  0  0.48055  0  0  0.49479  0.808655  0  0.510018  0
Li  Li1  1  0.24104931  0.08566318  0.44686814  1  0  0.856902  0  0.38976  0  0  0.815654  0  0.497636  0  0  0.825212  0  0.480576  0  0  0.494766  0.808626  0  0.510049  0
H  H2  1  0.49583738  0.52205854  0.50546972  1  0  0.431881  0  0.862642  0  0  0.404886  0  0.919998  0  0  0.414713  0  0.905558  0  0  0.313634  0.397929  0  0.930221  0
H  H3  1  0.99583779  0.47795318  0.49453035  1  0  0.431877  0  0.862649  0  0  0.404873  0  0.920024  0  0  0.4147  0  0.905584  0  0  0.313601  0.39791  0  0.930253  0
H  H4  1  0.63757211  0.41855026  0.58876421  1  0  0.441997  0  0.847659  0  0  0.414392  0  0.905447  0  0  0.423682  0  0.89176  0  0  0.316065  0.40784  0  0.915097  0
H  H5  1  0.13758060  0.58145778  0.41123590  1  0  0.441953  0  0.847716  0  0  0.414343  0  0.905516  0  0  0.423635  0  0.891827  0  0  0.31604  0.407791  0  0.915166  0
H  H6  1  0.15691745  0.48207106  0.92434345  1  0  0.158552  0  0.94759  0  0  0.161474  0  1.016176  0  0  0.166476  0  1.012357  0  0  0.10866  0.157889  0  1.019069  0
H  H7  1  0.65692282  0.51791183  0.07565776  1  0  0.157414  0  0.947955  0  0  0.161417  0  1.016175  0  0  0.166415  0  1.012358  0  0  0.108645  0.157846  0  1.019052  0
H  H8  1  0.67810482  0.79999145  0.86574899  1  0  0.163159  0  0.925444  0  0  0.167161  0  0.992519  0  0  0.17217  0  0.989123  0  0  0.114295  0.163586  0  0.995114  0
H  H9  1  0.17808986  0.19998929  0.13425484  1  0  0.162975  0  0.925685  0  0  0.167176  0  0.992559  0  0  0.172185  0  0.989163  0  0  0.114326  0.163601  0  0.995154  0
C  C10  1  0.13884365  0.10030473  0.73185664  1  0  -0.283371  0  3.697595  0  0  -0.29234  0  3.961218  0  0  -0.303893  0  3.976168  0  0  -0.029252  -0.285014  0  3.951557  0
C  C11  1  0.63886387  0.89969550  0.26814073  1  0  -0.283452  0  3.69757  0  0  -0.292415  0  3.96117  0  0  -0.303958  0  3.976115  0  0  -0.029321  -0.285092  0  3.951517  0
C  C12  1  0.09754135  0.32479280  0.87888605  1  0  -0.33334  0  3.752072  0  0  -0.379808  0  4.029455  0  0  -0.389073  0  4.044007  0  0  -0.124597  -0.373706  0  4.019844  0
C  C13  1  0.59753937  0.67520451  0.12111606  1  0  -0.332266  0  3.750758  0  0  -0.379635  0  4.029555  0  0  -0.388911  0  4.044139  0  0  -0.124522  -0.373545  0  4.019934  0
C  C14  1  0.90639567  0.14437986  0.90233780  1  0  0.374227  0  3.80245  0  0  0.360875  0  4.091522  0  0  0.375878  0  4.099927  0  0  0.101045  0.350629  0  4.085928  0
C  C15  1  0.40640355  0.85560844  0.09766229  1  0  0.377279  0  3.799841  0  0  0.360724  0  4.091795  0  0  0.375725  0  4.100195  0  0  0.100943  0.350479  0  4.086203  0
C  C16  1  0.94651102  0.92610184  0.76202482  1  0  0.371858  0  3.751091  0  0  0.34533  0  4.046935  0  0  0.361407  0  4.054636  0  0  0.120219  0.334351  0  4.041914  0
C  C17  1  0.44652051  0.07389537  0.23797525  1  0  0.371964  0  3.750904  0  0  0.345366  0  4.046941  0  0  0.361444  0  4.054636  0  0  0.120222  0.334388  0  4.041926  0
C  C18  1  0.20932738  0.29661580  0.79390400  1  0  0.364049  0  3.761902  0  0  0.341777  0  4.051615  0  0  0.35679  0  4.061  0  0  0.112026  0.331546  0  4.045383  0
C  C19  1  0.70934370  0.70338148  0.20609588  1  0  0.364086  0  3.761579  0  0  0.341751  0  4.051584  0  0  0.356764  0  4.060958  0  0  0.112013  0.331519  0  4.045362  0
C  C20  1  0.26332872  0.07836769  0.63998482  1  0  0.759472  0  3.855659  0  0  0.709928  0  4.156891  0  0  0.7454  0  4.142455  0  0  0.241056  0.685886  0  4.166269  0
C  C21  1  0.76335301  0.92163997  0.36001035  1  0  0.75934  0  3.855645  0  0  0.709849  0  4.156821  0  0  0.745303  0  4.14241  0  0  0.241029  0.685808  0  4.166201  0
C  C22  1  0.82677452  0.94095859  0.84609911  1  0  -0.317549  0  3.722153  0  0  -0.366157  0  4.004583  0  0  -0.37556  0  4.019711  0  0  -0.116642  -0.360047  0  3.994715  0
C  C23  1  0.32676953  0.05904070  0.15390322  1  0  -0.316699  0  3.720237  0  0  -0.366133  0  4.004374  0  0  -0.375532  0  4.019494  0  0  -0.11665  -0.360022  0  3.994506  0
O  O24  1  0.11140830  0.01964830  0.57354109  1  0  -0.762923  0  1.9438  0  0  -0.724123  0  2.191714  0  0  -0.743837  0  2.174113  0  0  -0.421419  -0.71045  0  2.203693  0
O  O25  1  0.61142234  0.98035437  0.42645770  1  0  -0.762948  0  1.943699  0  0  -0.724154  0  2.19159  0  0  -0.743862  0  2.173997  0  0  -0.421454  -0.710481  0  2.203572  0
O  O26  1  0.51599586  0.12055800  0.63435704  1  0  -0.723854  0  1.994867  0  0  -0.684056  0  2.235852  0  0  -0.705873  0  2.221692  0  0  -0.376754  -0.668861  0  2.245279  0
O  O27  1  0.01600659  0.87944795  0.36563729  1  0  -0.723724  0  1.994969  0  0  -0.683951  0  2.235964  0  0  -0.705773  0  2.221844  0  0  -0.376692  -0.668754  0  2.245393  0
O  O28  1  0.66349515  0.54453283  0.54189860  1  0  -0.893888  0  1.83824  0  0  -0.847785  0  2.00151  0  0  -0.865504  0  1.971218  0  0  -0.612025  -0.83527  0  2.022747  0
O  O29  1  0.16349869  0.45547673  0.45810213  1  0  -0.893825  0  1.838309  0  0  -0.847667  0  2.0015  0  0  -0.865384  0  1.97121  0  0  -0.611943  -0.835148  0  2.02275  0
F  F30  1  0.87709465  0.72402138  0.70715344  1  0  -0.199665  0  1.254455  0  0  -0.136437  0  1.415394  0  0  -0.146702  0  1.405977  0  0  -0.065728  -0.12904  0  1.421764  0
F  F31  1  0.37709388  0.27598078  0.29284614  1  0  -0.19971  0  1.254413  0  0  -0.136453  0  1.415355  0  0  -0.146716  0  1.405937  0  0  -0.065718  -0.129053  0  1.421729  0
F  F32  1  0.39218554  0.47639486  0.77037359  1  0  -0.195112  0  1.231259  0  0  -0.135541  0  1.388393  0  0  -0.145577  0  1.379231  0  0  -0.082158  -0.128277  0  1.394527  0
F  F33  1  0.89219208  0.52360326  0.22962659  1  0  -0.195134  0  1.231362  0  0  -0.135536  0  1.388469  0  0  -0.14557  0  1.379309  0  0  -0.082157  -0.12827  0  1.394607  0
F  F34  1  0.79246478  0.16851570  0.98544358  1  0  -0.207361  0  1.195349  0  0  -0.15527  0  1.360632  0  0  -0.165742  0  1.350646  0  0  -0.09321  -0.147662  0  1.367327  0
F  F35  1  0.29246643  0.83147276  0.01456074  1  0  -0.221068  0  1.210616  0  0  -0.155198  0  1.360797  0  0  -0.165671  0  1.350812  0  0  -0.093134  -0.147589  0  1.367489  0
