# generated using pymatgen
data_ZnH16C26(NO2)2
_symmetry_space_group_name_H-M   'P 1'
_cell_length_a   5.31506222
_cell_length_b   15.24614124
_cell_length_c   18.58886280
_cell_angle_alpha   99.53637178
_cell_angle_beta   89.95959929
_cell_angle_gamma   100.05572616
_symmetry_Int_Tables_number   1
_chemical_formula_structural   ZnH16C26(NO2)2
_chemical_formula_sum   'Zn2 H32 C52 N4 O8'
_cell_volume   1462.07899432
_cell_formula_units_Z   2
loop_
 _symmetry_equiv_pos_site_id
 _symmetry_equiv_pos_as_xyz
  1  'x, y, z'
loop_
 _atom_site_type_symbol
 _atom_site_label
 _atom_site_symmetry_multiplicity
 _atom_site_fract_x
 _atom_site_fract_y
 _atom_site_fract_z
 _atom_site_occupancy
 _atom_site_pbe_bader_charge
 _atom_site_pbe_bader_spin_density
 _atom_site_pbe_cm5_charge
 _atom_site_pbe_ddec_charge
 _atom_site_pbe_ddec_spin_density
 _atom_site_pbe_ddec_sum_bond_order
 _atom_site_pbe_magmom
Zn  Zn0  1  0.41083029  0.99992477  0.75007770  1  1.243297  0  0.693928  0.754221  0  2.381871  0
Zn  Zn1  1  0.58917320  0.00007154  0.24992133  1  1.243316  0  0.693912  0.75417  0  2.381834  0
H  H2  1  0.25938769  0.64055435  0.68211079  1  0.10955  0  0.108494  0.116333  0  0.99126  0
H  H3  1  0.62047294  0.35947670  0.81817641  1  0.131778  0  0.108245  0.115921  0  0.991627  0
H  H4  1  0.74063538  0.35945475  0.31788400  1  0.109111  0  0.108496  0.116311  0  0.991148  0
H  H5  1  0.37953293  0.64052437  0.18182916  1  0.132253  0  0.108208  0.115885  0  0.99157  0
H  H6  1  0.80084353  0.82642153  0.62800864  1  0.082568  0  0.091888  0.090301  0  1.063301  0
H  H7  1  0.97493158  0.17356406  0.87198038  1  0.127089  0  0.092156  0.091365  0  1.063756  0
H  H8  1  0.19912456  0.17357546  0.37199210  1  0.08262  0  0.091904  0.090315  0  1.063252  0
H  H9  1  0.02504932  0.82643218  0.12801004  1  0.126978  0  0.092168  0.09133  0  1.063807  0
H  H10  1  0.52423581  0.70166006  0.54403030  1  0.073352  0  0.100062  0.102536  0  1.001894  0
H  H11  1  0.82264453  0.29824190  0.95591977  1  0.044375  0  0.09995  0.102261  0  1.002123  0
H  H12  1  0.47576599  0.29833286  0.45596775  1  0.073302  0  0.100044  0.102531  0  1.001864  0
H  H13  1  0.17734754  0.70175035  0.04407927  1  0.044277  0  0.099966  0.102262  0  1.002048  0
H  H14  1  0.98536069  0.51424464  0.59874720  1  0.068498  0  0.105189  0.110514  0  0.991618  0
H  H15  1  0.47228629  0.48571864  0.90147910  1  0.070371  0  0.105558  0.111216  0  0.992552  0
H  H16  1  0.01467300  0.48576313  0.40124957  1  0.068627  0  0.105175  0.110482  0  0.991586  0
H  H17  1  0.52772241  0.51427304  0.09853492  1  0.070254  0  0.10554  0.111183  0  0.992347  0
H  H18  1  0.80116892  0.89271557  0.79031916  1  0.197275  0  0.126118  0.114211  0  1.009964  0
H  H19  1  0.90954044  0.10679360  0.70989600  1  0.196691  0  0.126496  0.114085  0  1.010044  0
H  H20  1  0.19880829  0.10727334  0.20968536  1  0.197363  0  0.126147  0.114184  0  1.009878  0
H  H21  1  0.09042894  0.89321348  0.29009962  1  0.196684  0  0.12644  0.11417  0  1.010041  0
H  H22  1  0.46634439  0.09975057  0.90040937  1  0.139208  0  0.121229  0.093193  0  1.009849  0
H  H23  1  0.36605065  0.90041825  0.59970071  1  0.141861  0  0.122313  0.094651  0  1.010264  0
H  H24  1  0.53367141  0.90024777  0.09959101  1  0.139067  0  0.121273  0.093241  0  1.009963  0
H  H25  1  0.63396977  0.09957804  0.40029562  1  0.141837  0  0.122257  0.094587  0  1.010337  0
H  H26  1  0.71814612  0.10686340  0.01356101  1  0.089608  0  0.115891  0.123544  0  0.9934  0
H  H27  1  0.61083453  0.89334961  0.48644419  1  0.091084  0  0.115284  0.122932  0  0.993279  0
H  H28  1  0.28189988  0.89314640  0.98643656  1  0.089386  0  0.11588  0.123507  0  0.993537  0
H  H29  1  0.38917611  0.10665342  0.51355142  1  0.090897  0  0.115265  0.122871  0  0.993301  0
H  H30  1  0.07351689  0.89131719  0.89711352  1  0.099319  0  0.117028  0.125314  0  0.991626  0
H  H31  1  0.18318927  0.10826811  0.60298019  1  0.091288  0  0.117221  0.126149  0  0.991829  0
H  H32  1  0.92646308  0.10866969  0.10289019  1  0.098938  0  0.117064  0.125333  0  0.991604  0
H  H33  1  0.81677760  0.89175653  0.39701558  1  0.091117  0  0.117273  0.126089  0  0.991848  0
C  C34  1  0.21280207  0.81717281  0.70849513  1  1.528779  0  0.191704  0.548617  0  4.241523  0
C  C35  1  0.39651594  0.18276354  0.79159534  1  1.545189  0  0.192433  0.550062  0  4.239646  0
C  C36  1  0.78719883  0.18282958  0.29150525  1  1.528721  0  0.191715  0.5486  0  4.24149  0
C  C37  1  0.60348018  0.81723684  0.20840692  1  1.545032  0  0.19238  0.550053  0  4.239574  0
C  C38  1  0.04559361  0.74105551  0.65995827  1  -0.017449  0  -0.022367  -0.037995  0  3.970959  0
C  C39  1  0.30562953  0.25892603  0.84019773  1  -0.06102  0  -0.022599  -0.038289  0  3.971482  0
C  C40  1  0.95439344  0.25894552  0.34004139  1  -0.017515  0  -0.022379  -0.038065  0  3.971118  0
C  C41  1  0.69436262  0.74107768  0.15979851  1  -0.060802  0  -0.022627  -0.038278  0  3.971231  0
C  C42  1  0.09720286  0.65278278  0.65178338  1  -0.034062  0  -0.080945  -0.087525  0  3.980757  0
C  C43  1  0.44573224  0.34718423  0.84844780  1  0.003001  0  -0.080725  -0.08636  0  3.982204  0
C  C44  1  0.90280864  0.34721825  0.34821466  1  -0.033655  0  -0.080942  -0.087396  0  3.980781  0
C  C45  1  0.55428289  0.65281279  0.15155616  1  0.002466  0  -0.080705  -0.086393  0  3.981962  0
C  C46  1  0.83938212  0.75791425  0.62053923  1  -0.020209  0  -0.092712  -0.090828  0  4.011993  0
C  C47  1  0.08215221  0.24205933  0.87954684  1  -0.070257  0  -0.093445  -0.092607  0  4.013419  0
C  C48  1  0.16059914  0.24208275  0.37946205  1  -0.02032  0  -0.092613  -0.090644  0  4.011717  0
C  C49  1  0.91784188  0.75793697  0.12045004  1  -0.070348  0  -0.093448  -0.092577  0  4.013357  0
C  C50  1  0.68649479  0.68875185  0.57397243  1  -0.079137  0  -0.088275  -0.132018  0  3.96341  0
C  C51  1  0.99819319  0.31120242  0.92608904  1  -0.051969  0  -0.087964  -0.131138  0  3.964581  0
C  C52  1  0.31349298  0.31124312  0.42602804  1  -0.079044  0  -0.088348  -0.132102  0  3.963693  0
C  C53  1  0.00179834  0.68879252  0.07390766  1  -0.05183  0  -0.087991  -0.131156  0  3.964454  0
C  C54  1  0.94473804  0.58271761  0.60545327  1  -0.016039  0  -0.08262  -0.126955  0  3.933623  0
C  C55  1  0.36305883  0.41724842  0.89476092  1  -0.030086  0  -0.082478  -0.127551  0  3.936188  0
C  C56  1  0.05527622  0.41728139  0.39454504  1  -0.016092  0  -0.082654  -0.12701  0  3.933665  0
C  C57  1  0.63694228  0.58275063  0.10524493  1  -0.030404  0  -0.082456  -0.127518  0  3.936071  0
C  C58  1  0.73568005  0.59957591  0.56602280  1  0.106903  0  0.001702  0.14055  0  4.111781  0
C  C59  1  0.13673211  0.40038374  0.93412299  1  0.08438  0  0.000793  0.138293  0  4.113472  0
C  C60  1  0.26432788  0.40042175  0.43397587  1  0.082683  0  0.001734  0.140455  0  4.111965  0
C  C61  1  0.86327141  0.59961263  0.06588574  1  0.084784  0  0.000778  0.138331  0  4.113393  0
C  C62  1  0.57379333  0.52926676  0.51983613  1  -0.393777  0  -0.042573  -0.106262  0  4.115754  0
C  C63  1  0.04470717  0.47073173  0.98021680  1  -0.418764  0  -0.042093  -0.105126  0  4.116118  0
C  C64  1  0.42621616  0.47073024  0.48016622  1  -0.006568  0  -0.042446  -0.106052  0  4.115608  0
C  C65  1  0.95529876  0.52926194  0.01979210  1  0.036965  0  -0.042028  -0.104938  0  4.115818  0
C  C66  1  0.79118993  0.93923294  0.84090028  1  0.474661  0  0.062666  0.121792  0  3.889664  0
C  C67  1  0.85266850  0.06046151  0.65926242  1  0.468776  0  0.063845  0.124917  0  3.887904  0
C  C68  1  0.20879771  0.06075800  0.15910397  1  0.474346  0  0.062695  0.121883  0  3.889119  0
C  C69  1  0.14730890  0.93955031  0.34073436  1  0.46925  0  0.063892  0.12458  0  3.887972  0
C  C70  1  0.60359418  0.05482464  0.90283712  1  0.419996  0  0.052663  0.095976  0  3.945892  0
C  C71  1  0.54861928  0.94518805  0.59729499  1  0.448076  0  0.051271  0.093058  0  3.947819  0
C  C72  1  0.39642504  0.94517301  0.09715993  1  0.420045  0  0.052592  0.095929  0  3.946062  0
C  C73  1  0.45138538  0.05481433  0.40270431  1  0.447982  0  0.051313  0.093064  0  3.947766  0
C  C74  1  0.74641001  0.05801759  0.96587214  1  0.01861  0  -0.077083  -0.171384  0  3.953628  0
C  C75  1  0.68812124  0.94206132  0.53418748  1  0.014396  0  -0.076755  -0.170553  0  3.954532  0
C  C76  1  0.25361056  0.94198276  0.03412580  1  0.018513  0  -0.077034  -0.171336  0  3.953971  0
C  C77  1  0.31188168  0.05794511  0.46581127  1  0.014682  0  -0.076688  -0.170395  0  3.954437  0
C  C78  1  0.94189751  0.93911504  0.90192008  1  -0.016156  0  -0.071575  -0.157476  0  3.898625  0
C  C79  1  0.00345658  0.06059669  0.59817402  1  -0.000834  0  -0.071721  -0.159086  0  3.899823  0
C  C80  1  0.05809610  0.06087656  0.09808156  1  -0.015469  0  -0.0716  -0.157481  0  3.898356  0
C  C81  1  0.99652627  0.93941852  0.40182535  1  -0.000485  0  -0.071781  -0.15896  0  3.89954  0
C  C82  1  0.92242115  0.99927694  0.96679781  1  -0.056526  0  0.014343  0.097801  0  3.972855  0
C  C83  1  0.92314870  0.00068744  0.53323263  1  -0.092371  0  0.014621  0.098094  0  3.976701  0
C  C84  1  0.07758901  0.00072140  0.03320256  1  -0.016814  0  0.014317  0.097834  0  3.973002  0
C  C85  1  0.07684168  0.99932777  0.46676674  1  -0.051996  0  0.014499  0.098039  0  3.976665  0
N  N86  1  0.62511876  0.99659116  0.84113822  1  -1.251936  0  -0.320868  -0.218995  0  3.557349  0
N  N87  1  0.62878904  0.00327561  0.65901796  1  -1.246292  0  -0.3223  -0.220245  0  3.557352  0
N  N88  1  0.37487707  0.00340111  0.15886244  1  -1.252051  0  -0.32086  -0.219023  0  3.55722  0
N  N89  1  0.37121084  0.99672476  0.34098322  1  -1.24657  0  -0.32227  -0.220049  0  3.557448  0
O  O90  1  0.14621605  0.89672774  0.71043239  1  -1.175005  0  -0.349027  -0.580924  0  2.352871  0
O  O91  1  0.24997149  0.10325694  0.78968285  1  -1.180426  0  -0.348765  -0.581133  0  2.351952  0
O  O92  1  0.85376639  0.10327537  0.28957400  1  -1.174808  0  -0.348974  -0.580938  0  2.353054  0
O  O93  1  0.75004243  0.89674142  0.21031968  1  -1.180338  0  -0.348696  -0.581043  0  2.351994  0
O  O94  1  0.40262996  0.80465232  0.74209752  1  -1.17076  0  -0.327888  -0.547558  0  2.118399  0
O  O95  1  0.59903387  0.19520214  0.75798255  1  -1.176254  0  -0.328398  -0.548096  0  2.118539  0
O  O96  1  0.59737791  0.19535270  0.25789297  1  -1.17085  0  -0.327947  -0.547572  0  2.118139  0
O  O97  1  0.40095612  0.80479349  0.24201693  1  -1.176186  0  -0.328353  -0.548095  0  2.118393  0
