# generated using pymatgen
data_Al2H19C34ClO12
_symmetry_space_group_name_H-M   'P 1'
_cell_length_a   6.65704820
_cell_length_b   20.63207855
_cell_length_c   22.28086722
_cell_angle_alpha   89.99991405
_cell_angle_beta   90.00352556
_cell_angle_gamma   92.86593479
_symmetry_Int_Tables_number   1
_chemical_formula_structural   Al2H19C34ClO12
_chemical_formula_sum   'Al4 H38 C68 Cl2 O24'
_cell_volume   3056.42149050
_cell_formula_units_Z   2
loop_
 _symmetry_equiv_pos_site_id
 _symmetry_equiv_pos_as_xyz
  1  'x, y, z'
loop_
 _atom_site_type_symbol
 _atom_site_label
 _atom_site_symmetry_multiplicity
 _atom_site_fract_x
 _atom_site_fract_y
 _atom_site_fract_z
 _atom_site_occupancy
 _atom_site_pbe_bader_charge
 _atom_site_pbe_bader_spin_density
 _atom_site_pbe_cm5_charge
 _atom_site_pbe_ddec_charge
 _atom_site_pbe_ddec_spin_density
 _atom_site_pbe_ddec_sum_bond_order
 _atom_site_pbe_magmom
Al  Al0  1  0.01563793  0.31586010  0.49681916  1  2.498013  0  0.39728  1.6422  0  2.574561  0
Al  Al1  1  0.98439592  0.68413730  0.99682170  1  2.498054  0  0.397306  1.642391  0  2.574357  0
Al  Al2  1  0.51633234  0.31863102  0.49798466  1  2.495312  0  0.397126  1.63951  0  2.577633  0
Al  Al3  1  0.48370384  0.68136008  0.99798062  1  2.495478  0  0.397242  1.639698  0  2.577324  0
H  H4  1  0.54325531  0.19317753  0.64434377  1  0.109552  0  0.112039  0.118022  0  0.989606  0
H  H5  1  0.45678974  0.80681821  0.14433216  1  0.109225  0  0.112017  0.118012  0  0.989682  0
H  H6  1  0.98264738  0.86479392  0.90930822  1  0.133932  0  0.116724  0.125628  0  0.988669  0
H  H7  1  0.01736270  0.13520501  0.40930399  1  0.13397  0  0.11675  0.125679  0  0.9886  0
H  H8  1  0.57029455  0.80635223  0.85853756  1  0.125112  0  0.116017  0.121225  0  0.98197  0
H  H9  1  0.42971247  0.19365860  0.35852475  1  0.120147  0  0.116017  0.12122  0  0.982012  0
H  H10  1  0.50297690  0.00828440  0.76048963  1  0.051353  0  0.10463  0.106146  0  0.998554  0
H  H11  1  0.49700690  0.99172111  0.26046630  1  0.051099  0  0.104623  0.106094  0  0.998513  0
H  H12  1  0.91729540  0.05201792  0.65942154  1  0.054627  0  0.100961  0.099876  0  1.000283  0
H  H13  1  0.08274102  0.94797304  0.15944756  1  0.054513  0  0.100946  0.099688  0  1.000591  0
H  H14  1  0.93833813  0.14446722  0.58703970  1  0.113597  0  0.11413  0.120689  0  0.985015  0
H  H15  1  0.06172014  0.85552145  0.08706932  1  0.113726  0  0.11427  0.120899  0  0.984686  0
H  H16  1  0.04513403  0.99522805  0.74126483  1  0.030573  0  0.100625  0.095799  0  1.009182  0
H  H17  1  0.95486213  0.00477495  0.24127654  1  0.030651  0  0.100597  0.095782  0  1.009124  0
H  H18  1  0.51990413  0.10459789  0.72004593  1  0.050041  0  0.101719  0.100653  0  1.006775  0
H  H19  1  0.48010646  0.89540016  0.22003120  1  0.050354  0  0.101729  0.100518  0  1.00684  0
H  H20  1  0.61109578  0.90203694  0.79076427  1  0.079273  0  0.103941  0.10489  0  0.995621  0
H  H21  1  0.38888788  0.09798182  0.29073778  1  0.078638  0  0.103884  0.104929  0  0.995277  0
H  H22  1  0.31836483  0.53043439  0.55007491  1  0.080113  0  0.113515  0.116217  0  0.97113  0
H  H23  1  0.68186305  0.46954147  0.05007649  1  0.08025  0  0.113514  0.116282  0  0.971054  0
H  H24  1  0.31092704  0.66001945  0.72295977  1  0.058391  0  0.105888  0.106099  0  0.99013  0
H  H25  1  0.68917878  0.33998684  0.22297530  1  0.058588  0  0.105866  0.105998  0  0.990446  0
H  H26  1  0.32314063  0.62108411  0.62470744  1  0.081041  0  0.104757  0.103319  0  0.995261  0
H  H27  1  0.67704546  0.37890666  0.12472001  1  0.080582  0  0.104679  0.103098  0  0.99572  0
H  H28  1  0.11806206  0.38121807  0.78622359  1  0.105898  0  0.087763  0.095936  0  1.083824  0
H  H29  1  0.88173081  0.61880846  0.28625278  1  0.106324  0  0.087779  0.096075  0  1.083504  0
H  H30  1  0.07497523  0.37016489  0.89436276  1  0.07575  0  0.10268  0.0976  0  0.999677  0
H  H31  1  0.92477279  0.62985585  0.39439424  1  0.076038  0  0.1027  0.097598  0  0.999973  0
H  H32  1  0.28207424  0.64437170  0.83213849  1  0.07687  0  0.108841  0.116027  0  1.001673  0
H  H33  1  0.71800837  0.35564045  0.33214849  1  0.077419  0  0.108849  0.115895  0  1.002007  0
H  H34  1  0.08123995  0.40998503  0.99224628  1  0.047413  0  0.092595  0.01906  0  0.971211  0
H  H35  1  0.91862624  0.59003373  0.49226926  1  0.04786  0  0.092542  0.019078  0  0.971003  0
H  H36  1  0.06042673  0.02966745  0.84388624  1  0.077456  0  0.095392  0.031813  0  0.982775  0
H  H37  1  0.93952179  0.97033118  0.34388501  1  0.077503  0  0.095463  0.031888  0  0.982965  0
H  H38  1  0.77620193  0.35080290  0.56726897  1  0.626133  0  0.355073  0.436673  0  0.84653  0
H  H39  1  0.22387253  0.64918956  0.06726888  1  0.626133  0  0.355107  0.436739  0  0.846833  0
H  H40  1  0.27052575  0.34945725  0.42588851  1  0.61715  0  0.351972  0.431631  0  0.853011  0
H  H41  1  0.72950518  0.65054030  0.92588623  1  0.617386  0  0.351955  0.431708  0  0.852839  0
C  C42  1  0.74993566  0.22933388  0.42630948  1  1.588811  0  0.268303  0.634922  0  4.114586  0
C  C43  1  0.25007316  0.77066562  0.92631397  1  1.588488  0  0.268539  0.635259  0  4.114323  0
C  C44  1  0.78056813  0.40914523  0.42861632  1  1.622173  0  0.267262  0.649592  0  4.137302  0
C  C45  1  0.21944178  0.59085719  0.92860481  1  1.622304  0  0.267392  0.649628  0  4.136768  0
C  C46  1  0.27786048  0.40273958  0.57277100  1  1.635283  0  0.266667  0.649423  0  4.129657  0
C  C47  1  0.72219829  0.59724854  0.07276777  1  1.635098  0  0.266546  0.649291  0  4.129813  0
C  C48  1  0.25280960  0.22853599  0.56762095  1  1.557709  0  0.267125  0.63264  0  4.117305  0
C  C49  1  0.74723515  0.77145793  0.06762738  1  1.55816  0  0.267387  0.633095  0  4.11706  0
C  C50  1  0.24248290  0.17371568  0.61111120  1  -0.004488  0  -0.012414  -0.04037  0  3.970932  0
C  C51  1  0.75755968  0.82627456  0.11111938  1  -0.003789  0  -0.012341  -0.040255  0  3.970419  0
C  C52  1  0.40718751  0.16177167  0.64817138  1  -0.00823  0  -0.079514  -0.089692  0  3.98311  0
C  C53  1  0.59284754  0.83822069  0.14817122  1  -0.00729  0  -0.079515  -0.089789  0  3.98287  0
C  C54  1  0.39383354  0.11171359  0.68986185  1  -0.060967  0  -0.089505  -0.131798  0  3.963649  0
C  C55  1  0.60618805  0.88828285  0.18985901  1  -0.061185  0  -0.089535  -0.131608  0  3.963463  0
C  C56  1  0.21777420  0.07090968  0.69444144  1  0.028357  0  -0.010274  0.112684  0  4.044957  0
C  C57  1  0.78224302  0.92908921  0.19444468  1  0.028155  0  -0.010188  0.112704  0  4.044917  0
C  C58  1  0.05413002  0.08337231  0.65662591  1  -0.117528  0  -0.089102  -0.136202  0  3.972704  0
C  C59  1  0.94590481  0.91662300  0.15664197  1  -0.117761  0  -0.089015  -0.135927  0  3.972886  0
C  C60  1  0.06521665  0.13442463  0.61591878  1  -0.025188  0  -0.077692  -0.081728  0  3.974263  0
C  C61  1  0.93483056  0.86556757  0.11593845  1  -0.025965  0  -0.077983  -0.082096  0  3.974277  0
C  C62  1  0.14410019  0.92819319  0.84702982  1  -0.034381  0  -0.021346  -0.042626  0  3.963258  0
C  C63  1  0.85586918  0.07180837  0.34702620  1  -0.033256  0  -0.021464  -0.042417  0  3.963179  0
C  C64  1  0.11843565  0.87201199  0.88221689  1  -0.048486  0  -0.064102  -0.094121  0  3.90868  0
C  C65  1  0.88156066  0.12798488  0.38221566  1  -0.048502  0  -0.06406  -0.094209  0  3.908765  0
C  C66  1  0.44992034  0.83986553  0.85347682  1  -0.065597  0  -0.067176  -0.065614  0  3.948819  0
C  C67  1  0.55008145  0.16013993  0.35346470  1  -0.060142  0  -0.067117  -0.06559  0  3.948752  0
C  C68  1  0.47274350  0.89361387  0.81636791  1  -0.055308  0  -0.080861  -0.114388  0  3.968028  0
C  C69  1  0.52724584  0.10639628  0.31634893  1  -0.055401  0  -0.080872  -0.114528  0  3.967834  0
C  C70  1  0.32005251  0.93816686  0.81120149  1  0.022649  0  0.00553  0.098917  0  3.990346  0
C  C71  1  0.67991654  0.06183792  0.31118676  1  0.022849  0  0.005684  0.098998  0  3.990719  0
C  C72  1  0.19737848  0.01730998  0.73683920  1  -0.02238  0  -0.084612  -0.128702  0  4.009547  0
C  C73  1  0.80261241  0.98269591  0.23683805  1  -0.021801  0  -0.084628  -0.128723  0  4.009495  0
C  C74  1  0.34710176  0.99123172  0.76859641  1  -0.033958  0  -0.086405  -0.13272  0  3.995578  0
C  C75  1  0.65287894  0.00877820  0.26858151  1  -0.034941  0  -0.086388  -0.132637  0  3.995676  0
C  C76  1  0.27028216  0.82796771  0.88573256  1  0.017215  0  -0.013048  -0.048097  0  3.985818  0
C  C77  1  0.72971993  0.17203112  0.38572844  1  0.016772  0  -0.013009  -0.047979  0  3.985933  0
C  C78  1  0.30134444  0.57069434  0.63915925  1  -0.083294  0  -0.087813  -0.136608  0  4.005942  0
C  C79  1  0.69880642  0.42929554  0.13916520  1  -0.081837  0  -0.087686  -0.136371  0  4.006334  0
C  C80  1  0.27854228  0.45665939  0.61813810  1  0.038263  0  -0.009353  -0.073817  0  3.960745  0
C  C81  1  0.72153317  0.54332700  0.11813816  1  0.03877  0  -0.009101  -0.07351  0  3.960739  0
C  C82  1  0.15305714  0.47070830  0.91404545  1  0.048438  0  -0.024452  -0.01735  0  4.045472  0
C  C83  1  0.84686023  0.52930426  0.41406684  1  0.04848  0  -0.024545  -0.017604  0  4.045594  0
C  C84  1  0.12127054  0.41732416  0.87526408  1  -0.074739  0  -0.086879  -0.106369  0  4.030872  0
C  C85  1  0.87856527  0.58268629  0.37528660  1  -0.075372  0  -0.086907  -0.106436  0  4.031434  0
C  C86  1  0.14775302  0.42356725  0.81407631  1  0.022815  0  -0.098473  -0.137132  0  4.009451  0
C  C87  1  0.85211539  0.57645164  0.31409538  1  0.02257  0  -0.098404  -0.137102  0  4.009466  0
C  C88  1  0.21003408  0.48368595  0.78745107  1  -0.091411  0  0.008773  0.06437  0  3.898403  0
C  C89  1  0.78992584  0.51633085  0.28746103  1  -0.091017  0  0.008716  0.064245  0  3.898373  0
C  C90  1  0.22948386  0.53924321  0.82652230  1  0.002301  0  0.001191  0.05649  0  3.953622  0
C  C91  1  0.77051533  0.46076407  0.32653532  1  0.001764  0  0.001278  0.056462  0  3.953114  0
C  C92  1  0.24644655  0.49253844  0.72323250  1  0.063003  0  0.000204  -0.026241  0  3.885804  0
C  C93  1  0.75356929  0.50746835  0.22323845  1  0.062981  0  0.000247  -0.025753  0  3.885719  0
C  C94  1  0.27622463  0.55782571  0.70097852  1  -0.011895  0  -0.002418  0.089444  0  4.013035  0
C  C95  1  0.72385636  0.44217563  0.20098878  1  -0.011707  0  -0.002424  0.089294  0  4.013021  0
C  C96  1  0.28589518  0.61144083  0.74176102  1  -0.04732  0  -0.087807  -0.127045  0  4.028246  0
C  C97  1  0.71418952  0.38856070  0.24177492  1  -0.048056  0  -0.08772  -0.126812  0  4.028702  0
C  C98  1  0.26894516  0.60278628  0.80201128  1  -0.008528  0  -0.089602  -0.1269  0  4.013443  0
C  C99  1  0.73111624  0.39721990  0.30202221  1  -0.008967  0  -0.089741  -0.126837  0  4.014193  0
C  C100  1  0.25728687  0.44270214  0.67901130  1  0.069625  0  0.026374  0.082931  0  3.94472  0
C  C101  1  0.74272250  0.55729280  0.17901472  1  0.0697  0  0.026267  0.082658  0  3.944686  0
C  C102  1  0.29974427  0.52098320  0.59790957  1  -0.002598  0  -0.074745  -0.066719  0  3.994173  0
C  C103  1  0.70041440  0.47900406  0.09791091  1  -0.003911  0  -0.07501  -0.067033  0  3.994474  0
C  C104  1  0.20273750  0.53159036  0.88922931  1  -0.042466  0  0.011961  -0.063474  0  3.854554  0
C  C105  1  0.79723380  0.46841673  0.38924847  1  -0.042156  0  0.01197  -0.063513  0  3.854276  0
C  C106  1  0.13271904  0.46054693  0.97917925  1  0.887485  0  0.093194  0.255674  0  4.004264  0
C  C107  1  0.86719934  0.53946351  0.47920490  1  0.888038  0  0.093119  0.255611  0  4.004624  0
C  C108  1  0.99967951  0.97971961  0.85485022  1  0.874354  0  0.085446  0.257254  0  4.016323  0
C  C109  1  0.00026105  0.02027617  0.35484164  1  0.873922  0  0.085332  0.257026  0  4.015722  0
Cl  Cl110  1  0.25961856  0.36004396  0.69551752  1  -0.203673  0  0.023374  -0.051603  0  1.562406  0
Cl  Cl111  1  0.74034488  0.63995495  0.19550855  1  -0.203649  0  0.023387  -0.05165  0  1.562285  0
O  O112  1  0.60459427  0.38809549  0.44288536  1  -1.257495  0  -0.234858  -0.596936  0  2.341463  0
O  O113  1  0.39542879  0.61189874  0.94287640  1  -1.257401  0  -0.234959  -0.597034  0  2.34128  0
O  O114  1  0.92585813  0.24888558  0.44249078  1  -1.258636  0  -0.231035  -0.578078  0  2.338419  0
O  O115  1  0.07415878  0.75112758  0.94250843  1  -1.258706  0  -0.231201  -0.578344  0  2.338276  0
O  O116  1  0.08570812  0.24824619  0.54911029  1  -1.254026  0  -0.230761  -0.584765  0  2.366177  0
O  O117  1  0.91434136  0.75174328  0.04912511  1  -1.254466  0  -0.230978  -0.585101  0  2.366102  0
O  O118  1  0.94556526  0.38336326  0.44048944  1  -1.25213  0  -0.236372  -0.601542  0  2.336347  0
O  O119  1  0.05445709  0.61664989  0.94047762  1  -1.252288  0  -0.236439  -0.601591  0  2.33591  0
O  O120  1  0.10580834  0.38100392  0.55559156  1  -1.248062  0  -0.229247  -0.588979  0  2.361978  0
O  O121  1  0.89425711  0.61898023  0.05558813  1  -1.248229  0  -0.229258  -0.58906  0  2.361975  0
O  O122  1  0.58715592  0.25468998  0.44159196  1  -1.255525  0  -0.231181  -0.585802  0  2.361404  0
O  O123  1  0.41284492  0.74529892  0.94158506  1  -1.255171  0  -0.231349  -0.585924  0  2.361425  0
O  O124  1  0.76726695  0.32016813  0.53410643  1  -1.425274  0  -0.447549  -0.983297  0  2.170903  0
O  O125  1  0.23279366  0.67982272  0.03410457  1  -1.4253  0  -0.44768  -0.983497  0  2.171259  0
O  O126  1  0.44773420  0.38492882  0.55520678  1  -1.24401  0  -0.229252  -0.583221  0  2.343609  0
O  O127  1  0.55232223  0.61506552  0.05520455  1  -1.243884  0  -0.22906  -0.583036  0  2.3434  0
O  O128  1  0.42603082  0.25202139  0.55260551  1  -1.257057  0  -0.231717  -0.583622  0  2.343691  0
O  O129  1  0.57400950  0.74798023  0.05259956  1  -1.257149  0  -0.231747  -0.583736  0  2.34345  0
O  O130  1  0.26691660  0.32087028  0.46050029  1  -1.420342  0  -0.448146  -0.98438  0  2.180852  0
O  O131  1  0.73311762  0.67912598  0.96049932  1  -1.420812  0  -0.448143  -0.984546  0  2.180526  0
O  O132  1  0.16909988  0.50191488  0.01771325  1  -1.058163  0  -0.242907  -0.326763  0  2.162581  0
O  O133  1  0.83089947  0.49809726  0.51773196  1  -1.059366  0  -0.242816  -0.326627  0  2.163548  0
O  O134  1  0.82781000  0.97105606  0.87445928  1  -1.092785  0  -0.278402  -0.376609  0  2.138785  0
O  O135  1  0.17219666  0.02894368  0.37444919  1  -1.09266  0  -0.278475  -0.376703  0  2.137795  0
