# generated using pymatgen
data_TbH7C8SO9
_symmetry_space_group_name_H-M   'P 1'
_cell_length_a   6.36086238
_cell_length_b   8.59806479
_cell_length_c   10.59034795
_cell_angle_alpha   90.91907740
_cell_angle_beta   99.52875179
_cell_angle_gamma   107.38786141
_symmetry_Int_Tables_number   1
_chemical_formula_structural   TbH7C8SO9
_chemical_formula_sum   'Tb2 H14 C16 S2 O18'
_cell_volume   543.78221737
_cell_formula_units_Z   2
loop_
 _symmetry_equiv_pos_site_id
 _symmetry_equiv_pos_as_xyz
  1  'x, y, z'
loop_
 _atom_site_type_symbol
 _atom_site_label
 _atom_site_symmetry_multiplicity
 _atom_site_fract_x
 _atom_site_fract_y
 _atom_site_fract_z
 _atom_site_occupancy
 _atom_site_hle17_bader_spin_density
 _atom_site_hle17_ddec_charge
 _atom_site_hle17_ddec_spin_density
 _atom_site_hle17_ddec_sum_bond_order
 _atom_site_hle17_magmom
 _atom_site_hse06_10hf_bader_spin_density
 _atom_site_hse06_10hf_ddec_charge
 _atom_site_hse06_10hf_ddec_spin_density
 _atom_site_hse06_10hf_ddec_sum_bond_order
 _atom_site_hse06_10hf_magmom
 _atom_site_hse06_bader_spin_density
 _atom_site_hse06_ddec_charge
 _atom_site_hse06_ddec_spin_density
 _atom_site_hse06_ddec_sum_bond_order
 _atom_site_hse06_magmom
 _atom_site_pbe_bader_spin_density
 _atom_site_pbe_cm5_charge
 _atom_site_pbe_ddec_charge
 _atom_site_pbe_ddec_spin_density
 _atom_site_pbe_ddec_sum_bond_order
 _atom_site_pbe_magmom
Tb  Tb0  1  0.15245022  0.24387090  0.61319846  1  0  2.311813  0  1.61116  0  0  2.240687  0  1.939597  0  0  2.28405  0  1.900117  0  0  1.534126  2.139893  0  2.097178  0
Tb  Tb1  1  0.84754980  0.75612894  0.38680161  1  0  2.311793  0  1.611191  0  0  2.240652  0  1.939631  0  0  2.284015  0  1.900151  0  0  1.534116  2.139861  0  2.09722  0
H  H2  1  0.61934978  0.41488131  0.14476501  1  0  0.110087  0  0.940436  0  0  0.117385  0  1.004554  0  0  0.121077  0  1.002517  0  0  0.115211  0.114837  0  1.005759  0
H  H3  1  0.38065024  0.58511853  0.85523506  1  0  0.110087  0  0.940432  0  0  0.117385  0  1.004551  0  0  0.121077  0  1.002514  0  0  0.115211  0.114833  0  1.005758  0
H  H4  1  0.65913908  0.36687619  0.91917714  1  0  0.115628  0  0.946263  0  0  0.126624  0  1.004639  0  0  0.130361  0  1.001794  0  0  0.114631  0.123558  0  1.007327  0
H  H5  1  0.34086145  0.63312488  0.08082206  1  0  0.115667  0  0.946261  0  0  0.126659  0  1.004635  0  0  0.130397  0  1.00179  0  0  0.114656  0.123593  0  1.007326  0
H  H6  1  0.17757186  0.15123908  0.05416598  1  0  0.126681  0  0.948048  0  0  0.133528  0  1.010038  0  0  0.137337  0  1.007731  0  0  0.115859  0.130406  0  1.012491  0
H  H7  1  0.82242919  0.84876321  0.94583424  1  0  0.126676  0  0.948017  0  0  0.133524  0  1.010009  0  0  0.137334  0  1.007701  0  0  0.115847  0.130402  0  1.012461  0
H  H8  1  0.52743583  0.08089553  0.67711250  1  0  0.46292  0  0.809363  0  0  0.435604  0  0.867767  0  0  0.445234  0  0.853542  0  0  0.319615  0.428253  0  0.878486  0
H  H9  1  0.47256470  0.91910554  0.32288670  1  0  0.462911  0  0.809348  0  0  0.435596  0  0.867776  0  0  0.445226  0  0.85355  0  0  0.319604  0.428248  0  0.878489  0
H  H10  1  0.30256957  0.95168441  0.60618206  1  0  0.448433  0  0.848975  0  0  0.416564  0  0.914117  0  0  0.426972  0  0.898908  0  0  0.30606  0.408964  0  0.924973  0
H  H11  1  0.69743153  0.04831420  0.39381810  1  0  0.448431  0  0.848979  0  0  0.416565  0  0.914116  0  0  0.426972  0  0.898908  0  0  0.306064  0.408963  0  0.924976  0
H  H12  1  0.65329341  0.35323136  0.70981099  1  0  0.449068  0  0.845604  0  0  0.421332  0  0.903381  0  0  0.43202  0  0.887823  0  0  0.304915  0.413273  0  0.914971  0
H  H13  1  0.34670661  0.64676848  0.29018909  1  0  0.449056  0  0.845622  0  0  0.42132  0  0.903398  0  0  0.432008  0  0.88784  0  0  0.30492  0.413257  0  0.914996  0
H  H14  1  0.58172874  0.50394727  0.65093450  1  0  0.446109  0  0.847045  0  0  0.417455  0  0.906307  0  0  0.427463  0  0.89169  0  0  0.305551  0.410016  0  0.916969  0
H  H15  1  0.41827128  0.49605257  0.34906557  1  0  0.446105  0  0.847053  0  0  0.41745  0  0.906315  0  0  0.427459  0  0.891698  0  0  0.305553  0.410017  0  0.916969  0
C  C16  1  0.01982725  0.22454615  0.19957994  1  0  -0.132469  0  3.68633  0  0  -0.112969  0  3.934262  0  0  -0.119757  0  3.955124  0  0  -0.006852  -0.109027  0  3.921651  0
C  C17  1  0.98017329  0.77545491  0.80041926  1  0  -0.132535  0  3.686265  0  0  -0.113041  0  3.934224  0  0  -0.119829  0  3.955083  0  0  -0.006894  -0.109106  0  3.921612  0
C  C18  1  0.86690053  0.30454774  0.22701588  1  0  -0.034445  0  3.662882  0  0  -0.026423  0  3.897098  0  0  -0.027881  0  3.915364  0  0  0.007743  -0.025728  0  3.886426  0
C  C19  1  0.13309949  0.69545210  0.77298420  1  0  -0.034482  0  3.662804  0  0  -0.026457  0  3.897026  0  0  -0.027915  0  3.915291  0  0  0.007722  -0.025753  0  3.886341  0
C  C20  1  0.73760551  0.35310322  0.12375788  1  0  -0.047402  0  3.673216  0  0  -0.071294  0  3.930532  0  0  -0.073784  0  3.948957  0  0  -0.067003  -0.070013  0  3.918549  0
C  C21  1  0.26239451  0.64689662  0.87624314  1  0  -0.047398  0  3.673171  0  0  -0.071292  0  3.930489  0  0  -0.073782  0  3.948914  0  0  -0.067001  -0.070002  0  3.918493  0
C  C22  1  0.76085884  0.32675559  0.99733748  1  0  -0.037198  0  3.65462  0  0  -0.063203  0  3.899409  0  0  -0.060627  0  3.916804  0  0  -0.064578  -0.064715  0  3.888656  0
C  C23  1  0.23914119  0.67324424  0.00266354  1  0  -0.037207  0  3.654629  0  0  -0.063219  0  3.89942  0  0  -0.060642  0  3.916814  0  0  -0.064589  -0.064734  0  3.888673  0
C  C24  1  0.92235658  0.25558374  0.97231008  1  0  -0.043978  0  3.726808  0  0  -0.018009  0  3.958692  0  0  -0.026694  0  3.981557  0  0  -0.006678  -0.01316  0  3.944481  0
C  C25  1  0.07764396  0.74441732  0.02769100  1  0  -0.043995  0  3.726888  0  0  -0.018012  0  3.958758  0  0  -0.026698  0  3.981624  0  0  -0.006689  -0.013175  0  3.944558  0
C  C26  1  0.04961437  0.20361328  0.07389660  1  0  -0.052046  0  3.69845  0  0  -0.089395  0  3.94678  0  0  -0.087197  0  3.965739  0  0  -0.069107  -0.091013  0  3.935503  0
C  C27  1  0.95038935  0.79638778  0.92610481  1  0  -0.051983  0  3.698352  0  0  -0.089338  0  3.946684  0  0  -0.08714  0  3.965644  0  0  -0.069056  -0.090949  0  3.935402  0
C  C28  1  0.84392412  0.34824512  0.36141253  1  0  0.74509  0  3.814734  0  0  0.694274  0  4.113744  0  0  0.730227  0  4.099231  0  0  0.250609  0.669083  0  4.119431  0
C  C29  1  0.15607590  0.65175473  0.63858755  1  0  0.745098  0  3.814709  0  0  0.694282  0  4.11372  0  0  0.730235  0  4.099206  0  0  0.250601  0.66908  0  4.119416  0
C  C30  1  0.98107967  0.24441178  0.84252544  1  0  0.641231  0  3.92376  0  0  0.589258  0  4.231854  0  0  0.622929  0  4.224354  0  0  0.199994  0.567556  0  4.228527  0
C  C31  1  0.01892086  0.75558928  0.15747471  1  0  0.641247  0  3.923771  0  0  0.589269  0  4.231861  0  0  0.62294  0  4.22436  0  0  0.199995  0.567577  0  4.228528  0
S  S32  1  0.20943112  0.16579915  0.31936532  1  0  1.350854  0  5.561574  0  0  1.249166  0  6.082047  0  0  1.297725  0  6.057413  0  0  0.540114  1.215341  0  6.090039  0
S  S33  1  0.79056890  0.83420069  0.68063570  1  0  1.350927  0  5.561584  0  0  1.249222  0  6.082076  0  0  1.297782  0  6.05744  0  0  0.54012  1.215401  0  6.090073  0
O  O34  1  0.08361943  0.02953710  0.38790806  1  0  -0.814094  0  2.180872  0  0  -0.772725  0  2.472065  0  0  -0.793536  0  2.455125  0  0  -0.410697  -0.743678  0  2.480004  0
O  O35  1  0.91637740  0.97046274  0.61209170  1  0  -0.814136  0  2.180921  0  0  -0.772756  0  2.472102  0  0  -0.793572  0  2.455169  0  0  -0.410683  -0.74369  0  2.479999  0
O  O36  1  0.30844619  0.30944084  0.41468764  1  0  -0.752356  0  2.054746  0  0  -0.699532  0  2.309185  0  0  -0.720242  0  2.29335  0  0  -0.371385  -0.677438  0  2.320387  0
O  O37  1  0.69155491  0.69055778  0.58531252  1  0  -0.752416  0  2.054792  0  0  -0.69956  0  2.309185  0  0  -0.720269  0  2.293353  0  0  -0.371422  -0.677464  0  2.320383  0
O  O38  1  0.36882032  0.12409836  0.25334485  1  0  -0.611105  0  1.978479  0  0  -0.551581  0  2.212477  0  0  -0.574431  0  2.20254  0  0  -0.300458  -0.536583  0  2.220071  0
O  O39  1  0.63117868  0.87589904  0.74665698  1  0  -0.611109  0  1.978527  0  0  -0.551573  0  2.212514  0  0  -0.574425  0  2.202579  0  0  -0.300424  -0.536592  0  2.220125  0
O  O40  1  0.85217502  0.24625187  0.44736123  1  0  -0.740467  0  2.074173  0  0  -0.694361  0  2.319239  0  0  -0.718233  0  2.305225  0  0  -0.381841  -0.66894  0  2.331005  0
O  O41  1  0.14782501  0.75374797  0.55263979  1  0  -0.740455  0  2.074163  0  0  -0.694339  0  2.31921  0  0  -0.71821  0  2.305193  0  0  -0.381824  -0.668917  0  2.330977  0
O  O42  1  0.81839173  0.48541198  0.38218114  1  0  -0.703715  0  2.083332  0  0  -0.666509  0  2.349517  0  0  -0.691514  0  2.337567  0  0  -0.392183  -0.638453  0  2.360056  0
O  O43  1  0.18160829  0.51458786  0.61781894  1  0  -0.703714  0  2.083295  0  0  -0.666516  0  2.349486  0  0  -0.691521  0  2.337535  0  0  -0.392192  -0.638459  0  2.360029  0
O  O44  1  0.16617725  0.21847360  0.83524323  1  0  -0.68929  0  1.971743  0  0  -0.651718  0  2.212215  0  0  -0.676331  0  2.204248  0  0  -0.387686  -0.626236  0  2.217639  0
O  O45  1  0.83382277  0.78152624  0.16475779  1  0  -0.689301  0  1.971752  0  0  -0.651726  0  2.212221  0  0  -0.676341  0  2.204257  0  0  -0.387684  -0.626243  0  2.217644  0
O  O46  1  0.85449450  0.26364833  0.73985618  1  0  -0.711255  0  2.041023  0  0  -0.662665  0  2.278439  0  0  -0.687123  0  2.268137  0  0  -0.346968  -0.638724  0  2.284746  0
O  O47  1  0.14550552  0.73635151  0.26014390  1  0  -0.711246  0  2.040978  0  0  -0.662642  0  2.278374  0  0  -0.687102  0  2.268077  0  0  -0.346951  -0.638708  0  2.284695  0
O  O48  1  0.37633564  0.06980463  0.63169037  1  0  -0.922354  0  1.880093  0  0  -0.883077  0  2.07642  0  0  -0.900594  0  2.044143  0  0  -0.657139  -0.861396  0  2.104458  0
O  O49  1  0.62366438  0.93019522  0.36830970  1  0  -0.922329  0  1.880069  0  0  -0.883054  0  2.076413  0  0  -0.90057  0  2.044137  0  0  -0.657122  -0.861371  0  2.104453  0
O  O50  1  0.52811359  0.40218544  0.69419352  1  0  -0.915722  0  1.849476  0  0  -0.878416  0  2.04292  0  0  -0.897447  0  2.011629  0  0  -0.651864  -0.856083  0  2.069962  0
O  O51  1  0.47188535  0.59781562  0.30580647  1  0  -0.915713  0  1.849514  0  0  -0.8784  0  2.042944  0  0  -0.89743  0  2.011652  0  0  -0.651866  -0.856063  0  2.069986  0
