# generated using pymatgen
data_UH21C21S3O11
_symmetry_space_group_name_H-M   'P 1'
_cell_length_a   10.84178776
_cell_length_b   11.92956132
_cell_length_c   22.35770541
_cell_angle_alpha   89.99965521
_cell_angle_beta   89.99994925
_cell_angle_gamma   113.90202015
_symmetry_Int_Tables_number   1
_chemical_formula_structural   UH21C21S3O11
_chemical_formula_sum   'U4 H84 C84 S12 O44'
_cell_volume   2643.70301720
_cell_formula_units_Z   4
loop_
 _symmetry_equiv_pos_site_id
 _symmetry_equiv_pos_as_xyz
  1  'x, y, z'
loop_
 _atom_site_type_symbol
 _atom_site_label
 _atom_site_symmetry_multiplicity
 _atom_site_fract_x
 _atom_site_fract_y
 _atom_site_fract_z
 _atom_site_occupancy
 _atom_site_pbe_bader_charge
 _atom_site_pbe_bader_spin_density
 _atom_site_pbe_cm5_charge
 _atom_site_pbe_ddec_charge
 _atom_site_pbe_ddec_spin_density
 _atom_site_pbe_ddec_sum_bond_order
 _atom_site_pbe_magmom
U  U0  1  0.44507335  0.23001396  0.52512944  1  2.95139  -0.000189  2.21045  2.556559  -0.000394  4.744858  0.0
U  U1  1  0.05493595  0.76999222  0.02513056  1  2.951285  -0.000189  2.210375  2.556559  -0.00039  4.744521  0.0
U  U2  1  0.55493518  0.76999257  0.47487114  1  2.951378  0.000189  2.210392  2.556608  0.000394  4.744221  0.0
U  U3  1  0.94507167  0.23001881  0.97486867  1  2.95135  0.000189  2.210381  2.556407  0.000392  4.744902  0.0
H  H4  1  0.53426879  0.57744499  0.87098322  1  0.09621  0.014145  0.111119  0.162126  0.011159  0.964558  0.01
H  H5  1  0.96573556  0.42254874  0.37098036  1  0.09631  0.014146  0.111091  0.162062  0.011161  0.964592  0.01
H  H6  1  0.46573109  0.42255404  0.12901691  1  0.096199  -0.014147  0.111086  0.162041  -0.011161  0.964596  -0.01
H  H7  1  0.03427871  0.57745163  0.62901888  1  0.096294  -0.014146  0.111113  0.1621  -0.011161  0.964503  -0.01
H  H8  1  0.44756275  0.41745842  0.86974142  1  0.069679  0.006139  0.104279  0.15374  0.005023  0.987413  0.006
H  H9  1  0.05245335  0.58254139  0.36974003  1  0.069756  0.006139  0.104287  0.15378  0.005022  0.987312  0.006
H  H10  1  0.55244425  0.58254444  0.13025871  1  0.069569  -0.006141  0.104246  0.153705  -0.005024  0.987414  -0.006
H  H11  1  0.94755258  0.41746778  0.63026279  1  0.069832  -0.006139  0.104276  0.153772  -0.005023  0.987412  -0.006
H  H12  1  0.35569247  0.51303362  0.86710103  1  0.085208  0.001008  0.101905  0.156588  0.000657  1.004046  0.001
H  H13  1  0.14430604  0.48695937  0.36709588  1  0.085188  0.001008  0.101899  0.156567  0.000657  1.004096  0.001
H  H14  1  0.64430837  0.48696996  0.13290089  1  0.085216  -0.001008  0.101905  0.156547  -0.000657  1.004095  -0.001
H  H15  1  0.85569761  0.51304430  0.63290336  1  0.085227  -0.001008  0.101926  0.156605  -0.000657  1.004021  -0.001
H  H16  1  0.32587125  0.59677208  0.76852639  1  0.04555  -0.000235  0.101693  0.104052  -0.000443  1.046166  0.0
H  H17  1  0.17412118  0.40323023  0.26852105  1  0.04558  -0.000235  0.101726  0.104187  -0.000443  1.046202  0.0
H  H18  1  0.67412962  0.40323603  0.23147285  1  0.045674  0.000235  0.101671  0.104125  0.000443  1.046068  0.0
H  H19  1  0.82587558  0.59677685  0.73147417  1  0.045538  0.000235  0.10169  0.104099  0.000442  1.0462  0.0
H  H20  1  0.36204869  0.61196154  0.65858126  1  0.119081  -0.000322  0.117082  0.126073  -0.000621  0.98077  0.0
H  H21  1  0.13796049  0.38804279  0.15857643  1  0.118098  -0.00032  0.117035  0.12596  -0.00062  0.980782  0.0
H  H22  1  0.63796399  0.38805054  0.34141932  1  0.117581  0.00032  0.117039  0.126101  0.000621  0.980745  0.0
H  H23  1  0.86202776  0.61195046  0.84142146  1  0.118761  0.000322  0.117017  0.126005  0.000621  0.980786  0.0
H  H24  1  0.63124432  0.42926695  0.67424097  1  0.093979  -0.000122  0.11542  0.114987  -0.000249  1.009715  0.0
H  H25  1  0.86875577  0.57072665  0.17424036  1  0.094006  -0.000122  0.115363  0.114873  -0.000249  1.009857  0.0
H  H26  1  0.36875331  0.57073111  0.32576050  1  0.093944  0.000122  0.11541  0.11494  0.000249  1.009834  0.0
H  H27  1  0.13123477  0.42927210  0.82576156  1  0.094032  0.000122  0.115434  0.114947  0.000249  1.009905  0.0
H  H28  1  0.59414155  0.41276009  0.78498180  1  0.10683  5.5e-05  0.107769  0.11945  -0.000336  1.013364  -0.001
H  H29  1  0.90584269  0.58722698  0.28498112  1  0.106767  5.5e-05  0.107785  0.119519  -0.000337  1.013359  -0.001
H  H30  1  0.40585272  0.58723877  0.21502057  1  0.106666  -5.6e-05  0.107761  0.119469  0.000336  1.013333  0.001
H  H31  1  0.09415463  0.41277921  0.71502259  1  0.106957  -5.4e-05  0.1078  0.11953  0.000337  1.013295  0.001
H  H32  1  0.42958032  0.12644302  0.92727419  1  0.07927  0.00318  0.111396  0.1677  0.002135  0.965551  0.002
H  H33  1  0.07043145  0.87356220  0.42727855  1  0.078948  0.003181  0.11139  0.167731  0.002134  0.965571  0.002
H  H34  1  0.57042987  0.87356084  0.07272818  1  0.079253  -0.00318  0.111401  0.167695  -0.002135  0.965603  -0.002
H  H35  1  0.92957344  0.12643335  0.57272069  1  0.078982  -0.003181  0.11138  0.16769  -0.002134  0.965449  -0.002
H  H36  1  0.25192863  0.05792013  0.93602658  1  0.120466  0.023424  0.119012  0.172622  0.018396  0.981865  0.018
H  H37  1  0.24807747  0.94208480  0.43602616  1  0.12033  0.023428  0.119043  0.172611  0.018398  0.98186  0.018
H  H38  1  0.74807246  0.94209070  0.06397802  1  0.120254  -0.023427  0.119009  0.172589  -0.018397  0.981882  -0.018
H  H39  1  0.75191584  0.05790950  0.56397889  1  0.120218  -0.023428  0.11902  0.172574  -0.018398  0.981854  -0.018
H  H40  1  0.33466685  0.21550461  0.94700641  1  0.100111  0.008849  0.1135  0.177098  0.006759  0.972393  0.006
H  H41  1  0.16532480  0.78450336  0.44701236  1  0.100282  0.00885  0.113519  0.177078  0.006761  0.972395  0.006
H  H42  1  0.66532953  0.78450155  0.05299282  1  0.100204  -0.008847  0.113498  0.177071  -0.006758  0.97245  -0.006
H  H43  1  0.83466909  0.21549459  0.55298777  1  0.100143  -0.008848  0.113529  0.177072  -0.006759  0.97243  -0.006
H  H44  1  0.17890435  0.24472700  0.87092257  1  0.168612  -0.00056  0.11843  0.134257  -0.0012  1.034789  0.0
H  H45  1  0.32108855  0.75527029  0.37092853  1  0.168603  -0.00056  0.118414  0.134246  -0.0012  1.034759  0.0
H  H46  1  0.82109164  0.75527825  0.12907846  1  0.168743  0.000559  0.118454  0.134339  0.001199  1.034753  0.0
H  H47  1  0.67891105  0.24471696  0.62907697  1  0.168591  0.00056  0.118438  0.134299  0.0012  1.034773  0.0
H  H48  1  0.14410132  0.27246022  0.76202942  1  0.110005  -0.000441  0.109116  0.108399  -0.000784  1.0384  0.0
H  H49  1  0.35589522  0.72753416  0.26203591  1  0.109913  -0.000441  0.10911  0.108444  -0.000784  1.038371  0.0
H  H50  1  0.85590908  0.72754636  0.23796847  1  0.109948  0.00044  0.109121  0.108428  0.000784  1.038373  0.0
H  H51  1  0.64408217  0.27245515  0.73796646  1  0.109908  0.00044  0.1091  0.108341  0.000784  1.038347  0.0
H  H52  1  0.40969941  0.09675828  0.71631610  1  0.115641  -0.000409  0.111474  0.118791  -0.000889  1.013209  0.0
H  H53  1  0.09028703  0.90323824  0.21631409  1  0.115462  -0.00041  0.111474  0.118805  -0.000889  1.013143  0.0
H  H54  1  0.59029573  0.90323155  0.28368895  1  0.115565  0.000409  0.111469  0.118782  0.000889  1.013279  0.0
H  H55  1  0.90970651  0.09676332  0.78368470  1  0.115565  0.00041  0.111477  0.118801  0.000889  1.013124  0.0
H  H56  1  0.44954254  0.07490754  0.82479416  1  0.131935  -0.000236  0.109466  0.1189  -0.000834  1.049528  0.0
H  H57  1  0.05045315  0.92508957  0.32479613  1  0.131884  -0.000236  0.109446  0.118867  -0.000834  1.04953  0.0
H  H58  1  0.55044343  0.92508022  0.17521000  1  0.131921  0.000236  0.109485  0.118954  0.000834  1.049448  0.0
H  H59  1  0.94956451  0.07491451  0.67520445  1  0.131843  0.000236  0.109445  0.118904  0.000833  1.049467  0.0
H  H60  1  0.57375429  0.12298295  0.13375355  1  0.091972  3.3e-05  0.1024  0.158976  1.9e-05  0.984518  0.0
H  H61  1  0.92626183  0.87701350  0.63375749  1  0.09207  3.3e-05  0.102423  0.15899  1.9e-05  0.984564  0.0
H  H62  1  0.42624053  0.87701502  0.86624434  1  0.091949  -3.3e-05  0.102405  0.158957  -1.9e-05  0.984482  0.0
H  H63  1  0.07375224  0.12298414  0.36624041  1  0.092284  -3.3e-05  0.102366  0.158902  -1.9e-05  0.984561  0.0
H  H64  1  0.75174121  0.17050650  0.14053454  1  0.03642  -8.2e-05  0.098621  0.142738  -5.2e-05  0.992504  0.0
H  H65  1  0.74826908  0.82949149  0.64053201  1  0.036566  -8.3e-05  0.098626  0.142776  -5.3e-05  0.992468  0.0
H  H66  1  0.24824911  0.82948953  0.85946336  1  0.045191  8e-05  0.098638  0.14279  5.3e-05  0.992528  0.0
H  H67  1  0.25173540  0.17049862  0.35946455  1  0.036409  8.3e-05  0.098601  0.142684  5.3e-05  0.992573  0.0
H  H68  1  0.68144547  0.27908939  0.14513771  1  0.058736  -0.000366  0.095847  0.145012  -0.00024  1.018261  0.0
H  H69  1  0.81856550  0.72090584  0.64513103  1  0.059636  -0.000368  0.095845  0.145  -0.000242  1.018239  0.0
H  H70  1  0.31854409  0.72090480  0.85486376  1  0.058952  0.000367  0.095824  0.145001  0.000241  1.01829  0.0
H  H71  1  0.18144313  0.27908983  0.35486374  1  0.058935  0.000367  0.095851  0.144955  0.000241  1.018315  0.0
H  H72  1  0.43233979  0.08002609  0.22236874  1  0.062341  0.000188  0.099992  0.107757  0.000453  1.042112  0.0
H  H73  1  0.06764737  0.91994774  0.72236734  1  0.062989  0.000188  0.100076  0.107845  0.000452  1.042138  0.0
H  H74  1  0.56765050  0.91996541  0.77763050  1  0.06245  -0.000188  0.100044  0.107848  -0.000452  1.042105  0.0
H  H75  1  0.93236140  0.08004160  0.27762698  1  0.062686  -0.000189  0.10011  0.107902  -0.000453  1.042126  0.0
H  H76  1  0.40726335  0.04839466  0.33227453  1  0.086518  0.000814  0.105458  0.107152  0.001412  1.022637  0.0
H  H77  1  0.09274101  0.95159446  0.83227078  1  0.086322  0.000814  0.105427  0.10713  0.001412  1.022713  0.0
H  H78  1  0.59272583  0.95159862  0.66772515  1  0.086718  -0.000814  0.105453  0.107181  -0.001412  1.022607  0.0
H  H79  1  0.90725863  0.04839732  0.16772219  1  0.086224  -0.000814  0.105442  0.10716  -0.001412  1.022678  0.0
H  H80  1  0.83936788  0.20607746  0.35146219  1  0.096385  0.000146  0.113223  0.121133  0.000174  0.998751  0.0
H  H81  1  0.66062766  0.79391718  0.85146339  1  0.096319  0.000146  0.113236  0.121133  0.000174  0.998726  0.0
H  H82  1  0.16063141  0.79391794  0.64853794  1  0.09633  -0.000146  0.113197  0.121101  -0.000174  0.99884  0.0
H  H83  1  0.33937806  0.20608926  0.14853450  1  0.096168  -0.000146  0.113225  0.121081  -0.000174  0.998734  0.0
H  H84  1  0.86364936  0.24627097  0.24155728  1  0.08545  0.000277  0.095928  0.097635  0.000482  1.048995  0.0
H  H85  1  0.63634078  0.75371236  0.74155728  1  0.085431  0.000277  0.095947  0.097627  0.000482  1.048922  0.0
H  H86  1  0.13633602  0.75371315  0.75844151  1  0.085347  -0.000277  0.095941  0.09765  -0.000482  1.048908  0.0
H  H87  1  0.36365961  0.24628125  0.25844196  1  0.085436  -0.000277  0.095935  0.097698  -0.000482  1.0488  0.0
C  C88  1  0.44599560  0.50225337  0.85122149  1  -0.086957  0.011067  -0.227534  -0.42965  0.012741  3.90305  0.007
C  C89  1  0.05400902  0.49774093  0.35121769  1  -0.086954  0.011069  -0.227534  -0.429596  0.012741  3.903152  0.007
C  C90  1  0.55400317  0.49774744  0.14877998  1  -0.086788  -0.011067  -0.227455  -0.429431  -0.012741  3.903068  -0.007
C  C91  1  0.94599950  0.50226560  0.64878334  1  -0.087015  -0.011069  -0.227568  -0.429668  -0.012742  3.903123  -0.007
C  C92  1  0.45827001  0.50488571  0.78471869  1  -0.035013  0.071857  0.019195  0.20947  0.073213  3.918893  0.042
C  C93  1  0.04172375  0.49511099  0.28471669  1  -0.034843  0.071872  0.019276  0.209542  0.073232  3.918983  0.042
C  C94  1  0.54173083  0.49511787  0.21528189  1  -0.035311  -0.071875  0.019155  0.209414  -0.073232  3.919028  -0.042
C  C95  1  0.95827672  0.50489168  0.71528434  1  -0.03523  -0.071864  0.019276  0.209607  -0.073215  3.918996  -0.042
C  C96  1  0.39214556  0.55920127  0.74821397  1  0.010702  -0.001746  -0.086266  -0.155408  -0.002353  3.934839  -0.003
C  C97  1  0.10783983  0.44078845  0.24821033  1  0.009323  -0.001728  -0.086374  -0.155664  -0.002337  3.935046  -0.003
C  C98  1  0.60786338  0.44081070  0.25178571  1  0.010604  0.001733  -0.086238  -0.155509  0.002339  3.934915  0.003
C  C99  1  0.89215502  0.55921405  0.75178891  1  0.009891  0.001743  -0.086378  -0.155629  0.002349  3.935132  0.003
C  C100  1  0.41176008  0.56803271  0.68659985  1  0.011824  0.030652  -0.061869  -0.041066  0.032456  3.917065  0.017
C  C101  1  0.08824100  0.43196557  0.18659580  1  0.019776  0.030542  -0.06178  -0.040844  0.032433  3.917219  0.017
C  C102  1  0.58825260  0.43197938  0.31340028  1  0.019059  -0.030554  -0.061713  -0.040921  -0.032444  3.917241  -0.017
C  C103  1  0.91174632  0.56802766  0.81340120  1  0.018469  -0.030549  -0.061665  -0.040757  -0.032437  3.917215  -0.017
C  C104  1  0.49997764  0.52238636  0.66056682  1  -0.205542  0.066098  0.003466  -0.060803  0.067192  3.899352  0.039
C  C105  1  0.00003264  0.47761617  0.16056177  1  -0.212087  0.066206  0.00353  -0.060696  0.067209  3.899356  0.039
C  C106  1  0.50003027  0.47761201  0.33943421  1  -0.211215  -0.066211  0.003481  -0.060849  -0.067221  3.899609  -0.039
C  C107  1  0.99996257  0.52238272  0.83943747  1  -0.211813  -0.066186  0.003477  -0.06094  -0.067192  3.899689  -0.039
C  C108  1  0.56424199  0.46489992  0.69557765  1  -0.025678  -0.012572  -0.077065  -0.0903  -0.013443  3.999088  -0.01
C  C109  1  0.93575287  0.53509232  0.19557533  1  -0.025365  -0.012574  -0.076993  -0.090062  -0.013443  3.998688  -0.01
C  C110  1  0.43575546  0.53509994  0.30442472  1  -0.025737  0.012574  -0.077077  -0.090234  0.013444  3.998835  0.01
C  C111  1  0.06423600  0.46490909  0.80442704  1  -0.025666  0.01257  -0.077081  -0.090145  0.013439  3.999233  0.01
C  C112  1  0.54295132  0.45565641  0.75694845  1  -0.026846  0.063173  -0.074039  -0.127466  0.066432  3.889976  0.036
C  C113  1  0.95703746  0.54433481  0.25694699  1  -0.026729  0.063155  -0.074153  -0.127819  0.066413  3.890094  0.036
C  C114  1  0.45704502  0.54434523  0.24305436  1  -0.026492  -0.063159  -0.074081  -0.12761  -0.066417  3.889924  -0.036
C  C115  1  0.04295685  0.45566858  0.74305717  1  -0.026576  -0.063158  -0.074134  -0.127783  -0.066422  3.890182  -0.036
C  C116  1  0.33710186  0.14052276  0.91931586  1  -0.058909  0.014891  -0.223011  -0.446591  0.01707  3.889096  0.009
C  C117  1  0.16291035  0.85948349  0.41931485  1  -0.058627  0.014886  -0.223025  -0.44659  0.017067  3.889333  0.009
C  C118  1  0.66290310  0.85948185  0.08068696  1  -0.058644  -0.014887  -0.222978  -0.446472  -0.017066  3.889199  -0.009
C  C119  1  0.83709195  0.14051471  0.58068304  1  -0.058475  -0.014885  -0.22301  -0.446509  -0.017068  3.889141  -0.009
C  C120  1  0.31673806  0.15804271  0.85509100  1  -0.04297  0.137718  0.045583  0.249465  0.139961  3.847837  0.079
C  C121  1  0.18326643  0.84196239  0.35509272  1  -0.043004  0.137735  0.045522  0.249499  0.139977  3.847923  0.079
C  C122  1  0.68326241  0.84195996  0.14491227  1  -0.042919  -0.137715  0.045526  0.249459  -0.139961  3.84793  -0.079
C  C123  1  0.81673435  0.15803214  0.64490607  1  -0.042604  -0.137727  0.045543  0.249484  -0.13997  3.847843  -0.079
C  C124  1  0.22931919  0.21357339  0.83672679  1  -0.052374  0.035697  -0.067716  -0.12717  0.035956  3.87076  0.017
C  C125  1  0.27068149  0.78642913  0.33672910  1  -0.052372  0.035694  -0.067693  -0.127227  0.035956  3.870718  0.017
C  C126  1  0.77068107  0.78642655  0.16327424  1  -0.052498  -0.035684  -0.067748  -0.127296  -0.035943  3.870783  -0.017
C  C127  1  0.72931928  0.21356540  0.66327416  1  -0.052502  -0.03575  -0.067673  -0.127211  -0.036015  3.870571  -0.017
C  C128  1  0.21006851  0.22934710  0.77678323  1  -0.026568  0.012344  -0.073502  -0.089207  0.014487  3.97329  0.005
C  C129  1  0.28992455  0.77064788  0.27678424  1  -0.025927  0.012351  -0.073453  -0.089186  0.014492  3.973137  0.005
C  C130  1  0.78993285  0.77065107  0.22321914  1  -0.026583  -0.012344  -0.073499  -0.089249  -0.014492  3.973156  -0.005
C  C131  1  0.71006806  0.22935365  0.72321992  1  -0.02605  -0.012307  -0.073452  -0.089075  -0.014444  3.973007  -0.004
C  C132  1  0.27614607  0.18766865  0.73345101  1  -0.209841  0.174297  0.018432  -0.028915  0.17814  3.860453  0.105
C  C133  1  0.22383809  0.81231580  0.23345282  1  -0.210287  0.174295  0.01841  -0.028925  0.178141  3.860418  0.105
C  C134  1  0.72386301  0.81233699  0.26655270  1  -0.210249  -0.174305  0.018474  -0.028822  -0.178143  3.860374  -0.105
C  C135  1  0.77615787  0.18768492  0.76654687  1  -0.209899  -0.17427  0.018469  -0.028865  -0.178116  3.860395  -0.105
C  C136  1  0.36123846  0.12975960  0.75059775  1  -0.091485  0.018806  -0.069422  -0.074861  0.020417  3.940217  0.008
C  C137  1  0.13874238  0.87022360  0.25059672  1  -0.091537  0.018797  -0.0695  -0.074895  0.020405  3.940127  0.008
C  C138  1  0.63876384  0.87023859  0.24940685  1  -0.091059  -0.01879  -0.06947  -0.074936  -0.020401  3.940226  -0.008
C  C139  1  0.86125151  0.12977434  0.74940117  1  -0.091771  -0.018833  -0.069581  -0.074989  -0.020446  3.940015  -0.008
C  C140  1  0.38181534  0.11666657  0.81063702  1  0.061379  0.039143  -0.07093  -0.125338  0.040229  3.879444  0.018
C  C141  1  0.11817631  0.88332518  0.31063596  1  0.061658  0.039156  -0.070802  -0.12524  0.04024  3.879177  0.018
C  C142  1  0.61817834  0.88332865  0.18936714  1  0.061482  -0.03917  -0.07089  -0.125388  -0.040253  3.879374  -0.018
C  C143  1  0.88182744  0.11666763  0.68936238  1  0.061395  -0.039109  -0.070852  -0.125333  -0.04019  3.879098  -0.018
C  C144  1  0.66411576  0.18463319  0.15767583  1  -0.063052  -0.000437  -0.238058  -0.434247  -0.000493  3.922212  0.0
C  C145  1  0.83588875  0.81535986  0.65767554  1  -0.064162  -0.00044  -0.238098  -0.434346  -0.000495  3.922198  0.0
C  C146  1  0.33587736  0.81536292  0.84232430  1  -0.071978  0.000441  -0.238034  -0.434268  0.000494  3.922175  0.0
C  C147  1  0.16412044  0.18463492  0.34232191  1  -0.06342  0.000438  -0.237962  -0.433986  0.000494  3.922052  0.0
C  C148  1  0.64954118  0.16566659  0.22403285  1  -0.018277  0.001038  0.000288  0.181869  0.001161  3.965061  0.001
C  C149  1  0.85045904  0.83432090  0.72403518  1  -0.018718  0.001025  0.000345  0.182015  0.001148  3.96488  0.001
C  C150  1  0.35044915  0.83432944  0.77596683  1  -0.018373  -0.001032  0.000356  0.182066  -0.001155  3.964946  -0.001
C  C151  1  0.14954939  0.16567205  0.27596182  1  -0.018635  -0.001029  0.000265  0.181877  -0.001152  3.9649  -0.001
C  C152  1  0.52156632  0.11023989  0.25067971  1  -0.030632  0.000433  -0.091476  -0.149879  0.000776  3.944092  0.0
C  C153  1  0.97843455  0.88973820  0.75068224  1  -0.031172  0.000432  -0.09159  -0.150021  0.000775  3.944412  0.0
C  C154  1  0.47842902  0.88975267  0.74931997  1  -0.03114  -0.000433  -0.091652  -0.150212  -0.000776  3.944361  0.0
C  C155  1  0.02157218  0.11025289  0.24931297  1  -0.030938  -0.000435  -0.091562  -0.150021  -0.000778  3.944234  0.0
C  C156  1  0.50708357  0.09058546  0.31214491  1  -0.028054  0.00203  -0.083172  -0.07887  0.002147  3.987162  0.001
C  C157  1  0.99292045  0.90940273  0.81214245  1  -0.028105  0.002026  -0.083135  -0.078893  0.002143  3.987407  0.001
C  C158  1  0.49290821  0.90940518  0.68785567  1  -0.02779  -0.002027  -0.083145  -0.078849  -0.002144  3.987152  -0.001
C  C159  1  0.00707981  0.09059721  0.18785142  1  -0.027843  -0.002025  -0.083209  -0.078925  -0.002142  3.987175  -0.001
C  C160  1  0.62242950  0.12437297  0.34784885  1  -0.182764  -0.001011  -0.017716  -0.100845  -0.001043  3.981529  -0.001
C  C161  1  0.87758109  0.87563122  0.84784924  1  -0.182794  -0.001027  -0.017767  -0.100809  -0.001059  3.981465  -0.001
C  C162  1  0.37756733  0.87561873  0.65214949  1  -0.182799  0.001017  -0.017692  -0.100829  0.001048  3.98155  0.001
C  C163  1  0.12242561  0.12437978  0.15214463  1  -0.182891  0.001021  -0.017809  -0.100962  0.001053  3.98154  0.001
C  C164  1  0.75105890  0.18105828  0.32272853  1  -0.063027  0.001254  -0.081422  -0.091669  0.001403  4.001335  0.001
C  C165  1  0.74894510  0.81893881  0.82273095  1  -0.062919  0.001255  -0.081424  -0.091741  0.001404  4.001151  0.001
C  C166  1  0.24893527  0.81892700  0.67727071  1  -0.062996  -0.001255  -0.08144  -0.091771  -0.001404  4.00141  -0.001
C  C167  1  0.25106097  0.18106402  0.17726739  1  -0.062906  -0.001256  -0.081344  -0.091566  -0.001405  4.001021  -0.001
C  C168  1  0.76346773  0.20247187  0.26127854  1  -0.02774  0.000125  -0.091905  -0.144943  0.000458  3.949701  0.0
C  C169  1  0.73653164  0.79751599  0.76128014  1  -0.027327  0.000118  -0.091867  -0.144883  0.00045  3.949535  0.0
C  C170  1  0.23652384  0.79751605  0.73872204  1  -0.027445  -0.000121  -0.091894  -0.144892  -0.000453  3.949536  0.0
C  C171  1  0.26347121  0.20248132  0.23871731  1  -0.027412  -0.000118  -0.091916  -0.14504  -0.00045  3.949601  0.0
S  S172  1  0.53813123  0.53874605  0.58293180  1  3.186427  -0.001523  0.5591  1.225763  -0.002104  6.08603  -0.002
S  S173  1  0.96187580  0.46125716  0.08292971  1  3.186573  -0.001523  0.559033  1.225606  -0.002104  6.086097  -0.002
S  S174  1  0.46187408  0.46125495  0.41706833  1  3.186547  0.001523  0.558939  1.22555  0.002105  6.086367  0.002
S  S175  1  0.03811293  0.53875058  0.91707042  1  3.18673  0.001522  0.559293  1.226135  0.002104  6.08578  0.002
S  S176  1  0.24171324  0.19728711  0.65678572  1  3.209404  -0.008247  0.533006  1.155873  -0.009812  6.194182  -0.007
S  S177  1  0.25828336  0.80270691  0.15678664  1  3.209044  -0.008247  0.533025  1.155914  -0.009811  6.194611  -0.007
S  S178  1  0.75830144  0.80271869  0.34321531  1  3.209108  0.008246  0.533053  1.156061  0.009812  6.194129  0.007
S  S179  1  0.74171389  0.19729023  0.84321260  1  3.209451  0.008247  0.532997  1.155923  0.009811  6.194594  0.007
S  S180  1  0.60856786  0.09041282  0.42527546  1  3.15313  7.1e-05  0.563436  1.249118  4.3e-05  6.068308  0.0
S  S181  1  0.89144384  0.90959667  0.92527394  1  3.15321  7.1e-05  0.563474  1.249268  4.3e-05  6.067876  0.0
S  S182  1  0.39143204  0.90959073  0.57472557  1  3.153056  -7.1e-05  0.563573  1.249442  -4.3e-05  6.068301  0.0
S  S183  1  0.10856770  0.09041267  0.07472082  1  3.153593  -7.1e-05  0.563636  1.249441  -4.3e-05  6.067929  0.0
O  O184  1  0.27112848  0.16355786  0.50303161  1  -0.818401  0.00046  -0.753394  -0.664163  0.000505  1.744999  0.0
O  O185  1  0.22887781  0.83644763  0.00303110  1  -0.818446  0.00046  -0.753382  -0.664127  0.000505  1.74499  0.0
O  O186  1  0.72887877  0.83645225  0.49696897  1  -0.818551  -0.00046  -0.753382  -0.664137  -0.000505  1.744866  0.0
O  O187  1  0.77111964  0.16355224  0.99696814  1  -0.818511  -0.00046  -0.753319  -0.664129  -0.000505  1.744783  0.0
O  O188  1  0.61926126  0.29541743  0.54755556  1  -0.837716  0.000474  -0.755111  -0.678544  0.00058  1.863381  0.0
O  O189  1  0.88074142  0.70459067  0.04755496  1  -0.837577  0.000474  -0.755056  -0.678494  0.000579  1.863087  0.0
O  O190  1  0.38074672  0.70458998  0.45244636  1  -0.837495  -0.000474  -0.755068  -0.678468  -0.00058  1.863265  0.0
O  O191  1  0.11925368  0.29541908  0.95244383  1  -0.837588  -0.000473  -0.75512  -0.678442  -0.000579  1.863634  0.0
O  O192  1  0.50295489  0.64139733  0.56371098  1  -1.301979  0.003996  -0.37396  -0.666631  0.004068  2.329314  0.003
O  O193  1  0.99703973  0.35860035  0.06370921  1  -1.301984  0.003993  -0.373911  -0.666463  0.004064  2.32945  0.003
O  O194  1  0.49704931  0.35860545  0.43629049  1  -1.301996  -0.003994  -0.373963  -0.666541  -0.004066  2.329396  -0.003
O  O195  1  0.00293287  0.64139968  0.93629048  1  -1.301769  -0.003992  -0.374047  -0.666794  -0.004063  2.329197  -0.003
O  O196  1  0.44247475  0.42335661  0.55432174  1  -1.284048  0.018631  -0.370109  -0.659664  0.018724  2.364478  0.016
O  O197  1  0.05753245  0.57664910  0.05431947  1  -1.284169  0.018634  -0.370148  -0.659747  0.018727  2.364474  0.016
O  O198  1  0.55752889  0.57664706  0.44567570  1  -1.284237  -0.018641  -0.370057  -0.659646  -0.018734  2.364488  -0.016
O  O199  1  0.94246448  0.42335617  0.94568200  1  -1.284374  -0.018631  -0.370111  -0.65973  -0.018724  2.364468  -0.016
O  O200  1  0.67867422  0.56071325  0.57708767  1  -1.28979  0.006896  -0.288945  -0.539305  0.006789  2.163256  0.006
O  O201  1  0.82132930  0.43928814  0.07708705  1  -1.289476  0.006905  -0.288898  -0.539228  0.006798  2.1632  0.006
O  O202  1  0.32133002  0.43929406  0.42291202  1  -1.289529  -0.006904  -0.288858  -0.539195  -0.006797  2.163272  -0.006
O  O203  1  0.17865967  0.56072686  0.92291397  1  -1.289732  -0.0069  -0.289079  -0.539435  -0.006793  2.163179  -0.006
O  O204  1  0.19458689  0.29491577  0.65043697  1  -1.267052  0.061719  -0.299811  -0.523016  0.061657  2.114569  0.053
O  O205  1  0.30540883  0.70507832  0.15043909  1  -1.266815  0.061735  -0.299797  -0.523035  0.061673  2.114701  0.053
O  O206  1  0.80541634  0.70508245  0.34956405  1  -1.266764  -0.061739  -0.29979  -0.523041  -0.061675  2.114651  -0.053
O  O207  1  0.69458053  0.29491316  0.84955970  1  -1.26716  -0.061745  -0.299777  -0.523024  -0.061683  2.114703  -0.053
O  O208  1  0.37507670  0.22506088  0.62777864  1  -1.301641  0.018763  -0.383742  -0.672445  0.018847  2.398891  0.017
O  O209  1  0.12492110  0.77493810  0.12778150  1  -1.301624  0.018759  -0.383806  -0.6725  0.018843  2.398947  0.017
O  O210  1  0.62493667  0.77494398  0.37221971  1  -1.301445  -0.01877  -0.383761  -0.672512  -0.018854  2.398877  -0.017
O  O211  1  0.87507337  0.22506348  0.87221952  1  -1.301626  -0.018758  -0.383752  -0.67246  -0.018843  2.39907  -0.017
O  O212  1  0.14264040  0.07457197  0.64147936  1  -1.261177  0.097129  -0.285073  -0.519758  0.097533  2.126228  0.082
O  O213  1  0.35735871  0.92541691  0.14148118  1  -1.26106  0.097094  -0.285052  -0.519766  0.097499  2.126562  0.082
O  O214  1  0.85737909  0.92542765  0.35852480  1  -1.26144  -0.097099  -0.285171  -0.519921  -0.097504  2.126139  -0.082
O  O215  1  0.64263964  0.07457845  0.85852030  1  -1.261099  -0.097117  -0.285084  -0.519804  -0.097522  2.126425  -0.082
O  O216  1  0.56257543  0.95505106  0.42892695  1  -1.294048  0.00023  -0.38708  -0.689764  0.000221  2.37481  0.0
O  O217  1  0.93744449  0.04496044  0.92891748  1  -1.294153  0.000228  -0.387072  -0.689793  0.000219  2.374659  0.0
O  O218  1  0.43742635  0.04495255  0.57107542  1  -1.294119  -0.000229  -0.387109  -0.68987  -0.00022  2.374868  0.0
O  O219  1  0.06256982  0.95504445  0.07107326  1  -1.294079  -0.000227  -0.387201  -0.689916  -0.000218  2.374699  0.0
O  O220  1  0.49435537  0.12076175  0.44622929  1  -1.304511  0.002418  -0.392305  -0.69137  0.002519  2.355436  0.002
O  O221  1  0.00565815  0.87924779  0.94622671  1  -1.304496  0.002419  -0.39227  -0.691412  0.002519  2.355332  0.002
O  O222  1  0.50565430  0.87924753  0.55377800  1  -1.304359  -0.002421  -0.3923  -0.691458  -0.002521  2.355425  -0.002
O  O223  1  0.99434570  0.12075859  0.05377163  1  -1.304511  -0.002417  -0.392317  -0.691394  -0.002518  2.355192  -0.002
O  O224  1  0.73696817  0.16012351  0.45288459  1  -1.30878  -0.000211  -0.291472  -0.541445  -0.00014  2.150616  0.0
O  O225  1  0.76304165  0.83988826  0.95288962  1  -1.308506  -0.00021  -0.291548  -0.541546  -0.00014  2.150339  0.0
O  O226  1  0.26304205  0.83988488  0.54710570  1  -1.308816  0.00021  -0.291555  -0.541582  0.00014  2.150527  0.0
O  O227  1  0.23696352  0.16011907  0.04710962  1  -1.308841  0.000213  -0.291498  -0.541524  0.000143  2.150575  0.0
