# generated using pymatgen
data_HgH14C14(BrN2)2
_symmetry_space_group_name_H-M   'P 1'
_cell_length_a   11.49010671
_cell_length_b   11.49011196
_cell_length_c   12.99000000
_cell_angle_alpha   90.00000000
_cell_angle_beta   90.00000000
_cell_angle_gamma   90.00000000
_symmetry_Int_Tables_number   1
_chemical_formula_structural   HgH14C14(BrN2)2
_chemical_formula_sum   'Hg4 H56 C56 Br8 N16'
_cell_volume   1714.97373736
_cell_formula_units_Z   4
loop_
 _symmetry_equiv_pos_site_id
 _symmetry_equiv_pos_as_xyz
  1  'x, y, z'
loop_
 _atom_site_type_symbol
 _atom_site_label
 _atom_site_symmetry_multiplicity
 _atom_site_fract_x
 _atom_site_fract_y
 _atom_site_fract_z
 _atom_site_occupancy
 _atom_site_hle17_bader_spin_density
 _atom_site_hle17_ddec_charge
 _atom_site_hle17_ddec_spin_density
 _atom_site_hle17_ddec_sum_bond_order
 _atom_site_hle17_magmom
 _atom_site_hse06_10hf_bader_spin_density
 _atom_site_hse06_10hf_ddec_charge
 _atom_site_hse06_10hf_ddec_spin_density
 _atom_site_hse06_10hf_ddec_sum_bond_order
 _atom_site_hse06_10hf_magmom
 _atom_site_hse06_bader_spin_density
 _atom_site_hse06_ddec_charge
 _atom_site_hse06_ddec_spin_density
 _atom_site_hse06_ddec_sum_bond_order
 _atom_site_hse06_magmom
 _atom_site_pbe_bader_charge
 _atom_site_pbe_bader_spin_density
 _atom_site_pbe_cm5_charge
 _atom_site_pbe_ddec_charge
 _atom_site_pbe_ddec_spin_density
 _atom_site_pbe_ddec_sum_bond_order
 _atom_site_pbe_magmom
Hg  Hg0  1  0.24999942  0.25000017  0.11396151  1  0  0.615613  0  2.198266  0  0  0.462853  0  2.706729  0  0  0.508938  0  2.674343  0  0.698288  0  0.446027  0.43216  0  2.728037  0
Hg  Hg1  1  0.75000000  0.74999965  0.61396151  1  0  0.615586  0  2.198276  0  0  0.462819  0  2.706744  0  0  0.508904  0  2.674358  0  0.698283  0  0.446  0.432125  0  2.728053  0
Hg  Hg2  1  0.75000000  0.74999965  0.88603849  1  0  0.615599  0  2.198265  0  0  0.462835  0  2.706734  0  0  0.508921  0  2.674348  0  0.703187  0  0.446019  0.432141  0  2.728043  0
Hg  Hg3  1  0.24999942  0.24999930  0.38603849  1  0  0.615603  0  2.198253  0  0  0.462844  0  2.706713  0  0  0.508931  0  2.674326  0  0.703184  0  0.446024  0.432151  0  2.728021  0
H  H4  1  0.46767712  0.37277879  0.98477983  1  0  0.075045  0  0.958315  0  0  0.079588  0  1.030901  0  0  0.081909  0  1.028985  0  0.103759  0  0.10539  0.077935  0  1.032316  0
H  H5  1  0.62722046  0.96767725  0.48477983  1  0  0.075034  0  0.958335  0  0  0.079573  0  1.030923  0  0  0.081895  0  1.029008  0  0.10376  0  0.10538  0.077921  0  1.032338  0
H  H6  1  0.87277867  0.53232292  0.48477983  1  0  0.075044  0  0.958312  0  0  0.079586  0  1.030898  0  0  0.081909  0  1.028982  0  0.103759  0  0.10539  0.077934  0  1.032313  0
H  H7  1  0.03232259  0.12722069  0.98477983  1  0  0.075043  0  0.958304  0  0  0.079586  0  1.03089  0  0  0.081907  0  1.028976  0  0.103757  0  0.105391  0.077933  0  1.032306  0
H  H8  1  0.53232317  0.62722104  0.01522017  1  0  0.075063  0  0.958306  0  0  0.079606  0  1.030894  0  0  0.081928  0  1.028979  0  0.103766  0  0.105392  0.077953  0  1.03231  0
H  H9  1  0.37277896  0.03232344  0.51522017  1  0  0.075048  0  0.958304  0  0  0.079593  0  1.030886  0  0  0.081914  0  1.028971  0  0.103758  0  0.105395  0.077941  0  1.032301  0
H  H10  1  0.12722075  0.46767690  0.51522017  1  0  0.075047  0  0.958306  0  0  0.07959  0  1.030891  0  0  0.081912  0  1.028975  0  0.103762  0  0.105393  0.077938  0  1.032306  0
H  H11  1  0.96767683  0.87277914  0.01522017  1  0  0.075052  0  0.958309  0  0  0.079595  0  1.030892  0  0  0.081917  0  1.028978  0  0.103762  0  0.105393  0.077942  0  1.032308  0
H  H12  1  0.50851399  0.50314740  0.83419784  1  0  0.10822  0  0.957181  0  0  0.114131  0  1.027424  0  0  0.117491  0  1.025798  0  0.127661  0  0.101239  0.111737  0  1.028772  0
H  H13  1  0.49685265  0.00851515  0.33419784  1  0  0.10821  0  0.957172  0  0  0.114113  0  1.027435  0  0  0.117473  0  1.025807  0  0.127648  0  0.101235  0.111719  0  1.028783  0
H  H14  1  0.00314706  0.49148607  0.33419784  1  0  0.108216  0  0.957179  0  0  0.114131  0  1.027423  0  0  0.117491  0  1.025796  0  0.127666  0  0.101241  0.111737  0  1.028771  0
H  H15  1  0.99148601  0.99685278  0.83419784  1  0  0.108227  0  0.957177  0  0  0.114131  0  1.027428  0  0  0.117491  0  1.025801  0  0.127667  0  0.101246  0.111737  0  1.028776  0
H  H16  1  0.49148630  0.49685243  0.16580216  1  0  0.108229  0  0.95718  0  0  0.114126  0  1.027445  0  0  0.117486  0  1.025818  0  0.127664  0  0.101242  0.111732  0  1.028793  0
H  H17  1  0.50314763  0.99148555  0.66580216  1  0  0.108215  0  0.957169  0  0  0.114124  0  1.027431  0  0  0.117483  0  1.025804  0  0.127651  0  0.101242  0.11173  0  1.028779  0
H  H18  1  0.99685236  0.50851463  0.66580216  1  0  0.108218  0  0.957172  0  0  0.114122  0  1.027431  0  0  0.117483  0  1.025804  0  0.127645  0  0.101241  0.111729  0  1.028778  0
H  H19  1  0.00851428  0.00314705  0.16580216  1  0  0.108211  0  0.957177  0  0  0.114126  0  1.027423  0  0  0.117486  0  1.025795  0  0.127651  0  0.101241  0.111732  0  1.02877  0
H  H20  1  0.13715451  0.53515318  0.79228329  1  0  0.108575  0  0.986677  0  0  0.114207  0  1.057283  0  0  0.117649  0  1.055407  0  0.150336  0  0.097102  0.111781  0  1.058745  0
H  H21  1  0.46484599  0.63715480  0.29228329  1  0  0.108554  0  0.986621  0  0  0.114188  0  1.057248  0  0  0.117628  0  1.055373  0  0.150338  0  0.097091  0.111763  0  1.058707  0
H  H22  1  0.03515372  0.86284538  0.29228329  1  0  0.108561  0  0.986615  0  0  0.114197  0  1.057239  0  0  0.117638  0  1.055362  0  0.150338  0  0.097092  0.111771  0  1.058698  0
H  H23  1  0.36284606  0.96484612  0.79228406  1  0  0.108511  0  0.986634  0  0  0.114172  0  1.057228  0  0  0.117604  0  1.055361  0  0.150589  0  0.097078  0.111746  0  1.058689  0
H  H24  1  0.86284664  0.46484665  0.20771594  1  0  0.108557  0  0.986576  0  0  0.114187  0  1.057212  0  0  0.117618  0  1.055349  0  0.150594  0  0.097085  0.111762  0  1.058671  0
H  H25  1  0.53515343  0.36284590  0.70771671  1  0  0.10857  0  0.986595  0  0  0.114205  0  1.05722  0  0  0.117647  0  1.055343  0  0.150336  0  0.097092  0.111779  0  1.058681  0
H  H26  1  0.96484657  0.13715445  0.70771671  1  0  0.108563  0  0.986605  0  0  0.114196  0  1.057234  0  0  0.117638  0  1.055358  0  0.150335  0  0.09709  0.111771  0  1.058695  0
H  H27  1  0.63715422  0.03515370  0.20771671  1  0  0.108559  0  0.986611  0  0  0.114214  0  1.05721  0  0  0.117655  0  1.055333  0  0.150339  0  0.097094  0.111788  0  1.05867  0
H  H28  1  0.11133839  0.40871838  0.94869284  1  0  0.075369  0  0.945006  0  0  0.081454  0  1.014032  0  0  0.083871  0  1.012091  0  0.09239  0  0.10464  0.079607  0  1.015616  0
H  H29  1  0.59128084  0.61133782  0.44869284  1  0  0.075353  0  0.945008  0  0  0.081433  0  1.014045  0  0  0.083851  0  1.012102  0  0.092374  0  0.104636  0.079587  0  1.015628  0
H  H30  1  0.90871828  0.88866149  0.44869284  1  0  0.075336  0  0.945046  0  0  0.081427  0  1.014068  0  0  0.083845  0  1.012127  0  0.092394  0  0.104628  0.079583  0  1.015649  0
H  H31  1  0.38866306  0.09128284  0.94869438  1  0  0.07538  0  0.945065  0  0  0.081463  0  1.014086  0  0  0.08388  0  1.012145  0  0.092532  0  0.104633  0.079616  0  1.015669  0
H  H32  1  0.88866277  0.59128319  0.05130562  1  0  0.075368  0  0.94506  0  0  0.081452  0  1.014081  0  0  0.083871  0  1.012139  0  0.092547  0  0.104636  0.079606  0  1.015664  0
H  H33  1  0.40871857  0.38866114  0.55130716  1  0  0.075388  0  0.945015  0  0  0.081472  0  1.014043  0  0  0.083889  0  1.012103  0  0.092401  0  0.104654  0.079626  0  1.015626  0
H  H34  1  0.09128114  0.11133834  0.55130716  1  0  0.075334  0  0.945021  0  0  0.08142  0  1.014046  0  0  0.083836  0  1.012106  0  0.092382  0  0.104631  0.079575  0  1.015629  0
H  H35  1  0.61133810  0.90871873  0.05130716  1  0  0.075326  0  0.94503  0  0  0.08141  0  1.014062  0  0  0.083828  0  1.01212  0  0.092378  0  0.104626  0.079566  0  1.015643  0
H  H36  1  0.43556689  0.63214267  0.69790300  1  0  0.054436  0  0.967271  0  0  0.059249  0  1.045906  0  0  0.06243  0  1.042545  0  0.075066  0  0.09178  0.056889  0  1.048399  0
H  H37  1  0.36785646  0.93556704  0.19790300  1  0  0.05447  0  0.96729  0  0  0.05928  0  1.045918  0  0  0.062461  0  1.042558  0  0.075061  0  0.091798  0.05692  0  1.048411  0
H  H38  1  0.13214238  0.56443227  0.19790300  1  0  0.054433  0  0.967254  0  0  0.059245  0  1.045891  0  0  0.062427  0  1.042529  0  0.075061  0  0.091782  0.056886  0  1.048384  0
H  H39  1  0.06443282  0.86785751  0.69790377  1  0  0.054463  0  0.967247  0  0  0.059273  0  1.045882  0  0  0.062454  0  1.042522  0  0.075063  0  0.0918  0.056914  0  1.048374  0
H  H40  1  0.56443340  0.36785803  0.30209623  1  0  0.054454  0  0.967253  0  0  0.059264  0  1.045885  0  0  0.062445  0  1.042526  0  0.075076  0  0.091792  0.056905  0  1.048377  0
H  H41  1  0.63214295  0.06443279  0.80209700  1  0  0.054441  0  0.967257  0  0  0.059254  0  1.045892  0  0  0.062435  0  1.042531  0  0.075068  0  0.091785  0.056894  0  1.048385  0
H  H42  1  0.86785704  0.43556669  0.80209700  1  0  0.054446  0  0.967256  0  0  0.059255  0  1.045892  0  0  0.062437  0  1.042531  0  0.075068  0  0.091784  0.056895  0  1.048386  0
H  H43  1  0.93556746  0.13214319  0.30209700  1  0  0.054433  0  0.967263  0  0  0.059245  0  1.045901  0  0  0.062427  0  1.042539  0  0.07506  0  0.09178  0.056885  0  1.048394  0
H  H44  1  0.27548656  0.64737837  0.48688222  1  0  0.068774  0  0.938297  0  0  0.086148  0  1.002415  0  0  0.086073  0  1.002547  0  0.06936  0  0.095056  0.086018  0  1.00254  0
H  H45  1  0.35262162  0.77548679  0.98688222  1  0  0.068782  0  0.938295  0  0  0.086156  0  1.002405  0  0  0.086081  0  1.002535  0  0.069361  0  0.095058  0.086023  0  1.002529  0
H  H46  1  0.14737809  0.72451339  0.98688222  1  0  0.068774  0  0.938301  0  0  0.086144  0  1.002425  0  0  0.086068  0  1.002557  0  0.069358  0  0.095053  0.086013  0  1.00255  0
H  H47  1  0.22451315  0.85262180  0.48688222  1  0  0.068783  0  0.938296  0  0  0.086155  0  1.002409  0  0  0.086079  0  1.002541  0  0.069363  0  0.09506  0.086024  0  1.002533  0
H  H48  1  0.72451285  0.35262146  0.51311778  1  0  0.068774  0  0.938316  0  0  0.086142  0  1.002433  0  0  0.086067  0  1.002565  0  0.069365  0  0.095055  0.086012  0  1.002558  0
H  H49  1  0.64737780  0.22451391  0.01311778  1  0  0.068778  0  0.938286  0  0  0.086133  0  1.002432  0  0  0.086056  0  1.002563  0  0.069355  0  0.095049  0.086002  0  1.002557  0
H  H50  1  0.85262132  0.27548644  0.01311778  1  0  0.06878  0  0.938295  0  0  0.086146  0  1.002415  0  0  0.086071  0  1.002547  0  0.069364  0  0.095058  0.086016  0  1.002542  0
H  H51  1  0.77548627  0.14737802  0.51311778  1  0  0.068785  0  0.938282  0  0  0.086139  0  1.002426  0  0  0.086063  0  1.002558  0  0.069356  0  0.095052  0.086009  0  1.00255  0
H  H52  1  0.38219488  0.72729753  0.55850038  1  0  0.051401  0  0.937412  0  0  0.066852  0  1.003021  0  0  0.067397  0  1.003239  0  0.013921  0  0.092295  0.066346  0  1.002934  0
H  H53  1  0.27270243  0.88219506  0.05849962  1  0  0.051401  0  0.937425  0  0  0.066842  0  1.003029  0  0  0.067387  0  1.003247  0  0.013921  0  0.092291  0.066321  0  1.002954  0
H  H54  1  0.22729641  0.61780512  0.05849962  1  0  0.051413  0  0.9374  0  0  0.066862  0  1.003011  0  0  0.067408  0  1.003227  0  0.013924  0  0.092293  0.066356  0  1.002922  0
H  H55  1  0.11780482  0.77270265  0.55849962  1  0  0.051402  0  0.937411  0  0  0.06685  0  1.003018  0  0  0.067395  0  1.003236  0  0.01392  0  0.092292  0.066343  0  1.00293  0
H  H56  1  0.61780453  0.27270317  0.44150038  1  0  0.051409  0  0.937402  0  0  0.066856  0  1.003007  0  0  0.067401  0  1.003225  0  0.013922  0  0.092297  0.06635  0  1.00292  0
H  H57  1  0.72729699  0.11780477  0.94150038  1  0  0.051408  0  0.937396  0  0  0.066864  0  1.003002  0  0  0.067409  0  1.00322  0  0.013926  0  0.092298  0.066357  0  1.002914  0
H  H58  1  0.77270301  0.38219558  0.94149962  1  0  0.051373  0  0.937395  0  0  0.06684  0  1.002982  0  0  0.067385  0  1.003199  0  0.013914  0  0.092308  0.066336  0  1.00289  0
H  H59  1  0.88219459  0.22729718  0.44149962  1  0  0.05141  0  0.937399  0  0  0.066865  0  1.003006  0  0  0.067409  0  1.003224  0  0.01393  0  0.092298  0.066358  0  1.002918  0
C  C60  1  0.39701633  0.41197423  0.94074057  1  0  0.126423  0  3.713717  0  0  0.097379  0  3.964872  0  0  0.104498  0  3.98369  0  0.463602  0  0.043164  0.092873  0  3.951812  0
C  C61  1  0.58802587  0.89701650  0.44074057  1  0  0.126462  0  3.713724  0  0  0.097424  0  3.964878  0  0  0.104543  0  3.983694  0  0.463605  0  0.04318  0.092917  0  3.951818  0
C  C62  1  0.91197412  0.60298368  0.44074057  1  0  0.126422  0  3.713679  0  0  0.097379  0  3.964839  0  0  0.104499  0  3.983653  0  0.463603  0  0.043159  0.092872  0  3.951779  0
C  C63  1  0.10298425  0.08802699  0.94074057  1  0  0.126432  0  3.713665  0  0  0.097389  0  3.96482  0  0  0.104508  0  3.983636  0  0.463609  0  0.043164  0.092882  0  3.951761  0
C  C64  1  0.60298483  0.58802647  0.05925943  1  0  0.126286  0  3.713823  0  0  0.097234  0  3.964986  0  0  0.104353  0  3.983804  0  0.463627  0  0.043102  0.092728  0  3.951926  0
C  C65  1  0.41197355  0.10298333  0.55925943  1  0  0.126433  0  3.713647  0  0  0.097388  0  3.964812  0  0  0.104508  0  3.983625  0  0.463604  0  0.043159  0.092881  0  3.951753  0
C  C66  1  0.08802616  0.39701615  0.55925943  1  0  0.126435  0  3.71366  0  0  0.097395  0  3.964815  0  0  0.104514  0  3.983632  0  0.463617  0  0.04316  0.092889  0  3.951756  0
C  C67  1  0.89701604  0.91197371  0.05925943  1  0  0.126404  0  3.713728  0  0  0.097365  0  3.96489  0  0  0.104484  0  3.983704  0  0.463603  0  0.043159  0.092858  0  3.951829  0
C  C68  1  0.41909619  0.48342262  0.85640493  1  0  -0.151694  0  3.706639  0  0  -0.170107  0  3.953661  0  0  -0.177666  0  3.97481  0  -0.026171  0  -0.077749  -0.165129  0  3.939319  0
C  C69  1  0.51657658  0.91909635  0.35640493  1  0  -0.151691  0  3.706617  0  0  -0.170105  0  3.953638  0  0  -0.177664  0  3.974786  0  -0.026162  0  -0.077755  -0.165128  0  3.939297  0
C  C70  1  0.98342255  0.58090383  0.35640493  1  0  -0.151665  0  3.706667  0  0  -0.170107  0  3.953686  0  0  -0.177653  0  3.974846  0  -0.025999  0  -0.077753  -0.16513  0  3.939345  0
C  C71  1  0.08090438  0.01657686  0.85640570  1  0  -0.151661  0  3.706531  0  0  -0.170065  0  3.95354  0  0  -0.177622  0  3.97469  0  -0.026156  0  -0.077725  -0.165087  0  3.939199  0
C  C72  1  0.58090496  0.51657634  0.14359430  1  0  -0.151686  0  3.70667  0  0  -0.170083  0  3.953672  0  0  -0.177641  0  3.974822  0  -0.026149  0  -0.077759  -0.165106  0  3.93933  0
C  C73  1  0.48342284  0.08090435  0.64359507  1  0  -0.151624  0  3.706629  0  0  -0.17007  0  3.953652  0  0  -0.177614  0  3.974811  0  -0.026156  0  -0.077738  -0.165092  0  3.93931  0
C  C74  1  0.01657687  0.41909600  0.64359507  1  0  -0.151685  0  3.706672  0  0  -0.170102  0  3.95369  0  0  -0.17766  0  3.974838  0  -0.026158  0  -0.077748  -0.165124  0  3.939348  0
C  C75  1  0.91909590  0.98342297  0.14359507  1  0  -0.151621  0  3.706642  0  0  -0.170062  0  3.953657  0  0  -0.177607  0  3.974817  0  -0.02616  0  -0.077735  -0.165085  0  3.939315  0
C  C76  1  0.32506226  0.52776944  0.80002386  1  0  0.097639  0  3.76686  0  0  0.115909  0  3.990363  0  0  0.119214  0  4.012131  0  -0.024031  0  0.00958  0.113804  0  3.975396  0
C  C77  1  0.47222973  0.82506246  0.30002386  1  0  0.097635  0  3.76686  0  0  0.115906  0  3.990366  0  0  0.119211  0  4.012132  0  -0.024037  0  0.009601  0.113803  0  3.975394  0
C  C78  1  0.02776911  0.67493685  0.30002386  1  0  0.097626  0  3.766856  0  0  0.115955  0  3.990302  0  0  0.119218  0  4.012126  0  -0.02421  0  0.009614  0.11385  0  3.975333  0
C  C79  1  0.17493832  0.97222899  0.80002540  1  0  0.097635  0  3.766791  0  0  0.115914  0  3.990306  0  0  0.119212  0  4.012083  0  -0.024114  0  0.009585  0.113809  0  3.975338  0
C  C80  1  0.67493890  0.47222864  0.19997460  1  0  0.097653  0  3.766863  0  0  0.115935  0  3.990362  0  0  0.119237  0  4.012133  0  -0.024031  0  0.009614  0.11383  0  3.975395  0
C  C81  1  0.52776881  0.17493737  0.69997614  1  0  0.097597  0  3.766878  0  0  0.115928  0  3.99032  0  0  0.11919  0  4.012146  0  -0.024047  0  0.009602  0.113823  0  3.975352  0
C  C82  1  0.97223031  0.32506298  0.69997614  1  0  0.097649  0  3.766864  0  0  0.115928  0  3.990367  0  0  0.119233  0  4.012133  0  -0.02404  0  0.009606  0.113824  0  3.975395  0
C  C83  1  0.82506283  0.02776909  0.19997614  1  0  0.097606  0  3.766866  0  0  0.115934  0  3.990314  0  0  0.119198  0  4.012137  0  -0.024039  0  0.009605  0.11383  0  3.975345  0
C  C84  1  0.21206940  0.50030496  0.83307313  1  0  -0.136447  0  3.68962  0  0  -0.154741  0  3.928622  0  0  -0.161346  0  3.949595  0  0.001277  0  -0.07899  -0.150434  0  3.914531  0
C  C85  1  0.49969510  0.71206965  0.33307313  1  0  -0.136451  0  3.689593  0  0  -0.154769  0  3.928619  0  0  -0.161375  0  3.94959  0  0.00128  0  -0.079  -0.150463  0  3.914528  0
C  C86  1  0.00030461  0.78793053  0.33307313  1  0  -0.13646  0  3.689545  0  0  -0.154796  0  3.928569  0  0  -0.161388  0  3.949554  0  0.001276  0  -0.079004  -0.150489  0  3.914479  0
C  C87  1  0.28793031  0.99969435  0.83307544  1  0  -0.136444  0  3.68961  0  0  -0.154785  0  3.928632  0  0  -0.161381  0  3.949613  0  0.001132  0  -0.079011  -0.150478  0  3.914541  0
C  C88  1  0.78793089  0.49969487  0.16692456  1  0  -0.136524  0  3.689603  0  0  -0.154852  0  3.928643  0  0  -0.161447  0  3.949624  0  0.001038  0  -0.079067  -0.150545  0  3.914554  0
C  C89  1  0.50030519  0.28793018  0.66692687  1  0  -0.136503  0  3.689589  0  0  -0.154837  0  3.928609  0  0  -0.161429  0  3.949592  0  0.001275  0  -0.079027  -0.15053  0  3.914518  0
C  C90  1  0.99969481  0.21206930  0.66692687  1  0  -0.136494  0  3.689557  0  0  -0.154815  0  3.928589  0  0  -0.161421  0  3.949563  0  0.001276  0  -0.079009  -0.150508  0  3.914499  0
C  C91  1  0.71206998  0.00030461  0.16692687  1  0  -0.136482  0  3.689568  0  0  -0.154831  0  3.928586  0  0  -0.161423  0  3.94957  0  0.001283  0  -0.079011  -0.150524  0  3.914496  0
C  C92  1  0.19766483  0.43073819  0.91930408  1  0  0.116376  0  3.724863  0  0  0.087998  0  3.975923  0  0  0.094364  0  3.994964  0  0.401137  0  0.038284  0.083997  0  3.962785  0
C  C93  1  0.56926103  0.69766422  0.41930408  1  0  0.116453  0  3.724859  0  0  0.088087  0  3.975916  0  0  0.094454  0  3.994954  0  0.40131  0  0.038314  0.084086  0  3.962777  0
C  C94  1  0.93073809  0.80233509  0.41930331  1  0  0.11641  0  3.724882  0  0  0.088032  0  3.975956  0  0  0.094399  0  3.994992  0  0.401014  0  0.03828  0.084029  0  3.962815  0
C  C95  1  0.30233575  0.06926129  0.91930562  1  0  0.116378  0  3.724974  0  0  0.088019  0  3.976031  0  0  0.094386  0  3.995068  0  0.40097  0  0.038309  0.084019  0  3.962891  0
C  C96  1  0.80233546  0.56926164  0.08069438  1  0  0.116388  0  3.724942  0  0  0.088023  0  3.975998  0  0  0.094388  0  3.995036  0  0.400948  0  0.038316  0.084022  0  3.96286  0
C  C97  1  0.43073838  0.30233561  0.58069669  1  0  0.116406  0  3.724842  0  0  0.088033  0  3.975912  0  0  0.0944  0  3.994948  0  0.401012  0  0.038271  0.084033  0  3.962773  0
C  C98  1  0.06926132  0.19766474  0.58069669  1  0  0.116485  0  3.72492  0  0  0.088118  0  3.975983  0  0  0.094485  0  3.995024  0  0.401142  0  0.038313  0.084116  0  3.962843  0
C  C99  1  0.69766454  0.93073854  0.08069592  1  0  0.116485  0  3.724878  0  0  0.088116  0  3.975943  0  0  0.094483  0  3.994979  0  0.401146  0  0.038314  0.084113  0  3.962803  0
C  C100  1  0.34573047  0.60017344  0.70843649  1  0  0.100752  0  3.70252  0  0  0.071151  0  3.95347  0  0  0.076508  0  3.967962  0  0.692742  0  0.069586  0.067517  0  3.943553  0
C  C101  1  0.39982657  0.84573066  0.20843649  1  0  0.10075  0  3.702513  0  0  0.071171  0  3.953434  0  0  0.076529  0  3.967924  0  0.692738  0  0.069585  0.067537  0  3.943517  0
C  C102  1  0.10017313  0.65426952  0.20843649  1  0  0.100779  0  3.702487  0  0  0.071168  0  3.953419  0  0  0.076538  0  3.967921  0  0.692748  0  0.069585  0.067535  0  3.943502  0
C  C103  1  0.15427011  0.89982761  0.70843726  1  0  0.100784  0  3.702479  0  0  0.071186  0  3.953424  0  0  0.076546  0  3.967914  0  0.69275  0  0.069583  0.067553  0  3.943508  0
C  C104  1  0.65426982  0.39982726  0.29156274  1  0  0.100798  0  3.702474  0  0  0.071203  0  3.953411  0  0  0.076562  0  3.967903  0  0.692728  0  0.069613  0.06757  0  3.943495  0
C  C105  1  0.60017284  0.15427004  0.79156351  1  0  0.100788  0  3.702507  0  0  0.071179  0  3.953434  0  0  0.076548  0  3.967936  0  0.692752  0  0.06959  0.067546  0  3.943518  0
C  C106  1  0.89982715  0.34573031  0.79156351  1  0  0.100756  0  3.702503  0  0  0.071162  0  3.953443  0  0  0.076519  0  3.967936  0  0.692736  0  0.069578  0.067528  0  3.943527  0
C  C107  1  0.84573018  0.10017309  0.29156351  1  0  0.100783  0  3.702511  0  0  0.071171  0  3.953443  0  0  0.07654  0  3.967943  0  0.69275  0  0.069587  0.067538  0  3.943526  0
C  C108  1  0.29080409  0.69724821  0.55814319  1  0  -0.002697  0  3.710088  0  0  -0.051493  0  3.972417  0  0  -0.048784  0  3.984694  0  0.311432  0  -0.067963  -0.053192  0  3.964054  0
C  C109  1  0.30275263  0.79080343  0.05814396  1  0  -0.002689  0  3.710147  0  0  -0.05145  0  3.972444  0  0  -0.04874  0  3.984718  0  0.311451  0  -0.067935  -0.053133  0  3.964076  0
C  C110  1  0.19724795  0.70919587  0.05814319  1  0  -0.002732  0  3.710102  0  0  -0.051524  0  3.972426  0  0  -0.048813  0  3.9847  0  0.333907  0  -0.067973  -0.053218  0  3.964053  0
C  C111  1  0.20919562  0.80275284  0.55814396  1  0  -0.002699  0  3.710141  0  0  -0.051468  0  3.972445  0  0  -0.048759  0  3.984722  0  0.333914  0  -0.067949  -0.053161  0  3.964076  0
C  C112  1  0.70919620  0.30275249  0.44185604  1  0  -0.002704  0  3.710167  0  0  -0.051463  0  3.972461  0  0  -0.048755  0  3.984739  0  0.333912  0  -0.067957  -0.053162  0  3.9641  0
C  C113  1  0.69724766  0.20919639  0.94185681  1  0  -0.002684  0  3.710077  0  0  -0.05148  0  3.972416  0  0  -0.048768  0  3.984691  0  0.311448  0  -0.067952  -0.053175  0  3.964052  0
C  C114  1  0.80275234  0.29080395  0.94185604  1  0  -0.002694  0  3.710059  0  0  -0.051462  0  3.972371  0  0  -0.048751  0  3.984645  0  0.333921  0  -0.067962  -0.053162  0  3.96401  0
C  C115  1  0.79080380  0.19724786  0.44185681  1  0  -0.002707  0  3.710098  0  0  -0.051497  0  3.972431  0  0  -0.048788  0  3.984708  0  0.311424  0  -0.067958  -0.053192  0  3.964065  0
Br  Br116  1  0.04246697  0.30892388  0.15897460  1  0  -0.425669  0  1.039704  0  0  -0.373153  0  1.347505  0  0  -0.390166  0  1.326777  0  -0.448361  0  -0.216254  -0.36195  0  1.361786  0
Br  Br117  1  0.69107626  0.54246730  0.65897460  1  0  -0.42566  0  1.039698  0  0  -0.37314  0  1.347494  0  0  -0.390153  0  1.326768  0  -0.44836  0  -0.216248  -0.361936  0  1.361775  0
Br  Br118  1  0.80892373  0.95753288  0.65897460  1  0  -0.425657  0  1.039689  0  0  -0.373133  0  1.347481  0  0  -0.390146  0  1.326753  0  -0.448353  0  -0.216245  -0.36193  0  1.361762  0
Br  Br119  1  0.45753274  0.19107647  0.15897460  1  0  -0.425665  0  1.039672  0  0  -0.37314  0  1.347455  0  0  -0.390156  0  1.32673  0  -0.448355  0  -0.216251  -0.361938  0  1.361735  0
Br  Br120  1  0.95753332  0.69107595  0.84102540  1  0  -0.425668  0  1.039693  0  0  -0.373149  0  1.347491  0  0  -0.390165  0  1.326764  0  -0.448351  0  -0.216252  -0.361948  0  1.361772  0
Br  Br121  1  0.30892315  0.45753253  0.34102540  1  0  -0.425664  0  1.039655  0  0  -0.373144  0  1.347444  0  0  -0.390157  0  1.326714  0  -0.448354  0  -0.216257  -0.361943  0  1.361726  0
Br  Br122  1  0.19107655  0.04246695  0.34102540  1  0  -0.425664  0  1.039703  0  0  -0.373149  0  1.347504  0  0  -0.390162  0  1.326775  0  -0.448364  0  -0.216256  -0.361946  0  1.361785  0
Br  Br123  1  0.54246668  0.80892336  0.84102540  1  0  -0.425661  0  1.039685  0  0  -0.373146  0  1.347486  0  0  -0.390159  0  1.326753  0  -0.448361  0  -0.216254  -0.361943  0  1.361766  0
N  N124  1  0.28857957  0.38700319  0.97209007  1  0  -0.293598  0  3.260975  0  0  -0.218848  0  3.523327  0  0  -0.238566  0  3.544546  0  -1.213633  0  -0.315503  -0.205194  0  3.508056  0
N  N125  1  0.61299605  0.78857978  0.47209007  1  0  -0.293642  0  3.260997  0  0  -0.218895  0  3.523354  0  0  -0.238613  0  3.544572  0  -1.213778  0  -0.315503  -0.205241  0  3.508083  0
N  N126  1  0.88700308  0.71142040  0.47209007  1  0  -0.293593  0  3.260924  0  0  -0.218835  0  3.523269  0  0  -0.238553  0  3.544486  0  -1.213512  0  -0.315484  -0.205182  0  3.507998  0
N  N127  1  0.21141927  0.11299803  0.97209084  1  0  -0.293602  0  3.261004  0  0  -0.218863  0  3.523364  0  0  -0.238581  0  3.54458  0  -1.213658  0  -0.315504  -0.20521  0  3.508093  0
N  N128  1  0.71141985  0.61299751  0.02790916  1  0  -0.293432  0  3.261022  0  0  -0.218683  0  3.523359  0  0  -0.238401  0  3.544579  0  -1.213673  0  -0.315424  -0.20503  0  3.508089  0
N  N129  1  0.38700337  0.21142005  0.52790993  1  0  -0.293643  0  3.260928  0  0  -0.218889  0  3.523282  0  0  -0.238607  0  3.544498  0  -1.213497  0  -0.315495  -0.205236  0  3.508012  0
N  N130  1  0.11299634  0.28857943  0.52790993  1  0  -0.293647  0  3.261003  0  0  -0.218902  0  3.523365  0  0  -0.238621  0  3.544584  0  -1.213624  0  -0.315511  -0.205249  0  3.508094  0
N  N131  1  0.78858014  0.88700354  0.02790993  1  0  -0.293647  0  3.261025  0  0  -0.218899  0  3.523382  0  0  -0.238617  0  3.5446  0  -1.213632  0  -0.315512  -0.205245  0  3.508111  0
N  N132  1  0.26376343  0.62293040  0.64495304  1  0  -0.280712  0  3.014925  0  0  -0.237156  0  3.28792  0  0  -0.249349  0  3.305331  0  -1.152103  0  -0.31468  -0.228691  0  3.275866  0
N  N133  1  0.37706873  0.76376366  0.14495304  1  0  -0.280753  0  3.014947  0  0  -0.237207  0  3.287921  0  0  -0.249403  0  3.30533  0  -1.15213  0  -0.314708  -0.228744  0  3.275861  0
N  N134  1  0.12293097  0.73623652  0.14495304  1  0  -0.280715  0  3.014921  0  0  -0.23716  0  3.287916  0  0  -0.249357  0  3.305325  0  -1.1521  0  -0.314678  -0.228698  0  3.27586  0
N  N135  1  0.23623627  0.87706891  0.64495304  1  0  -0.280778  0  3.014957  0  0  -0.237223  0  3.287938  0  0  -0.249416  0  3.305344  0  -1.152106  0  -0.314702  -0.228761  0  3.275883  0
N  N136  1  0.73623598  0.37706856  0.35504696  1  0  -0.28076  0  3.014981  0  0  -0.237208  0  3.287955  0  0  -0.249401  0  3.305364  0  -1.152099  0  -0.314701  -0.228744  0  3.275902  0
N  N137  1  0.62293068  0.23623617  0.85504696  1  0  -0.280747  0  3.014954  0  0  -0.237188  0  3.28795  0  0  -0.249383  0  3.305357  0  -1.152129  0  -0.314688  -0.228725  0  3.275895  0
N  N138  1  0.87706931  0.26376418  0.85504696  1  0  -0.280713  0  3.014942  0  0  -0.237166  0  3.287924  0  0  -0.249362  0  3.305336  0  -1.152109  0  -0.314681  -0.228702  0  3.275871  0
N  N139  1  0.76376401  0.12293092  0.35504696  1  0  -0.280731  0  3.014952  0  0  -0.237172  0  3.287947  0  0  -0.249363  0  3.305351  0  -1.152103  0  -0.314681  -0.228708  0  3.275891  0
