# generated using pymatgen
data_Zn2H17C25SN8O3
_symmetry_space_group_name_H-M   'P 1'
_cell_length_a   14.98845697
_cell_length_b   15.05634518
_cell_length_c   24.15268211
_cell_angle_alpha   89.99764297
_cell_angle_beta   89.99963045
_cell_angle_gamma   102.15902815
_symmetry_Int_Tables_number   1
_chemical_formula_structural   Zn2H17C25SN8O3
_chemical_formula_sum   'Zn8 H68 C100 S4 N32 O12'
_cell_volume   5328.29522559
_cell_formula_units_Z   4
loop_
 _symmetry_equiv_pos_site_id
 _symmetry_equiv_pos_as_xyz
  1  'x, y, z'
loop_
 _atom_site_type_symbol
 _atom_site_label
 _atom_site_symmetry_multiplicity
 _atom_site_fract_x
 _atom_site_fract_y
 _atom_site_fract_z
 _atom_site_occupancy
 _atom_site_pbe_bader_charge
 _atom_site_pbe_bader_spin_density
 _atom_site_pbe_cm5_charge
 _atom_site_pbe_ddec_charge
 _atom_site_pbe_ddec_spin_density
 _atom_site_pbe_ddec_sum_bond_order
 _atom_site_pbe_magmom
Zn  Zn0  1  0.53746768  0.44511345  0.55676072  1  1.186151  0  0.741599  0.625635  0  2.387057  0
Zn  Zn1  1  0.39443630  0.58147431  0.56147728  1  1.191914  0  0.746193  0.638206  0  2.354686  0
Zn  Zn2  1  0.10560294  0.91856594  0.06151652  1  1.191976  0  0.746254  0.638257  0  2.354601  0
Zn  Zn3  1  0.96253627  0.05488264  0.05678280  1  1.186672  0  0.741546  0.625348  0  2.387345  0
Zn  Zn4  1  0.38440036  0.57137328  0.42169132  1  1.189626  0  0.745917  0.621094  0  2.427111  0
Zn  Zn5  1  0.53183260  0.44217285  0.42105702  1  1.184376  0  0.749792  0.622564  0  2.447883  0
Zn  Zn6  1  0.96818072  0.05786802  0.92107640  1  1.183857  0  0.749795  0.622648  0  2.447685  0
Zn  Zn7  1  0.11557635  0.92860923  0.92172433  1  1.189475  0  0.745917  0.621119  0  2.42696  0
H  H8  1  0.41734218  0.26874908  0.61226164  1  0.139349  0  0.120109  0.123815  0  1.011208  0
H  H9  1  0.66693489  0.10363036  0.35689033  1  0.049984  0  0.092065  0.096375  0  0.98929  0
H  H10  1  0.83281123  0.39639206  0.85703414  1  0.048767  0  0.092057  0.096402  0  0.988976  0
H  H11  1  0.97099966  0.57831051  0.85137059  1  0.019774  0  0.088545  0.089013  0  0.996336  0
H  H12  1  0.25072476  0.13439519  0.32835236  1  0.088062  0  0.10685  0.110156  0  0.985902  0
H  H13  1  0.63575317  0.81178107  0.29222203  1  0.05245  0  0.099326  0.093461  0  1.027733  0
H  H14  1  0.86410649  0.68821660  0.79233743  1  0.052443  0  0.099392  0.093281  0  1.028232  0
H  H15  1  0.24933691  0.36560298  0.82835823  1  0.088648  0  0.106786  0.110222  0  0.985935  0
H  H16  1  0.73077327  0.60111329  0.74335329  1  0.054323  0  0.102403  0.102626  0  1.004215  0
H  H17  1  0.29328126  0.42600762  0.73500533  1  0.052939  0  0.103167  0.104874  0  0.995796  0
H  H18  1  0.20675921  0.07400431  0.23499640  1  0.05281  0  0.103249  0.105066  0  0.995824  0
H  H19  1  0.50091400  0.72174720  0.66110042  1  0.147445  0  0.119757  0.123115  0  1.021236  0
H  H20  1  0.76911312  0.89887643  0.24325100  1  0.009366  0  0.102212  0.102573  0  1.004085  0
H  H21  1  0.30239337  0.40593225  0.26194005  1  0.065315  0  0.110797  0.122912  0  1.004892  0
H  H22  1  0.67939108  0.56767762  0.21432741  1  0.137701  0  0.112845  0.126681  0  1.009619  0
H  H23  1  0.82062541  0.93227833  0.71430196  1  0.138476  0  0.112829  0.12642  0  1.009606  0
H  H24  1  0.19760493  0.09407855  0.76192857  1  0.064915  0  0.110759  0.122794  0  1.004858  0
H  H25  1  0.88216223  0.66108868  0.40001354  1  0.039441  0  0.097975  0.098336  0  1.00172  0
H  H26  1  0.04738766  0.67197401  0.40323133  1  0.040351  0  0.096822  0.094963  0  1.007549  0
H  H27  1  0.45261520  0.82802394  0.90323647  1  0.040516  0  0.096794  0.094986  0  1.007659  0
H  H28  1  0.61784861  0.83891498  0.90002137  1  0.039571  0  0.097972  0.0983  0  1.001602  0
H  H29  1  0.03368975  0.63896407  0.58053674  1  0.070566  0  0.097016  0.094339  0  1.007529  0
H  H30  1  0.99914709  0.77828967  0.16116973  1  0.147441  0  0.119904  0.123499  0  1.020914  0
H  H31  1  0.86919551  0.62942534  0.57745846  1  0.060354  0  0.096933  0.09629  0  1.008425  0
H  H32  1  0.63079009  0.87055440  0.07746424  1  0.060269  0  0.096836  0.096154  0  1.008478  0
H  H33  1  0.46629575  0.86099975  0.08054434  1  0.070266  0  0.097007  0.094288  0  1.007703  0
H  H34  1  0.23142319  0.43460403  0.36035646  1  0.098033  0  0.120799  0.109389  0  0.988556  0
H  H35  1  0.63751615  0.50260403  0.30845832  1  0.096945  0  0.121494  0.109138  0  0.986173  0
H  H36  1  0.86248716  0.99741439  0.80846400  1  0.095807  0  0.121466  0.109179  0  0.986029  0
H  H37  1  0.26854507  0.06534782  0.86032384  1  0.099756  0  0.120905  0.109564  0  0.988427  0
H  H38  1  0.19228414  0.64194032  0.58208894  1  0.043958  0  0.116568  0.103368  0  1.002192  0
H  H39  1  0.71700229  0.59608741  0.57515719  1  0.089395  0  0.110376  0.094839  0  1.056176  0
H  H40  1  0.78298745  0.90387839  0.07516271  1  0.089041  0  0.110461  0.095034  0  1.056293  0
H  H41  1  0.08265451  0.23126854  0.11226714  1  0.138681  0  0.12004  0.123712  0  1.011363  0
H  H42  1  0.30775930  0.85811681  0.08210608  1  0.043492  0  0.116351  0.103156  0  1.002064  0
H  H43  1  0.18457267  0.62120159  0.40347553  1  0.088983  0  0.116219  0.102426  0  1.003144  0
H  H44  1  0.72053189  0.58858084  0.39610676  1  0.108928  0  0.112925  0.097212  0  1.025152  0
H  H45  1  0.77945689  0.91150752  0.89611452  1  0.108956  0  0.113028  0.097366  0  1.025152  0
H  H46  1  0.31538677  0.87873369  0.90348414  1  0.089396  0  0.116155  0.102482  0  1.002756  0
H  H47  1  0.41554650  0.25427954  0.39165776  1  0.127825  0  0.115172  0.104041  0  1.014362  0
H  H48  1  0.46195106  0.69646120  0.30764494  1  0.078747  0  0.12024  0.106872  0  0.991504  0
H  H49  1  0.03794323  0.80345718  0.80772937  1  0.07873  0  0.120165  0.1069  0  0.991717  0
H  H50  1  0.08452460  0.24574794  0.89168391  1  0.129177  0  0.115285  0.104103  0  1.014404  0
H  H51  1  0.23494457  0.45486173  0.63041192  1  0.102777  0  0.120824  0.110556  0  0.993333  0
H  H52  1  0.64999986  0.93472806  0.35557203  1  0.026594  0  0.090871  0.094936  0  0.99945  0
H  H53  1  0.67563011  0.52762512  0.65928967  1  0.053235  0  0.11755  0.102164  0  0.995594  0
H  H54  1  0.82433003  0.97232004  0.15924384  1  0.05239  0  0.117654  0.102122  0  0.995478  0
H  H55  1  0.26510041  0.04519685  0.13040393  1  0.100781  0  0.120703  0.110357  0  0.993438  0
H  H56  1  0.57871951  0.08385941  0.57382303  1  0.069558  0  0.103025  0.108394  0  0.990047  0
H  H57  1  0.55081851  0.92155777  0.57114295  1  0.077074  0  0.096656  0.100897  0  1.059507  0
H  H58  1  0.94948073  0.57845615  0.07121717  1  0.075224  0  0.096619  0.101085  0  1.05886  0
H  H59  1  0.92157601  0.41616032  0.07389186  1  0.067305  0  0.10322  0.108872  0  0.990189  0
H  H60  1  0.68452819  0.87800837  0.56144947  1  0.620705  0  0.333008  0.387585  0  0.884242  0
H  H61  1  0.22101911  0.21628929  0.58854540  1  0.609445  0  0.32668  0.3729  0  0.897063  0
H  H62  1  0.27899207  0.28375737  0.08855138  1  0.609667  0  0.326691  0.372868  0  0.89677  0
H  H63  1  0.54553725  0.08939529  0.35438787  1  0.002693  0  0.089857  0.0908  0  0.99652  0
H  H64  1  0.81572211  0.62166006  0.06154552  1  0.627068  0  0.332693  0.387148  0  0.885025  0
H  H65  1  0.59768952  0.24805369  0.39759207  1  0.092829  0  0.116685  0.1023  0  1.010715  0
H  H66  1  0.52664074  0.75906435  0.39445120  1  0.084933  0  0.108804  0.090209  0  1.053267  0
H  H67  1  0.97330491  0.74095523  0.89454601  1  0.087879  0  0.108905  0.090275  0  1.052989  0
H  H68  1  0.90239426  0.25204208  0.89764220  1  0.093917  0  0.116873  0.102595  0  1.010863  0
H  H69  1  0.57945377  0.23903328  0.57637904  1  0.114097  0  0.12143  0.109524  0  0.99329  0
H  H70  1  0.52149789  0.77164858  0.57344196  1  0.128841  0  0.113413  0.099517  0  1.064493  0
H  H71  1  0.97857457  0.72838903  0.07352924  1  0.127227  0  0.113364  0.099335  0  1.064526  0
H  H72  1  0.92048089  0.26092677  0.07643466  1  0.113575  0  0.121488  0.109705  0  0.993474  0
H  H73  1  0.95420835  0.41066396  0.85443074  1  0.007394  0  0.090264  0.091338  0  0.996192  0
H  H74  1  0.84967385  0.56526950  0.85573650  1  0.025628  0  0.090974  0.095128  0  0.99909  0
H  H75  1  0.52866379  0.92173227  0.35133600  1  0.032569  0  0.088278  0.08843  0  0.997527  0
C  C76  1  0.38075250  0.32350912  0.60920478  1  0.379006  0  0.008117  -0.056193  0  3.958788  0
C  C77  1  0.76165747  0.61135568  0.48603542  1  -0.021098  0  -0.035069  -0.036704  0  4.068464  0
C  C78  1  0.19282809  0.16117384  0.14168983  1  -0.022052  0  -0.042506  -0.071758  0  4.099589  0
C  C79  1  0.73833059  0.88867370  0.98604125  1  -0.021882  0  -0.034852  -0.03615  0  4.068038  0
C  C80  1  0.35200278  0.85950644  0.99263370  1  0.018103  0  -0.036562  -0.035903  0  4.091379  0
C  C81  1  0.59266829  0.20195316  0.48662459  1  0.013453  0  -0.034011  -0.02838  0  4.103525  0
C  C82  1  0.53997007  0.80840813  0.48300426  1  -0.013875  0  -0.038973  -0.036247  0  4.092743  0
C  C83  1  0.96006424  0.69161690  0.98310081  1  -0.01326  0  -0.039169  -0.036421  0  4.093422  0
C  C84  1  0.90735900  0.29806335  0.98668018  1  0.013544  0  -0.033959  -0.027935  0  4.103244  0
C  C85  1  0.59689694  0.05593466  0.43652589  1  -0.024135  0  -0.017462  0.020731  0  3.896177  0
C  C86  1  0.58559932  0.96155055  0.43519589  1  -0.029682  0  -0.020869  0.017617  0  3.903703  0
C  C87  1  0.91431641  0.53848264  0.93529330  1  -0.02599  0  -0.020858  0.017733  0  3.904174  0
C  C88  1  0.53294202  0.66453059  0.65464867  1  0.407906  0  0.005659  -0.046216  0  3.983068  0
C  C89  1  0.90303194  0.44409776  0.93661402  1  -0.02715  0  -0.017091  0.02133  0  3.896348  0
C  C90  1  0.59378334  0.10564349  0.48521390  1  0.010729  0  -0.012744  0.028763  0  4.077952  0
C  C91  1  0.56785404  0.90709537  0.48252182  1  -0.013881  0  -0.01759  0.025316  0  4.088877  0
C  C92  1  0.93219855  0.59292568  0.98261980  1  -0.016344  0  -0.017725  0.024915  0  4.089341  0
C  C93  1  0.90625737  0.39437565  0.98528870  1  0.009471  0  -0.01347  0.027927  0  4.078365  0
C  C94  1  0.58202167  0.05179635  0.53361337  1  -0.079309  0  -0.090927  -0.11412  0  3.991011  0
C  C95  1  0.56842382  0.95747486  0.53219892  1  -0.040374  0  -0.108796  -0.175694  0  4.043134  0
C  C96  1  0.93176171  0.54253795  0.03228537  1  -0.038875  0  -0.108668  -0.175453  0  4.043017  0
C  C97  1  0.91815678  0.44821499  0.03368974  1  -0.078247  0  -0.090762  -0.114625  0  3.991537  0
C  C98  1  0.59079299  0.95820987  0.37240495  1  -0.044245  0  -0.155533  -0.18876  0  3.894949  0
C  C99  1  0.96709486  0.83548424  0.15469208  1  0.407868  0  0.005791  -0.04671  0  3.983144  0
C  C100  1  0.60223511  0.06485895  0.37384535  1  -0.004833  0  -0.154946  -0.194288  0  3.903152  0
C  C101  1  0.89754028  0.43517198  0.87394120  1  -0.00673  0  -0.15509  -0.194611  0  3.902661  0
C  C102  1  0.90894234  0.54181401  0.87250440  1  -0.027516  0  -0.15598  -0.189737  0  3.894493  0
C  C103  1  0.25264434  0.18139406  0.29377467  1  -0.139699  0  -0.086268  -0.124692  0  3.980556  0
C  C104  1  0.67326333  0.77658678  0.26390781  1  -0.035119  0  -0.085801  -0.116439  0  3.984592  0
C  C105  1  0.82663035  0.72339956  0.76399707  1  -0.035419  0  -0.086314  -0.116624  0  3.986241  0
C  C106  1  0.24740586  0.31860741  0.79377921  1  -0.140354  0  -0.086214  -0.125062  0  3.981259  0
C  C107  1  0.75089777  0.67413204  0.73623053  1  -0.02231  0  -0.091256  -0.133188  0  3.987156  0
C  C108  1  0.27149074  0.35279658  0.74092492  1  0.034629  0  -0.087654  -0.119689  0  3.974475  0
C  C109  1  0.22854143  0.14721410  0.24092104  1  0.035026  0  -0.087813  -0.120392  0  3.974176  0
C  C110  1  0.11925640  0.17651893  0.10921040  1  0.379386  0  0.007938  -0.056476  0  3.959261  0
C  C111  1  0.74901878  0.82584852  0.23615712  1  0.022836  0  -0.091185  -0.133403  0  3.986264  0
C  C112  1  0.69571503  0.71437744  0.70071418  1  0.034071  0  0.004507  0.092615  0  3.969538  0
C  C113  1  0.27317379  0.29607268  0.69468394  1  0.056437  0  -0.002688  0.081169  0  4.008574  0
C  C114  1  0.22684187  0.20395009  0.19468657  1  0.0569  0  -0.002534  0.081745  0  4.00852  0
C  C115  1  0.80426720  0.78558806  0.20069212  1  0.036342  0  0.004101  0.092236  0  3.970339  0
C  C116  1  0.28386905  0.40055867  0.37534749  1  0.407097  0  0.010459  -0.043984  0  3.97299  0
C  C117  1  0.58421463  0.54065669  0.31458581  1  0.361053  0  0.011205  -0.047722  0  3.993424  0
C  C118  1  0.91576977  0.95934392  0.81460678  1  0.360411  0  0.01111  -0.048094  0  3.993589  0
C  C119  1  0.21612363  0.09940837  0.87533279  1  0.405184  0  0.010312  -0.044322  0  3.97283  0
C  C120  1  0.72523344  0.80986064  0.69397491  1  -0.225616  0  -0.016586  -0.129083  0  3.921989  0
C  C121  1  0.30564706  0.31952208  0.35625276  1  -0.004593  0  -0.034894  -0.040671  0  4.066068  0
C  C122  1  0.24569695  0.20181215  0.70437565  1  -0.178265  0  -0.020387  -0.142649  0  3.972231  0
C  C123  1  0.25430230  0.29820897  0.20438070  1  -0.178573  0  -0.020416  -0.142799  0  3.972322  0
C  C124  1  0.77479572  0.69009108  0.19398236  1  -0.225359  0  -0.016451  -0.128881  0  3.921554  0
C  C125  1  0.27822557  0.33289451  0.25701572  1  0.014127  0  -0.081228  -0.132584  0  3.947438  0
C  C126  1  0.69898740  0.64048134  0.22182746  1  -0.012108  0  -0.0819  -0.138245  0  3.963724  0
C  C127  1  0.80100962  0.85948368  0.72183916  1  -0.012485  0  -0.081755  -0.137853  0  3.963432  0
C  C128  1  0.22178394  0.16711588  0.75701093  1  0.014409  0  -0.081176  -0.132371  0  3.947343  0
C  C129  1  0.27636096  0.27542093  0.30308377  1  0.030804  0  -0.003106  0.099445  0  4.018732  0
C  C130  1  0.64758363  0.68179446  0.25822524  1  0.042721  0  -0.006859  0.092821  0  4.05171  0
C  C131  1  0.85235736  0.81818421  0.75828007  1  0.042755  0  -0.006663  0.092866  0  4.052336  0
C  C132  1  0.57732680  0.62481446  0.29199148  1  0.037792  0  -0.035063  -0.040106  0  4.086795  0
C  C133  1  0.22367172  0.22457969  0.80308461  1  0.031895  0  -0.003161  0.09934  0  4.018986  0
C  C134  1  0.91478892  0.65618671  0.43995889  1  -0.002876  0  -0.096983  -0.133498  0  4.00871  0
C  C135  1  0.00861652  0.66195226  0.44178554  1  -0.010385  0  -0.097791  -0.135525  0  4.010676  0
C  C136  1  0.49138193  0.83804042  0.94179046  1  -0.010078  0  -0.097837  -0.135776  0  4.010638  0
C  C137  1  0.58521009  0.84381141  0.93996362  1  -0.002902  0  -0.096953  -0.133297  0  4.008562  0
C  C138  1  0.05349757  0.65159394  0.49182377  1  0.006572  0  -0.014569  0.07707  0  4.059085  0
C  C139  1  0.86117559  0.63988952  0.48816560  1  0.032251  0  -0.013038  0.079904  0  4.046335  0
C  C140  1  0.63881666  0.86011386  0.98817146  1  0.033079  0  -0.013147  0.07962  0  4.0464  0
C  C141  1  0.44649729  0.84838638  0.99182972  1  0.006171  0  -0.014523  0.077284  0  4.058652  0
C  C142  1  0.00124203  0.64457288  0.54062367  1  -0.11766  0  -0.097224  -0.13245  0  4.010773  0
C  C143  1  0.92262557  0.87516305  0.79203760  1  0.03778  0  -0.035084  -0.039945  0  4.086872  0
C  C144  1  0.90766022  0.63915173  0.53882103  1  -0.057523  0  -0.095416  -0.128569  0  3.997385  0
C  C145  1  0.59232886  0.86083471  0.03882661  1  -0.057877  0  -0.09532  -0.128515  0  3.997362  0
C  C146  1  0.49874658  0.85540122  0.04063108  1  -0.117664  0  -0.09716  -0.132331  0  4.010709  0
C  C147  1  0.20462293  0.63379497  0.53825865  1  0.428794  0  0.004235  -0.056025  0  3.994608  0
C  C148  1  0.70315081  0.58609981  0.53136100  1  0.378434  0  0.005895  -0.041812  0  3.953199  0
C  C149  1  0.79683628  0.91390389  0.03136862  1  0.378692  0  0.005712  -0.042164  0  3.953198  0
C  C150  1  0.29539984  0.86622531  0.03827447  1  0.428881  0  0.004397  -0.055844  0  3.994367  0
C  C151  1  0.59191566  0.26082222  0.44156222  1  0.386267  0  0.005454  -0.056569  0  3.995793  0
C  C152  1  0.51860581  0.74717652  0.43861584  1  0.396261  0  0.003989  -0.046914  0  3.951468  0
C  C153  1  0.98136051  0.75285088  0.93870738  1  0.392689  0  0.004516  -0.046146  0  3.949936  0
C  C154  1  0.19437618  0.18046912  0.85625247  1  -0.004545  0  -0.034793  -0.040432  0  4.065842  0
C  C155  1  0.90814386  0.23922780  0.94160805  1  0.387326  0  0.005505  -0.056992  0  3.995951  0
C  C156  1  0.20118617  0.62437266  0.44730449  1  0.388713  0  0.004835  -0.056998  0  4.001716  0
C  C157  1  0.70498550  0.58314002  0.44003080  1  0.3868  0  0.007134  -0.046081  0  3.956218  0
C  C158  1  0.79499749  0.91692344  0.94003993  1  0.387084  0  0.007056  -0.046228  0  3.956374  0
C  C159  1  0.29879441  0.87558908  0.94731707  1  0.388833  0  0.004782  -0.05727  0  4.001412  0
C  C160  1  0.58260612  0.25629714  0.53266773  1  0.381132  0  0.011236  -0.046315  0  3.969875  0
C  C161  1  0.51597825  0.75341198  0.53002177  1  0.360966  0  0.006403  -0.042453  0  3.949183  0
C  C162  1  0.98408254  0.74662129  0.03010814  1  0.360654  0  0.006479  -0.042267  0  3.950091  0
C  C163  1  0.91737857  0.24369303  0.03271882  1  0.380206  0  0.011178  -0.046385  0  3.970352  0
C  C164  1  0.37662305  0.30754386  0.39148673  1  0.342982  0  0.00405  -0.050455  0  3.965881  0
C  C165  1  0.14799357  0.64047441  0.49262541  1  0.017056  0  -0.036495  -0.035898  0  4.091424  0
C  C166  1  0.49617760  0.64077317  0.31512743  1  0.421798  0  0.009912  -0.048294  0  3.991665  0
C  C167  1  0.00375422  0.85917663  0.81518726  1  0.423952  0  0.010033  -0.048422  0  3.99146  0
C  C168  1  0.12341860  0.19245940  0.89149721  1  0.341953  0  0.003952  -0.050743  0  3.966192  0
C  C169  1  0.28787447  0.41889890  0.61891109  1  0.385349  0  0.009116  -0.049871  0  3.978505  0
C  C170  1  0.62145478  0.56500937  0.65468131  1  0.375077  0  0.005492  -0.054401  0  4.017211  0
C  C171  1  0.87853156  0.93496057  0.15466896  1  0.376308  0  0.005346  -0.054282  0  4.016852  0
C  C172  1  0.21216144  0.08115147  0.11890814  1  0.387958  0  0.009517  -0.049043  0  3.978047  0
C  C173  1  0.30719400  0.33886685  0.64168996  1  -0.020714  0  -0.042416  -0.071383  0  4.098787  0
C  C174  1  0.61959552  0.65375896  0.67252837  1  0.042519  0  -0.039357  -0.04965  0  4.059545  0
C  C175  1  0.88040677  0.84621964  0.17252933  1  0.041507  0  -0.039392  -0.049418  0  4.059565  0
S  S176  1  0.67458472  0.87979182  0.64981194  1  3.01198  0  0.542844  1.168845  0  5.957513  0
S  S177  1  0.23741066  0.11971938  0.65033052  1  3.057742  0  0.533653  1.161345  0  6.006739  0
S  S178  1  0.26257356  0.38031223  0.15034095  1  3.05756  0  0.533966  1.161945  0  6.006595  0
S  S179  1  0.82556073  0.62010814  0.14991414  1  3.012354  0  0.543195  1.169139  0  5.957169  0
N  N180  1  0.40413354  0.39061177  0.57155958  1  -0.746325  0  -0.277748  -0.177153  0  3.566271  0
N  N181  1  0.61960808  0.54399232  0.51369060  1  -0.829562  0  -0.283155  -0.184521  0  3.610342  0
N  N182  1  0.88037506  0.95603159  0.01370216  1  -0.82963  0  -0.283172  -0.184489  0  3.610332  0
N  N183  1  0.21548607  0.88447355  0.02136639  1  -0.778334  0  -0.268787  -0.182207  0  3.53801  0
N  N184  1  0.58184541  0.34280686  0.45932577  1  -0.774716  0  -0.276471  -0.180834  0  3.55816  0
N  N185  1  0.48289486  0.66315296  0.45821196  1  -0.818405  0  -0.282945  -0.184846  0  3.618321  0
N  N186  1  0.01706914  0.83688373  0.95828875  1  -0.818174  0  -0.283198  -0.185321  0  3.617789  0
N  N187  1  0.91820353  0.15723570  0.95936229  1  -0.77411  0  -0.276616  -0.180656  0  3.55813  0
N  N188  1  0.28226143  0.60983441  0.46454665  1  -0.795298  0  -0.275145  -0.177079  0  3.572977  0
N  N189  1  0.62073422  0.54244562  0.45741571  1  -0.733717  0  -0.284448  -0.184629  0  3.631696  0
N  N190  1  0.87924719  0.95761392  0.95742839  1  -0.733116  0  -0.284451  -0.184889  0  3.632231  0
N  N191  1  0.48919389  0.59030424  0.62714518  1  -0.797448  0  -0.268905  -0.191878  0  3.489261  0
N  N192  1  0.21772939  0.89014679  0.96456756  1  -0.796035  0  -0.275084  -0.177011  0  3.573435  0
N  N193  1  0.57615227  0.34010229  0.51614353  1  -0.79369  0  -0.270694  -0.178839  0  3.545769  0
N  N194  1  0.48202353  0.66738321  0.51436799  1  -0.731479  0  -0.284183  -0.17825  0  3.638898  0
N  N195  1  0.01799133  0.83265523  0.01444414  1  -0.729833  0  -0.28436  -0.178399  0  3.63906  0
N  N196  1  0.92384946  0.15990173  0.01618168  1  -0.794511  0  -0.270572  -0.178935  0  3.545392  0
N  N197  1  0.39813293  0.37855932  0.42718117  1  -0.757809  0  -0.289376  -0.207621  0  3.524723  0
N  N198  1  0.45894305  0.57236500  0.34949399  1  -0.77046  0  -0.269483  -0.183626  0  3.508699  0
N  N199  1  0.04100361  0.92759372  0.84954185  1  -0.770885  0  -0.269399  -0.183329  0  3.508297  0
N  N200  1  0.10189318  0.12143483  0.92718531  1  -0.758194  0  -0.289356  -0.20726  0  3.524123  0
N  N201  1  0.34635784  0.44899531  0.57729228  1  -0.7956  0  -0.279731  -0.17875  0  3.583868  0
N  N202  1  0.01084966  0.90972267  0.12719760  1  -0.797919  0  -0.268956  -0.191693  0  3.489566  0
N  N203  1  0.54501357  0.52804815  0.62675563  1  -0.779636  0  -0.274341  -0.190569  0  3.503397  0
N  N204  1  0.95499658  0.97194843  0.12677268  1  -0.780236  0  -0.274314  -0.19063  0  3.503732  0
N  N205  1  0.15366460  0.05104173  0.07729976  1  -0.795385  0  -0.279944  -0.179202  0  3.584036  0
N  N206  1  0.09587414  0.10941081  0.07157120  1  -0.74545  0  -0.277561  -0.176764  0  3.565783  0
N  N207  1  0.33959164  0.43537329  0.41732639  1  -0.790388  0  -0.28599  -0.188902  0  3.573896  0
N  N208  1  0.51447166  0.51010816  0.34938805  1  -0.810251  0  -0.276297  -0.18584  0  3.522893  0
N  N209  1  0.98550780  0.98988060  0.84941379  1  -0.808972  0  -0.27627  -0.185794  0  3.522828  0
N  N210  1  0.16040532  0.06459801  0.91731475  1  -0.790371  0  -0.28602  -0.18894  0  3.573678  0
N  N211  1  0.28453452  0.61554672  0.52134316  1  -0.777957  0  -0.268944  -0.182313  0  3.537558  0
O  O212  1  0.57655901  0.86109998  0.65698205  1  -1.295497  0  -0.313214  -0.54261  0  2.165998  0
O  O213  1  0.92358733  0.63890439  0.15708571  1  -1.296971  0  -0.313399  -0.54271  0  2.167131  0
O  O214  1  0.77731386  0.52687050  0.15429432  1  -1.287484  0  -0.32171  -0.539867  0  2.107383  0
O  O215  1  0.80033431  0.66046039  0.09154511  1  -1.192569  0  -0.358716  -0.537899  0  2.176663  0
O  O216  1  0.72291356  0.97301868  0.65408794  1  -1.288005  0  -0.32156  -0.539684  0  2.107813  0
O  O217  1  0.69978287  0.83923090  0.59149828  1  -1.186196  0  -0.358742  -0.538085  0  2.176618  0
O  O218  1  0.32787978  0.11931101  0.63003667  1  -1.289375  0  -0.323433  -0.549825  0  2.120958  0
O  O219  1  0.17771471  0.03703467  0.66766281  1  -1.29266  0  -0.313311  -0.512296  0  2.092227  0
O  O220  1  0.18141625  0.16053281  0.60315707  1  -1.177995  0  -0.36254  -0.519327  0  2.140636  0
O  O221  1  0.17210342  0.38072006  0.13005172  1  -1.289476  0  -0.323633  -0.550139  0  2.120727  0
O  O222  1  0.32226344  0.46300093  0.16767437  1  -1.292308  0  -0.313461  -0.512516  0  2.092324  0
O  O223  1  0.31858082  0.33951791  0.10316710  1  -1.178453  0  -0.362565  -0.519332  0  2.140457  0
