# generated using pymatgen
data_Mn3H40C50(NO3)4
_symmetry_space_group_name_H-M   'P 1'
_cell_length_a   8.41495200
_cell_length_b   11.15632498
_cell_length_c   13.29438469
_cell_angle_alpha   111.63021288
_cell_angle_beta   100.27991945
_cell_angle_gamma   94.81950711
_symmetry_Int_Tables_number   1
_chemical_formula_structural   Mn3H40C50(NO3)4
_chemical_formula_sum   'Mn3 H40 C50 N4 O12'
_cell_volume   1126.15165986
_cell_formula_units_Z   1
loop_
 _symmetry_equiv_pos_site_id
 _symmetry_equiv_pos_as_xyz
  1  'x, y, z'
loop_
 _atom_site_type_symbol
 _atom_site_label
 _atom_site_symmetry_multiplicity
 _atom_site_fract_x
 _atom_site_fract_y
 _atom_site_fract_z
 _atom_site_occupancy
 _atom_site_pbe_bader_charge
 _atom_site_pbe_bader_spin_density
 _atom_site_pbe_cm5_charge
 _atom_site_pbe_ddec_charge
 _atom_site_pbe_ddec_spin_density
 _atom_site_pbe_ddec_sum_bond_order
 _atom_site_pbe_magmom
Mn  Mn0  1  0.49922742  0.49985855  0.49921917  1  1.549555  -4.567729  0.597542  1.072869  -4.692374  2.239195  -4.499
Mn  Mn1  1  0.21820969  0.37209447  0.22658464  1  1.474922  4.486065  0.621598  0.865307  4.628876  2.473145  4.396
Mn  Mn2  1  0.78173098  0.62777163  0.77373607  1  1.476405  -4.494941  0.622002  0.867509  -4.62149  2.470128  -4.404
H  H3  1  0.08025844  0.22246466  0.53313647  1  0.049674  0.000747  0.098564  0.11661  0.000552  0.996741  0.0
H  H4  1  0.91952412  0.77744741  0.46678921  1  0.049792  -0.001195  0.09872  0.116544  -0.000607  0.997114  -0.001
H  H5  1  0.96461317  0.14959268  0.39346523  1  0.051643  0.00018  0.101745  0.123974  -4.7e-05  0.99061  0.0
H  H6  1  0.03504831  0.85013580  0.60650085  1  0.052302  -0.000673  0.101702  0.123691  -0.000216  0.99086  0.0
H  H7  1  0.14105001  0.03424398  0.56776516  1  0.03926  9e-06  0.094109  0.090684  -2e-06  1.034008  0.0
H  H8  1  0.85882793  0.96568802  0.43224235  1  0.040228  -0.000113  0.093988  0.090557  -7.7e-05  1.034422  0.0
H  H9  1  0.24948599  0.07834297  0.27844024  1  0.06899  1.4e-05  0.101972  0.106542  -0.000294  1.029914  0.0
H  H10  1  0.75026809  0.92151710  0.72150062  1  0.067221  -8.5e-05  0.101931  0.10673  0.000316  1.029707  0.0
H  H11  1  0.53374518  0.76338560  0.46305672  1  0.082642  0.000784  0.105149  0.128975  0.000536  1.025203  0.001
H  H12  1  0.46613064  0.23654330  0.53700975  1  0.083663  -0.001075  0.105067  0.129296  -0.000333  1.024834  -0.001
H  H13  1  0.57026841  0.77475359  0.33889366  1  0.042142  0.000534  0.100867  0.120222  0.000224  0.988614  0.0
H  H14  1  0.42999767  0.22552895  0.66138689  1  0.041073  -0.00119  0.100665  0.119968  -0.00059  0.989225  -0.001
H  H15  1  0.41378215  0.89824885  0.25187422  1  0.075943  6.7e-05  0.09437  0.088317  5.3e-05  1.033485  0.0
H  H16  1  0.58621279  0.10179321  0.74817489  1  0.074863  -0.000137  0.09445  0.088428  -9.2e-05  1.033651  0.0
H  H17  1  0.29744780  0.84883688  0.53663416  1  0.059897  -0.000155  0.100856  0.10667  0.000102  1.02915  0.0
H  H18  1  0.70258860  0.15120147  0.46343812  1  0.060551  -0.000157  0.100857  0.10653  0.000141  1.029051  0.0
H  H19  1  0.75656532  0.19203652  0.25632950  1  0.055991  0.000268  0.104653  0.131448  -4e-06  0.984657  0.0
H  H20  1  0.24347013  0.80832100  0.74349653  1  0.059277  -0.000946  0.104833  0.132063  -0.000211  0.984162  -0.001
H  H21  1  0.61545082  0.09134392  0.28684719  1  0.024203  0.001001  0.097851  0.111869  0.000687  1.022193  0.0
H  H22  1  0.38527825  0.90853129  0.71301933  1  0.023953  -0.001828  0.097996  0.112058  -0.001007  1.022252  -0.001
H  H23  1  0.33871152  0.97880383  0.13277394  1  0.046818  -4e-06  0.098245  0.09908  2e-05  1.037526  0.0
H  H24  1  0.66145558  0.02118118  0.86708844  1  0.044117  -6.1e-05  0.098223  0.099181  -4.1e-05  1.038687  0.0
H  H25  1  0.76911287  0.14586204  0.06799966  1  0.048212  9.8e-05  0.097056  0.101571  -0.0  1.014433  0.0
H  H26  1  0.23106538  0.85411229  0.93186595  1  0.049183  -0.000152  0.097143  0.101752  -1.4e-05  1.014569  0.0
H  H27  1  0.35182039  0.20842711  0.01823877  1  0.13815  0.000931  0.116982  0.088478  0.000265  1.040052  0.001
H  H28  1  0.64832196  0.79173970  0.98191190  1  0.125936  -0.00097  0.117136  0.088821  -0.000256  1.040023  -0.001
H  H29  1  0.28025849  0.14173150  0.81131543  1  0.078861  0.000506  0.105292  0.110336  0.000209  1.005927  0.0
H  H30  1  0.71979085  0.85831941  0.18883821  1  0.076287  -0.000581  0.105334  0.11034  -0.00026  1.006138  0.0
H  H31  1  0.01954748  0.20009049  0.72572562  1  0.069855  0.000178  0.104942  0.098546  0.000173  1.011188  0.0
H  H32  1  0.98046232  0.79994359  0.27442051  1  0.06831  -0.000193  0.104804  0.098417  -0.000182  1.011287  0.0
H  H33  1  0.84781161  0.32135864  0.84891486  1  0.155945  0.000512  0.106936  0.124306  0.000591  1.059145  0.0
H  H34  1  0.15235196  0.67885512  0.15126562  1  0.154499  -0.000569  0.107016  0.124343  -0.000609  1.059334  0.0
H  H35  1  0.69670360  0.39118496  0.95595750  1  0.114389  0.000516  0.109755  0.12667  0.000471  1.031394  0.0
H  H36  1  0.30352775  0.60897361  0.04419557  1  0.112732  -0.000763  0.10982  0.12662  -0.000693  1.032338  0.0
H  H37  1  0.53997259  0.49404610  0.10104109  1  0.110632  -6.9e-05  0.110389  0.111025  -0.000233  1.005336  0.0
H  H38  1  0.46014326  0.50596725  0.89907016  1  0.109531  -0.000188  0.110214  0.110862  3.1e-05  1.005186  0.0
H  H39  1  0.67289277  0.55181615  0.30238373  1  0.138587  0.000536  0.111909  0.118251  0.000349  1.034063  0.0
H  H40  1  0.32728952  0.44836358  0.69778155  1  0.141024  -0.000616  0.112131  0.118884  0.000123  1.033046  0.0
H  H41  1  0.95304716  0.50474518  0.34929378  1  0.118471  0.001959  0.12673  0.09781  0.001353  0.968146  0.001
H  H42  1  0.04720571  0.49569479  0.65090853  1  0.131823  -0.002116  0.126487  0.097721  -0.001108  0.968177  -0.001
C  C43  1  0.17179409  0.29047713  0.41858087  1  1.577247  0.001067  0.228648  0.659943  0.001791  4.114712  0.001
C  C44  1  0.82777492  0.70916250  0.58114389  1  1.575985  -0.021835  0.229082  0.659728  -0.02098  4.115809  -0.019
C  C45  1  0.08942830  0.18298918  0.44593089  1  -0.032025  -0.000199  -0.159072  -0.349853  -0.000317  3.929781  0.0
C  C46  1  0.91025790  0.81683831  0.55397324  1  -0.02878  -0.004404  -0.159894  -0.349622  -0.003114  3.929321  -0.002
C  C47  1  0.18363762  0.06930851  0.42511733  1  -0.03596  -9.8e-05  -0.012211  0.127723  -9e-05  3.965502  0.0
C  C48  1  0.81614179  0.93055168  0.57483850  1  -0.046153  -0.001699  -0.012033  0.127478  -0.00122  3.966151  -0.001
C  C49  1  0.19844526  0.00301228  0.49690179  1  -0.064264  -0.000426  -0.097172  -0.151903  -0.00032  4.016272  0.0
C  C50  1  0.80142993  0.99691189  0.50310297  1  -0.055665  -0.000955  -0.097467  -0.152146  -0.00078  4.017242  -0.001
C  C51  1  0.26006441  0.02832371  0.33545856  1  -0.034036  -0.000286  -0.095947  -0.143418  -0.000258  3.976198  0.0
C  C52  1  0.73975759  0.97156894  0.66451376  1  -0.034391  -0.000571  -0.096276  -0.144192  -0.000241  3.976642  0.0
C  C53  1  0.38080408  0.62144903  0.31307966  1  1.546501  0.000388  0.221657  0.640581  0.00235  4.102557  -0.001
C  C54  1  0.61940382  0.37872121  0.68666965  1  1.541698  -0.016762  0.220764  0.639799  -0.017308  4.106247  -0.014
C  C55  1  0.47471613  0.75823887  0.38107148  1  -0.035734  0.000186  -0.162826  -0.353767  6e-06  3.942307  0.0
C  C56  1  0.52536834  0.24187203  0.61902133  1  -0.034758  -0.000806  -0.163121  -0.354203  -8.1e-05  3.942893  0.0
C  C57  1  0.36742760  0.86197119  0.39277376  1  -0.046396  -7e-06  -0.009671  0.142175  -0.00018  3.965584  0.0
C  C58  1  0.63256461  0.13805715  0.60728056  1  -0.047922  -0.001789  -0.009734  0.142249  -0.00123  3.96461  -0.001
C  C59  1  0.35154619  0.92700265  0.32043783  1  -0.076295  -5.5e-05  -0.094653  -0.141697  -3.3e-05  4.009806  0.0
C  C60  1  0.64840568  0.07297373  0.67958744  1  -0.076653  4.2e-05  -0.09488  -0.141828  4.4e-05  4.009711  0.0
C  C61  1  0.28666066  0.89964280  0.48018064  1  -0.015939  -1.6e-05  -0.093211  -0.136007  -3.3e-05  3.972021  0.0
C  C62  1  0.71331308  0.10034054  0.51985532  1  -0.016692  -0.000173  -0.092934  -0.135445  -8e-06  3.971449  0.0
C  C63  1  0.53453943  0.26535411  0.28342003  1  1.617865  0.005562  0.226354  0.652547  0.005652  4.129952  0.005
C  C64  1  0.46495569  0.73408134  0.71648408  1  1.615703  -0.020745  0.227315  0.653703  -0.020322  4.129191  -0.018
C  C65  1  0.62598039  0.15090589  0.23748160  1  -0.017982  0.000444  -0.161788  -0.360202  0.00043  3.949926  0.0
C  C66  1  0.37420314  0.84905868  0.76239211  1  -0.022135  -0.004944  -0.162371  -0.361361  -0.00364  3.948911  -0.003
C  C67  1  0.56322709  0.07067810  0.11556490  1  0.049883  -0.001273  -0.015417  0.132885  -0.001337  4.005269  -0.001
C  C68  1  0.43700243  0.92924968  0.88429289  1  0.077254  -0.001788  -0.014868  0.133187  -0.001025  4.005647  -0.001
C  C69  1  0.41159913  0.98751926  0.07508282  1  -0.137611  -0.000426  -0.098117  -0.14406  -0.000479  3.989614  0.0
C  C70  1  0.58860155  0.01240932  0.92477341  1  -0.13523  -0.000703  -0.098361  -0.144404  -0.00036  3.991379  0.0
C  C71  1  0.65066818  0.08190463  0.03839455  1  -0.026409  -0.000303  -0.098327  -0.143415  -0.000293  3.993405  0.0
C  C72  1  0.34954148  0.91803278  0.96146620  1  -0.05002  -0.00061  -0.098761  -0.143903  -0.000416  3.992949  0.0
C  C73  1  0.24121111  0.23070417  0.97667234  1  0.468292  0.014813  0.053837  0.104513  0.011804  3.929406  0.009
C  C74  1  0.75894622  0.76949592  0.02349039  1  0.481119  -0.015004  0.05402  0.104366  -0.01189  3.930118  -0.01
C  C75  1  0.20038159  0.19461798  0.86192983  1  -0.015896  -0.001258  -0.083991  -0.131041  -0.001226  3.967108  -0.001
C  C76  1  0.79970695  0.80549670  0.13822179  1  -0.01552  0.001105  -0.084363  -0.131381  0.001114  3.968295  0.001
C  C77  1  0.05682231  0.22680160  0.81511722  1  -0.005354  0.015528  -0.068545  -0.023313  0.012214  3.973131  0.009
C  C78  1  0.94325926  0.77330229  0.18503476  1  -0.007418  -0.015895  -0.068927  -0.023664  -0.012465  3.973965  -0.01
C  C79  1  0.95895122  0.29356731  0.88402396  1  -0.058841  -0.002545  -0.079155  -0.154069  -0.00203  3.914287  -0.003
C  C80  1  0.04120482  0.70661419  0.11614638  1  -0.055923  0.002503  -0.078942  -0.154047  0.002015  3.914605  0.003
C  C81  1  0.00645361  0.32538301  0.99837530  1  0.456142  0.014945  0.122919  0.166906  0.011593  3.970295  0.01
C  C82  1  0.99378339  0.67487224  0.00180920  1  0.442174  -0.015321  0.122843  0.166502  -0.011807  3.970205  -0.01
C  C83  1  0.90733451  0.39251794  0.07745553  1  0.408972  0.011058  0.123689  0.165402  0.008713  3.989238  0.007
C  C84  1  0.09293669  0.60776388  0.92274039  1  0.423914  -0.011181  0.123815  0.166039  -0.008767  3.988443  -0.007
C  C85  1  0.75000606  0.41705544  0.04370584  1  0.057799  -0.000908  -0.077334  -0.157803  -0.000728  3.91611  -0.001
C  C86  1  0.25021040  0.58313229  0.95646736  1  0.061089  0.000591  -0.077406  -0.157642  0.000484  3.915651  0.001
C  C87  1  0.66346779  0.47524435  0.12414915  1  -0.029881  0.010573  -0.063499  -0.01865  0.008084  3.946995  0.006
C  C88  1  0.33667921  0.52487853  0.87599519  1  -0.034946  -0.010886  -0.063535  -0.019039  -0.008284  3.94698  -0.006
C  C89  1  0.73530545  0.50821686  0.23598906  1  -0.058355  0.000174  -0.077484  -0.119279  -0.000234  3.94986  0.0
C  C90  1  0.26486272  0.49197062  0.76416498  1  -0.060405  -0.000404  -0.076964  -0.118734  0.000274  3.949845  0.0
C  C91  1  0.89222296  0.48188383  0.26312011  1  0.435155  0.011388  0.057884  0.104287  0.009153  3.939446  0.007
C  C92  1  0.10802100  0.51845550  0.73706271  1  0.423528  -0.011601  0.057924  0.104127  -0.009037  3.940738  -0.007
N  N93  1  0.14652764  0.29408073  0.04337555  1  -1.245203  0.055348  -0.314448  -0.276417  0.037273  3.488833  0.015
N  N94  1  0.85370647  0.70619694  0.95682309  1  -1.244028  -0.055723  -0.314732  -0.276285  -0.037202  3.488963  -0.015
N  N95  1  0.97630173  0.42587170  0.18608122  1  -1.245226  0.054205  -0.320397  -0.286099  0.036005  3.530095  0.017
N  N96  1  0.02400700  0.57449632  0.81412322  1  -1.242345  -0.054772  -0.320968  -0.287011  -0.03616  3.530852  -0.017
O  O97  1  0.28029227  0.37846586  0.49437971  1  -1.208352  -0.045905  -0.302232  -0.572158  -0.033746  2.293228  -0.017
O  O98  1  0.71915700  0.62137759  0.50520428  1  -1.206996  -0.060411  -0.30259  -0.572323  -0.043732  2.291575  -0.027
O  O99  1  0.12654188  0.27990196  0.31814220  1  -1.205917  0.068026  -0.323056  -0.567142  0.046486  2.318126  0.027
O  O100  1  0.87326684  0.71941223  0.68144361  1  -1.206601  -0.079463  -0.32287  -0.567225  -0.054118  2.317745  -0.035
O  O101  1  0.35276458  0.54571885  0.36442106  1  -1.212504  0.013954  -0.306326  -0.574599  0.006525  2.378261  0.01
O  O102  1  0.64714566  0.45417048  0.63517523  1  -1.209784  -0.105755  -0.305781  -0.574062  -0.076743  2.375576  -0.047
O  O103  1  0.33052159  0.58248987  0.20946975  1  -1.188641  0.028886  -0.302705  -0.556852  0.021059  2.178928  0.015
O  O104  1  0.66996132  0.41791246  0.79036969  1  -1.187298  -0.047445  -0.303315  -0.558465  -0.034408  2.180317  -0.029
O  O105  1  0.57502072  0.33160620  0.38719314  1  -1.217723  -0.044169  -0.309568  -0.576242  -0.031493  2.292986  -0.015
O  O106  1  0.42371495  0.66748029  0.61280118  1  -1.216422  -0.061814  -0.310595  -0.577048  -0.044196  2.290739  -0.029
O  O107  1  0.42540294  0.28458984  0.21384052  1  -1.224049  0.065084  -0.314778  -0.560472  0.044634  2.375099  0.026
O  O108  1  0.57396196  0.71475583  0.78608092  1  -1.223199  -0.072935  -0.315165  -0.561526  -0.049701  2.374609  -0.032
