# generated using pymatgen
data_YH12(C5O3)3
_symmetry_space_group_name_H-M   'P 1'
_cell_length_a   10.01257180
_cell_length_b   12.17475098
_cell_length_c   13.78700000
_cell_angle_alpha   105.39195270
_cell_angle_beta   90.00000000
_cell_angle_gamma   90.00000000
_symmetry_Int_Tables_number   1
_chemical_formula_structural   YH12(C5O3)3
_chemical_formula_sum   'Y4 H48 C60 O36'
_cell_volume   1620.36299194
_cell_formula_units_Z   4
loop_
 _symmetry_equiv_pos_site_id
 _symmetry_equiv_pos_as_xyz
  1  'x, y, z'
loop_
 _atom_site_type_symbol
 _atom_site_label
 _atom_site_symmetry_multiplicity
 _atom_site_fract_x
 _atom_site_fract_y
 _atom_site_fract_z
 _atom_site_occupancy
 _atom_site_hle17_bader_spin_density
 _atom_site_hle17_ddec_charge
 _atom_site_hle17_ddec_spin_density
 _atom_site_hle17_ddec_sum_bond_order
 _atom_site_hle17_magmom
 _atom_site_hse06_10hf_bader_spin_density
 _atom_site_hse06_10hf_ddec_charge
 _atom_site_hse06_10hf_ddec_spin_density
 _atom_site_hse06_10hf_ddec_sum_bond_order
 _atom_site_hse06_10hf_magmom
 _atom_site_hse06_bader_spin_density
 _atom_site_hse06_ddec_charge
 _atom_site_hse06_ddec_spin_density
 _atom_site_hse06_ddec_sum_bond_order
 _atom_site_hse06_magmom
 _atom_site_pbe_bader_charge
 _atom_site_pbe_bader_spin_density
 _atom_site_pbe_cm5_charge
 _atom_site_pbe_ddec_charge
 _atom_site_pbe_ddec_spin_density
 _atom_site_pbe_ddec_sum_bond_order
 _atom_site_pbe_magmom
Y  Y0  1  0.21096678  0.94098220  0.42263502  1  0  2.019619  0  1.918445  0  0  1.829066  0  2.415591  0  0  1.89985  0  2.349554  0  2.287658  0  1.299592  1.77861  0  2.460267  0
Y  Y1  1  0.71096619  0.55901753  0.57736539  1  0  2.019636  0  1.918372  0  0  1.829065  0  2.415544  0  0  1.899837  0  2.349528  0  2.287654  0  1.299622  1.778608  0  2.460219  0
Y  Y2  1  0.78903304  0.05901734  0.57736567  1  0  2.0196  0  1.918394  0  0  1.829047  0  2.415514  0  0  1.899825  0  2.349497  0  2.287562  0  1.299608  1.778592  0  2.460186  0
Y  Y3  1  0.28903263  0.44098200  0.42263530  1  0  2.019571  0  1.918487  0  0  1.829008  0  2.415639  0  0  1.899766  0  2.349657  0  2.287563  0  1.299588  1.77855  0  2.460316  0
H  H4  1  0.22799337  0.57399529  0.16558977  1  0  0.113965  0  0.941726  0  0  0.122332  0  1.00456  0  0  0.126389  0  1.000702  0  0.129771  0  0.11065  0.119307  0  1.007547  0
H  H5  1  0.72799278  0.92600700  0.83440979  1  0  0.113939  0  0.941719  0  0  0.122349  0  1.004516  0  0  0.126383  0  1.000676  0  0.129802  0  0.110647  0.119318  0  1.007502  0
H  H6  1  0.77200745  0.42600680  0.83441007  1  0  0.113919  0  0.941742  0  0  0.122311  0  1.004551  0  0  0.126363  0  1.000692  0  0.129809  0  0.110631  0.119283  0  1.007537  0
H  H7  1  0.27200704  0.07399424  0.16558985  1  0  0.113962  0  0.941715  0  0  0.122348  0  1.004532  0  0  0.1264  0  1.000671  0  0.129764  0  0.110646  0.119319  0  1.007518  0
H  H8  1  0.25683611  0.45627752  0.98903382  1  0  0.107966  0  0.975006  0  0  0.116371  0  1.038434  0  0  0.119006  0  1.038976  0  0.085915  0  0.102094  0.114513  0  1.038198  0
H  H9  1  0.75683652  0.04372352  0.01096609  1  0  0.10805  0  0.974942  0  0  0.116458  0  1.038348  0  0  0.119093  0  1.038891  0  0.086037  0  0.102132  0.114599  0  1.038113  0
H  H10  1  0.74316371  0.54372372  0.01096581  1  0  0.108056  0  0.974955  0  0  0.116466  0  1.038355  0  0  0.119101  0  1.038898  0  0.086024  0  0.102135  0.114607  0  1.03812  0
H  H11  1  0.24316430  0.95627687  0.98903334  1  0  0.108051  0  0.974997  0  0  0.116455  0  1.038405  0  0  0.119088  0  1.038948  0  0.086032  0  0.102133  0.114596  0  1.03817  0
H  H12  1  0.41871160  0.74646734  0.90587711  1  0  0.115602  0  0.950023  0  0  0.125267  0  1.009801  0  0  0.128037  0  1.010141  0  0.08287  0  0.106157  0.123218  0  1.009868  0
H  H13  1  0.91871301  0.75353324  0.09412132  1  0  0.115498  0  0.949944  0  0  0.125164  0  1.009741  0  0  0.127931  0  1.010082  0  0.082903  0  0.10611  0.123115  0  1.009808  0
H  H14  1  0.58128921  0.25353304  0.09412160  1  0  0.115541  0  0.949978  0  0  0.125204  0  1.009771  0  0  0.127977  0  1.010107  0  0.082901  0  0.106137  0.123156  0  1.009837  0
H  H15  1  0.08128781  0.24646715  0.90587739  1  0  0.115614  0  0.950008  0  0  0.125276  0  1.009788  0  0  0.128046  0  1.010126  0  0.08287  0  0.106163  0.123228  0  1.009854  0
H  H16  1  0.38637126  0.86578503  0.08368496  1  0  0.097382  0  0.946295  0  0  0.109411  0  1.003965  0  0  0.11249  0  1.001518  0  0.096291  0  0.106253  0.107154  0  1.005796  0
H  H17  1  0.88636867  0.63421640  0.91631439  1  0  0.097346  0  0.946318  0  0  0.109364  0  1.003999  0  0  0.112444  0  1.00155  0  0.096348  0  0.106231  0.107106  0  1.005831  0
H  H18  1  0.61363056  0.13421706  0.91631487  1  0  0.097381  0  0.94632  0  0  0.109407  0  1.003995  0  0  0.112483  0  1.001553  0  0.096353  0  0.106241  0.107149  0  1.005829  0
H  H19  1  0.11363015  0.36578398  0.08368504  1  0  0.097368  0  0.9463  0  0  0.109393  0  1.003976  0  0  0.11247  0  1.001531  0  0.096314  0  0.106244  0.107136  0  1.005808  0
H  H20  1  0.47978183  0.34124419  0.79562320  1  0  0.115872  0  0.967427  0  0  0.125118  0  1.028135  0  0  0.127733  0  1.028102  0  0.122873  0  0.10743  0.123156  0  1.028442  0
H  H21  1  0.97978224  0.15875686  0.20437672  1  0  0.115858  0  0.967464  0  0  0.125104  0  1.028173  0  0  0.127719  0  1.02814  0  0.122863  0  0.107422  0.123141  0  1.02848  0
H  H22  1  0.52021799  0.65875705  0.20437644  1  0  0.115861  0  0.967462  0  0  0.12511  0  1.028168  0  0  0.127724  0  1.028135  0  0.122816  0  0.107424  0.123148  0  1.028474  0
H  H23  1  0.02021858  0.84124182  0.79562377  1  0  0.11586  0  0.967441  0  0  0.125107  0  1.028144  0  0  0.12772  0  1.028114  0  0.122819  0  0.107413  0.123143  0  1.02845  0
H  H24  1  0.37553289  0.15463267  0.70195799  1  0  0.104541  0  0.941573  0  0  0.114649  0  1.001173  0  0  0.117509  0  0.999421  0  0.073178  0  0.109588  0.112579  0  1.002538  0
H  H25  1  0.87553430  0.34536752  0.29804245  1  0  0.104573  0  0.941513  0  0  0.11467  0  1.00113  0  0  0.117531  0  0.999376  0  0.073158  0  0.109585  0.112601  0  1.002494  0
H  H26  1  0.62446693  0.84536771  0.29804290  1  0  0.104544  0  0.941581  0  0  0.114654  0  1.001183  0  0  0.117513  0  0.999432  0  0.073179  0  0.109592  0.112584  0  1.002547  0
H  H27  1  0.12446752  0.65463116  0.70195731  1  0  0.104544  0  0.941587  0  0  0.11467  0  1.001171  0  0  0.117531  0  0.999419  0  0.073245  0  0.109586  0.1126  0  1.002537  0
H  H28  1  0.99510697  0.32132780  0.71000063  1  0  0.119844  0  0.942545  0  0  0.126357  0  1.006067  0  0  0.13005  0  1.003447  0  0.150104  0  0.114042  0.123759  0  1.007938  0
H  H29  1  0.49510756  0.17867239  0.28999909  1  0  0.119829  0  0.942565  0  0  0.126352  0  1.006077  0  0  0.130046  0  1.003455  0  0.150122  0  0.114031  0.123752  0  1.007949  0
H  H30  1  0.00489285  0.67867173  0.28999934  1  0  0.119844  0  0.942539  0  0  0.126355  0  1.006062  0  0  0.130048  0  1.003442  0  0.150113  0  0.114051  0.123757  0  1.007933  0
H  H31  1  0.50489426  0.82132715  0.71000087  1  0  0.119827  0  0.942522  0  0  0.126331  0  1.006058  0  0  0.130024  0  1.003438  0  0.150097  0  0.114043  0.123733  0  1.00793  0
H  H32  1  0.09953686  0.50731996  0.80051276  1  0  0.117656  0  0.936049  0  0  0.129785  0  0.99257  0  0  0.132892  0  0.991529  0  0.068589  0  0.11146  0.127512  0  0.993521  0
H  H33  1  0.59953827  0.99268062  0.19948639  1  0  0.117665  0  0.936061  0  0  0.129813  0  0.992561  0  0  0.132922  0  0.991517  0  0.068596  0  0.111468  0.127541  0  0.993512  0
H  H34  1  0.90046196  0.49267957  0.19948575  1  0  0.117651  0  0.936058  0  0  0.129782  0  0.992574  0  0  0.13289  0  0.991532  0  0.068589  0  0.111452  0.127509  0  0.993525  0
H  H35  1  0.40046155  0.00731892  0.80051139  1  0  0.11768  0  0.936057  0  0  0.129826  0  0.992558  0  0  0.132935  0  0.991515  0  0.068603  0  0.11147  0.127554  0  0.99351  0
H  H36  1  0.12637113  0.72640273  0.48348011  1  0  0.440445  0  0.849192  0  0  0.407658  0  0.918896  0  0  0.419452  0  0.901785  0  0.656412  0  0.30996  0.399255  0  0.931104  0
H  H37  1  0.62637154  0.77359871  0.51651997  1  0  0.440423  0  0.849214  0  0  0.40762  0  0.918953  0  0  0.419417  0  0.901839  0  0.656393  0  0.309948  0.399216  0  0.931162  0
H  H38  1  0.87362769  0.27359766  0.51652005  1  0  0.440442  0  0.849202  0  0  0.407645  0  0.918922  0  0  0.41944  0  0.901808  0  0.656409  0  0.309955  0.399242  0  0.931131  0
H  H39  1  0.37362828  0.22640083  0.48348144  1  0  0.440427  0  0.849219  0  0  0.40763  0  0.918943  0  0  0.419427  0  0.901829  0  0.656404  0  0.309937  0.399226  0  0.931151  0
H  H40  1  0.20122403  0.81044291  0.57348447  1  0  0.422838  0  0.839302  0  0  0.396801  0  0.908072  0  0  0.404041  0  0.901496  0  0.611095  0  0.318989  0.391725  0  0.912647  0
H  H41  1  0.70122344  0.68955682  0.42651594  1  0  0.422783  0  0.839356  0  0  0.396756  0  0.908102  0  0  0.403994  0  0.901531  0  0.611102  0  0.318978  0.391679  0  0.912676  0
H  H42  1  0.79877679  0.18955748  0.42651570  1  0  0.422839  0  0.839325  0  0  0.3968  0  0.908098  0  0  0.40404  0  0.90152  0  0.611092  0  0.318995  0.391723  0  0.912672  0
H  H43  1  0.29877638  0.31044357  0.57348495  1  0  0.422764  0  0.839369  0  0  0.396732  0  0.908129  0  0  0.403971  0  0.901555  0  0.611095  0  0.318961  0.391656  0  0.912702  0
H  H44  1  0.16367323  0.16008757  0.36098440  1  0  0.452875  0  0.837508  0  0  0.420933  0  0.901597  0  0  0.432225  0  0.885125  0  0.657902  0  0.308824  0.412924  0  0.913263  0
H  H45  1  0.66367364  0.33991177  0.63901584  1  0  0.452951  0  0.837407  0  0  0.421019  0  0.901502  0  0  0.432314  0  0.885021  0  0.657891  0  0.308846  0.41301  0  0.913169  0
H  H46  1  0.83632559  0.83991196  0.63901629  1  0  0.452949  0  0.837407  0  0  0.421016  0  0.901503  0  0  0.432311  0  0.885023  0  0.65788  0  0.30885  0.413007  0  0.913171  0
H  H47  1  0.33632718  0.66008691  0.36098465  1  0  0.452964  0  0.837388  0  0  0.421035  0  0.901474  0  0  0.43233  0  0.884996  0  0.657903  0  0.308864  0.413027  0  0.91314  0
H  H48  1  0.03051364  0.13979890  0.41877352  1  0  0.442511  0  0.844627  0  0  0.410967  0  0.908915  0  0  0.422063  0  0.892614  0  0.650336  0  0.308539  0.40301  0  0.920605  0
H  H49  1  0.53051505  0.36020045  0.58122673  1  0  0.442458  0  0.844693  0  0  0.410909  0  0.908994  0  0  0.422007  0  0.89269  0  0.650339  0  0.308506  0.402951  0  0.920685  0
H  H50  1  0.96948418  0.86020149  0.58122665  1  0  0.442432  0  0.844732  0  0  0.410911  0  0.908997  0  0  0.421994  0  0.892707  0  0.650391  0  0.30851  0.402953  0  0.920688  0
H  H51  1  0.46948477  0.63979909  0.41877396  1  0  0.442518  0  0.84462  0  0  0.410977  0  0.908903  0  0  0.422074  0  0.892601  0  0.65038  0  0.308546  0.40302  0  0.920593  0
C  C52  1  0.28385215  0.79994545  0.23862904  1  0  0.636732  0  3.91972  0  0  0.589648  0  4.20986  0  0  0.624242  0  4.203651  0  1.508362  0  0.199945  0.566262  0  4.21313  0
C  C53  1  0.78385056  0.70005514  0.76137012  1  0  0.636612  0  3.919778  0  0  0.589508  0  4.209954  0  0  0.624102  0  4.203745  0  1.508372  0  0.199917  0.566121  0  4.213223  0
C  C54  1  0.71614967  0.20005494  0.76136968  1  0  0.636644  0  3.919727  0  0  0.589522  0  4.209909  0  0  0.624117  0  4.2037  0  1.508571  0  0.199924  0.566137  0  4.213177  0
C  C55  1  0.21614826  0.29994525  0.23862932  1  0  0.636638  0  3.919821  0  0  0.589545  0  4.209978  0  0  0.62414  0  4.203766  0  1.508366  0  0.199916  0.566159  0  4.213246  0
C  C56  1  0.30289421  0.72814066  0.13486373  1  0  -0.10449  0  3.80615  0  0  -0.086072  0  4.047104  0  0  -0.096866  0  4.070496  0  -0.023206  0  -0.032527  -0.079048  0  4.031317  0
C  C57  1  0.80289262  0.77186077  0.86513562  1  0  -0.104536  0  3.806175  0  0  -0.086137  0  4.04718  0  0  -0.096929  0  4.070566  0  -0.023241  0  -0.03259  -0.079111  0  4.031391  0
C  C58  1  0.69710761  0.27186228  0.86513703  1  0  -0.104513  0  3.806187  0  0  -0.086048  0  4.047096  0  0  -0.096839  0  4.070487  0  -0.023328  0  -0.032558  -0.079023  0  4.031307  0
C  C59  1  0.19710620  0.22813961  0.13486382  1  0  -0.104484  0  3.806223  0  0  -0.086079  0  4.047197  0  0  -0.096872  0  4.070588  0  -0.023188  0  -0.032553  -0.079055  0  4.031409  0
C  C60  1  0.26724902  0.61243771  0.10839198  1  0  -0.033741  0  3.727341  0  0  -0.058702  0  3.977412  0  0  -0.054502  0  3.994491  0  -0.025692  0  -0.07757  -0.061117  0  3.965874  0
C  C61  1  0.76724943  0.88756458  0.89160830  1  0  -0.033654  0  3.727273  0  0  -0.058644  0  3.977336  0  0  -0.054421  0  3.994424  0  -0.025738  0  -0.077541  -0.061053  0  3.965792  0
C  C62  1  0.73275080  0.38756439  0.89160859  1  0  -0.033694  0  3.727423  0  0  -0.058686  0  3.977475  0  0  -0.05448  0  3.994559  0  -0.025628  0  -0.077564  -0.061097  0  3.965932  0
C  C63  1  0.23275039  0.11243751  0.10839226  1  0  -0.033747  0  3.727416  0  0  -0.058726  0  3.977486  0  0  -0.054517  0  3.99457  0  -0.025699  0  -0.077569  -0.061136  0  3.965944  0
C  C64  1  0.28337075  0.54627950  0.00991474  1  0  -0.211534  0  3.764778  0  0  -0.228935  0  4.014153  0  0  -0.237184  0  4.035129  0  -0.056513  0  -0.108565  -0.223647  0  4.000073  0
C  C65  1  0.78337316  0.95372193  0.99008389  1  0  -0.211665  0  3.764814  0  0  -0.229059  0  4.014195  0  0  -0.237308  0  4.035159  0  -0.056701  0  -0.108587  -0.223771  0  4.000114  0
C  C66  1  0.71662907  0.45372259  0.99008437  1  0  -0.211613  0  3.764863  0  0  -0.229002  0  4.014234  0  0  -0.237249  0  4.035201  0  -0.056716  0  -0.108571  -0.223714  0  4.000153  0
C  C67  1  0.21662866  0.04627846  0.00991482  1  0  -0.211603  0  3.764813  0  0  -0.228989  0  4.01419  0  0  -0.237237  0  4.035159  0  -0.056666  0  -0.10857  -0.223702  0  4.00011  0
C  C68  1  0.33691544  0.59625959  0.93790757  1  0  0.301937  0  3.782944  0  0  0.289934  0  4.044173  0  0  0.303295  0  4.058549  0  0.408153  0  0.096607  0.280919  0  4.034277  0
C  C69  1  0.83691784  0.90374100  0.06209086  1  0  0.30198  0  3.78295  0  0  0.289942  0  4.044211  0  0  0.303321  0  4.058584  0  0.408183  0  0.096595  0.280926  0  4.034315  0
C  C70  1  0.66308338  0.40374165  0.06209134  1  0  0.301856  0  3.782993  0  0  0.289814  0  4.044267  0  0  0.303204  0  4.05864  0  0.408193  0  0.096558  0.280799  0  4.03437  0
C  C71  1  0.16308298  0.09625939  0.93790785  1  0  0.30195  0  3.782984  0  0  0.289904  0  4.044247  0  0  0.303275  0  4.058621  0  0.408175  0  0.09657  0.280888  0  4.034352  0
C  C72  1  0.37580554  0.71099816  0.96360930  1  0  -0.182671  0  3.741322  0  0  -0.203409  0  3.995003  0  0  -0.210437  0  4.014727  0  0.037187  0  -0.100426  -0.198932  0  3.981937  0
C  C73  1  0.87580795  0.78900328  0.03638933  1  0  -0.182525  0  3.74112  0  0  -0.203257  0  3.994796  0  0  -0.210278  0  4.014515  0  0.03721  0  -0.100354  -0.198781  0  3.981729  0
C  C74  1  0.62419527  0.28900308  0.03638961  1  0  -0.182545  0  3.741204  0  0  -0.203278  0  3.994891  0  0  -0.210302  0  4.014603  0  0.037228  0  -0.1004  -0.198801  0  3.981824  0
C  C75  1  0.12419387  0.21099711  0.96360939  1  0  -0.182661  0  3.741269  0  0  -0.203385  0  3.99495  0  0  -0.210412  0  4.014668  0  0.037207  0  -0.100406  -0.198908  0  3.981882  0
C  C76  1  0.35772627  0.77620476  0.06163358  1  0  -0.041543  0  3.75602  0  0  -0.064671  0  4.003353  0  0  -0.061192  0  4.022022  0  -0.074878  0  -0.079453  -0.066636  0  3.990686  0
C  C77  1  0.85772568  0.72379668  0.93836506  1  0  -0.041496  0  3.75607  0  0  -0.064608  0  4.003392  0  0  -0.061129  0  4.022059  0  -0.074905  0  -0.079433  -0.066573  0  3.990725  0
C  C78  1  0.64227455  0.22379648  0.93836534  1  0  -0.041522  0  3.756042  0  0  -0.064664  0  4.003358  0  0  -0.061184  0  4.022031  0  -0.074941  0  -0.07941  -0.066629  0  3.990692  0
C  C79  1  0.14227414  0.27620371  0.06163366  1  0  -0.041533  0  3.75594  0  0  -0.064654  0  4.003264  0  0  -0.061173  0  4.021933  0  -0.074904  0  -0.079453  -0.066618  0  3.990597  0
C  C80  1  0.29551149  0.43287164  0.80125298  1  0  0.280814  0  3.778518  0  0  0.270854  0  4.041195  0  0  0.281923  0  4.05672  0  0.409885  0  0.090933  0.263317  0  4.030502  0
C  C81  1  0.79551290  0.06712855  0.19874674  1  0  0.280887  0  3.778626  0  0  0.270909  0  4.041308  0  0  0.281996  0  4.056831  0  0.409631  0  0.090948  0.263371  0  4.030615  0
C  C82  1  0.70448633  0.56712789  0.19874698  1  0  0.280947  0  3.778577  0  0  0.270979  0  4.041245  0  0  0.28208  0  4.056762  0  0.409614  0  0.09099  0.26344  0  4.030553  0
C  C83  1  0.20448792  0.93287098  0.80125323  1  0  0.280916  0  3.778618  0  0  0.270934  0  4.041299  0  0  0.282012  0  4.056823  0  0.409622  0  0.090969  0.263397  0  4.030606  0
C  C84  1  0.37413065  0.33482917  0.77635144  1  0  -0.171531  0  3.733644  0  0  -0.191469  0  3.983313  0  0  -0.196936  0  4.002616  0  -0.008517  0  -0.094816  -0.187798  0  3.97032  0
C  C85  1  0.87413106  0.16517103  0.22364828  1  0  -0.171531  0  3.733714  0  0  -0.191466  0  3.983384  0  0  -0.19693  0  4.002681  0  -0.008277  0  -0.094802  -0.187797  0  3.970394  0
C  C86  1  0.62586917  0.66516952  0.22364832  1  0  -0.171557  0  3.733752  0  0  -0.191499  0  3.983431  0  0  -0.196963  0  4.002723  0  -0.007928  0  -0.094821  -0.187829  0  3.970439  0
C  C87  1  0.12586976  0.83482851  0.77635241  1  0  -0.171542  0  3.733667  0  0  -0.191476  0  3.983348  0  0  -0.196942  0  4.00265  0  -0.008371  0  -0.094816  -0.1878  0  3.970346  0
C  C88  1  0.31592882  0.23205167  0.72501769  1  0  -0.054808  0  3.751281  0  0  -0.079175  0  4.004383  0  0  -0.076926  0  4.022943  0  -0.080675  0  -0.080738  -0.080404  0  3.991676  0
C  C89  1  0.81593023  0.26794938  0.27498222  1  0  -0.054847  0  3.751256  0  0  -0.079211  0  4.004353  0  0  -0.076964  0  4.022915  0  -0.080628  0  -0.080769  -0.08044  0  3.991646  0
C  C90  1  0.68407100  0.76794787  0.27498299  1  0  -0.054806  0  3.751285  0  0  -0.079192  0  4.004384  0  0  -0.076943  0  4.022948  0  -0.080973  0  -0.080737  -0.08042  0  3.991677  0
C  C91  1  0.18407159  0.73205016  0.72501774  1  0  -0.054887  0  3.751354  0  0  -0.079275  0  4.004457  0  0  -0.077027  0  4.023022  0  -0.080552  0  -0.080774  -0.080503  0  3.99175  0
C  C92  1  0.17987486  0.22720420  0.69992491  1  0  -0.104987  0  3.772631  0  0  -0.087188  0  4.015235  0  0  -0.095882  0  4.035233  0  -0.030353  0  -0.022776  -0.081626  0  4.00179  0
C  C93  1  0.67987527  0.27279515  0.30007461  1  0  -0.105028  0  3.772718  0  0  -0.087207  0  4.015303  0  0  -0.095901  0  4.035304  0  -0.030426  0  -0.022753  -0.081644  0  4.001857  0
C  C94  1  0.82012595  0.77279534  0.30007651  1  0  -0.105063  0  3.772679  0  0  -0.087228  0  4.015227  0  0  -0.095924  0  4.03523  0  -0.030337  0  -0.022799  -0.081665  0  4.001782  0
C  C95  1  0.32012554  0.72720269  0.69992568  1  0  -0.104989  0  3.772643  0  0  -0.087182  0  4.015235  0  0  -0.095876  0  4.035237  0  -0.03039  0  -0.02276  -0.08162  0  4.001789  0
C  C96  1  0.10089316  0.32592311  0.72966548  1  0  -0.042397  0  3.708666  0  0  -0.065186  0  3.959354  0  0  -0.062581  0  3.977047  0  -0.010116  0  -0.074045  -0.066579  0  3.947169  0
C  C97  1  0.60089357  0.17407709  0.27033424  1  0  -0.042329  0  3.708741  0  0  -0.065127  0  3.959409  0  0  -0.062524  0  3.977103  0  -0.010117  0  -0.074033  -0.066518  0  3.947216  0
C  C98  1  0.89910666  0.67407643  0.27033448  1  0  -0.042338  0  3.708676  0  0  -0.065137  0  3.95935  0  0  -0.062533  0  3.977047  0  -0.010113  0  -0.074053  -0.066528  0  3.947158  0
C  C99  1  0.39910725  0.82592330  0.72966665  1  0  -0.042313  0  3.708574  0  0  -0.065096  0  3.959269  0  0  -0.062493  0  3.976965  0  -0.01012  0  -0.074036  -0.066489  0  3.947082  0
C  C100  1  0.15869949  0.42935999  0.78014559  1  0  -0.176191  0  3.730411  0  0  -0.197881  0  3.985118  0  0  -0.204021  0  4.00482  0  -0.027024  0  -0.092296  -0.193833  0  3.971887  0
C  C101  1  0.65869990  0.07063935  0.21985466  1  0  -0.176195  0  3.73042  0  0  -0.1979  0  3.985127  0  0  -0.20404  0  4.004826  0  -0.027062  0  -0.092284  -0.193852  0  3.971895  0
C  C102  1  0.84130033  0.57063954  0.21985438  1  0  -0.176237  0  3.73041  0  0  -0.197928  0  3.985117  0  0  -0.204066  0  4.004812  0  -0.027058  0  -0.092286  -0.193879  0  3.971887  0
C  C103  1  0.34129992  0.92936019  0.78014531  1  0  -0.176263  0  3.730472  0  0  -0.197967  0  3.985179  0  0  -0.204108  0  4.00488  0  -0.027098  0  -0.092308  -0.19392  0  3.97195  0
C  C104  1  0.12194869  0.11992000  0.63492516  1  0  0.726472  0  3.863355  0  0  0.671475  0  4.160784  0  0  0.709713  0  4.147341  0  1.57525  0  0.240396  0.645365  0  4.16935  0
C  C105  1  0.62195010  0.38008105  0.36507548  1  0  0.726443  0  3.863232  0  0  0.671409  0  4.160719  0  0  0.709646  0  4.147273  0  1.575876  0  0.240359  0.645299  0  4.169285  0
C  C106  1  0.87804714  0.88008124  0.36507665  1  0  0.726593  0  3.863304  0  0  0.671591  0  4.16072  0  0  0.709831  0  4.147274  0  1.575839  0  0.240432  0.645482  0  4.169287  0
C  C107  1  0.37804972  0.61991849  0.63492521  1  0  0.726359  0  3.863255  0  0  0.671355  0  4.160703  0  0  0.709593  0  4.147261  0  1.575851  0  0.240382  0.645246  0  4.169266  0
C  C108  1  0.50375868  0.94071639  0.51073839  1  0  0.555078  0  3.906845  0  0  0.506797  0  4.205955  0  0  0.537389  0  4.197534  0  1.608718  0  0.226426  0.48592  0  4.211593  0
C  C109  1  0.00374929  0.55928334  0.48926130  1  0  0.555072  0  3.906683  0  0  0.506796  0  4.205798  0  0  0.537386  0  4.197376  0  1.608881  0  0.226414  0.485918  0  4.211442  0
C  C110  1  0.49625312  0.05928399  0.48926686  1  0  0.555143  0  3.90669  0  0  0.506873  0  4.205786  0  0  0.53746  0  4.197361  0  1.585802  0  0.226454  0.485995  0  4.211428  0
C  C111  1  0.99624554  0.44071705  0.51073742  1  0  0.555076  0  3.906816  0  0  0.506799  0  4.205922  0  0  0.537386  0  4.197496  0  1.585586  0  0.226362  0.485921  0  4.211564  0
O  O112  1  0.29719937  0.90836186  0.25809884  1  0  -0.662942  0  1.909147  0  0  -0.609498  0  2.138265  0  0  -0.636592  0  2.128994  0  -1.200026  0  -0.368437  -0.590718  0  2.143976  0
O  O113  1  0.79719578  0.59163873  0.74190177  1  0  -0.662914  0  1.909114  0  0  -0.609455  0  2.138233  0  0  -0.636547  0  2.128964  0  -1.200001  0  -0.368458  -0.590674  0  2.143942  0
O  O114  1  0.70280445  0.09163938  0.74190225  1  0  -0.662875  0  1.909094  0  0  -0.609414  0  2.138219  0  0  -0.636505  0  2.128945  0  -1.200164  0  -0.368431  -0.590632  0  2.14392  0
O  O115  1  0.20280004  0.40836081  0.25809892  1  0  -0.662892  0  1.909209  0  0  -0.609442  0  2.138325  0  0  -0.636531  0  2.129055  0  -1.200007  0  -0.368421  -0.590665  0  2.144039  0
O  O116  1  0.25137098  0.75422500  0.30971466  1  0  -0.696418  0  2.01946  0  0  -0.632269  0  2.252785  0  0  -0.659798  0  2.242229  0  -1.203816  0  -0.354421  -0.612894  0  2.259067  0
O  O117  1  0.75137039  0.74577558  0.69028449  1  0  -0.696362  0  2.019517  0  0  -0.632203  0  2.252857  0  0  -0.659742  0  2.24232  0  -1.203865  0  -0.354388  -0.612828  0  2.259137  0
O  O118  1  0.74863084  0.24577624  0.69028425  1  0  -0.696392  0  2.019507  0  0  -0.632253  0  2.252867  0  0  -0.659787  0  2.242324  0  -1.203877  0  -0.354407  -0.612879  0  2.259149  0
O  O119  1  0.24863143  0.25422481  0.30971494  1  0  -0.69636  0  2.019467  0  0  -0.6322  0  2.25278  0  0  -0.659733  0  2.242247  0  -1.203832  0  -0.354395  -0.612825  0  2.259061  0
O  O120  1  0.35950803  0.53649766  0.83995686  1  0  -0.287137  0  2.343251  0  0  -0.21894  0  2.565167  0  0  -0.237227  0  2.566699  0  -1.100093  0  -0.144519  -0.205782  0  2.563502  0
O  O121  1  0.85951044  0.96350292  0.16004303  1  0  -0.287216  0  2.343349  0  0  -0.218989  0  2.565256  0  0  -0.237326  0  2.56682  0  -1.10008  0  -0.144505  -0.205831  0  2.563593  0
O  O122  1  0.64049079  0.46350358  0.16004351  1  0  -0.287159  0  2.343254  0  0  -0.218938  0  2.565167  0  0  -0.237299  0  2.566744  0  -1.100098  0  -0.14452  -0.205779  0  2.563502  0
O  O123  1  0.14049138  0.03649661  0.83995621  1  0  -0.287188  0  2.343338  0  0  -0.218951  0  2.565241  0  0  -0.23726  0  2.566786  0  -1.100086  0  -0.144514  -0.205794  0  2.563578  0
O  O124  1  0.99616664  0.11364981  0.62441514  1  0  -0.707522  0  2.07048  0  0  -0.640111  0  2.330552  0  0  -0.670854  0  2.317557  0  -1.209032  0  -0.390435  -0.618701  0  2.33872  0
O  O125  1  0.49616323  0.38634954  0.37558511  1  0  -0.707453  0  2.070277  0  0  -0.640035  0  2.330369  0  0  -0.670773  0  2.317378  0  -1.209038  0  -0.390396  -0.618623  0  2.338536  0
O  O126  1  0.00383618  0.88634973  0.37558773  1  0  -0.707586  0  2.070309  0  0  -0.640165  0  2.330373  0  0  -0.670913  0  2.31738  0  -1.209004  0  -0.390442  -0.618755  0  2.338543  0
O  O127  1  0.50383559  0.61364830  0.62441663  1  0  -0.707449  0  2.070215  0  0  -0.64004  0  2.330298  0  0  -0.670781  0  2.317307  0  -1.209047  0  -0.390426  -0.61863  0  2.338466  0
O  O128  1  0.20200005  0.04197877  0.58952938  1  0  -0.710696  0  2.028838  0  0  -0.650369  0  2.284551  0  0  -0.680355  0  2.274786  0  -1.226225  0  -0.380275  -0.629324  0  2.290529  0
O  O129  1  0.70199846  0.45802057  0.41047014  1  0  -0.710744  0  2.028871  0  0  -0.650403  0  2.284613  0  0  -0.680391  0  2.274859  0  -1.226716  0  -0.380296  -0.629357  0  2.29059  0
O  O130  1  0.79800177  0.95801991  0.41046966  1  0  -0.710751  0  2.02893  0  0  -0.650433  0  2.284656  0  0  -0.680407  0  2.274875  0  -1.226755  0  -0.380289  -0.629388  0  2.290637  0
O  O131  1  0.29800136  0.54197897  0.58952982  1  0  -0.710642  0  2.02887  0  0  -0.650312  0  2.28458  0  0  -0.680295  0  2.274828  0  -1.226744  0  -0.380289  -0.629267  0  2.290559  0
O  O132  1  0.40643404  0.87408281  0.48297442  1  0  -0.62652  0  2.065937  0  0  -0.574477  0  2.314684  0  0  -0.600569  0  2.306771  0  -1.193173  0  -0.347451  -0.556585  0  2.319707  0
O  O133  1  0.90643545  0.62591521  0.51702269  1  0  -0.626468  0  2.066002  0  0  -0.574419  0  2.314759  0  0  -0.600506  0  2.306846  0  -1.193508  0  -0.347411  -0.556531  0  2.319785  0
O  O134  1  0.59355779  0.12591246  0.51702817  1  0  -0.626448  0  2.066362  0  0  -0.574392  0  2.31508  0  0  -0.600496  0  2.307213  0  -1.19351  0  -0.347397  -0.556506  0  2.320106  0
O  O135  1  0.09356138  0.37408603  0.48297405  1  0  -0.626487  0  2.066178  0  0  -0.574415  0  2.314881  0  0  -0.600519  0  2.307015  0  -1.193341  0  -0.347384  -0.556523  0  2.319906  0
O  O136  1  0.60874070  0.91890021  0.55402935  1  0  -0.627253  0  2.076879  0  0  -0.564199  0  2.30937  0  0  -0.591872  0  2.301206  0  -1.188195  0  -0.320546  -0.545028  0  2.314677  0
O  O137  1  0.10874229  0.58109952  0.44596888  1  0  -0.627274  0  2.076555  0  0  -0.564246  0  2.309056  0  0  -0.591913  0  2.30089  0  -1.188003  0  -0.320562  -0.545073  0  2.314364  0
O  O138  1  0.39125512  0.08109933  0.44596916  1  0  -0.627342  0  2.076281  0  0  -0.564311  0  2.308774  0  0  -0.59198  0  2.300606  0  -1.188078  0  -0.320604  -0.545137  0  2.314082  0
O  O139  1  0.89125653  0.41890257  0.55403168  1  0  -0.62728  0  2.076577  0  0  -0.564247  0  2.309081  0  0  -0.591907  0  2.300907  0  -1.188065  0  -0.320543  -0.545076  0  2.314393  0
O  O140  1  0.13717155  0.80911731  0.51971834  1  0  -0.842439  0  1.917494  0  0  -0.7814  0  2.116302  0  0  -0.803094  0  2.088981  0  -1.250571  0  -0.577923  -0.765993  0  2.135198  0
O  O141  1  0.63717096  0.69088157  0.48028187  1  0  -0.842383  0  1.917546  0  0  -0.781322  0  2.116342  0  0  -0.803015  0  2.08903  0  -1.250551  0  -0.577902  -0.765915  0  2.135236  0
O  O142  1  0.86282727  0.19088308  0.48028182  1  0  -0.842459  0  1.917533  0  0  -0.781406  0  2.11633  0  0  -0.803097  0  2.089014  0  -1.250525  0  -0.577931  -0.766  0  2.135225  0
O  O143  1  0.36282886  0.30911711  0.51971790  1  0  -0.842372  0  1.917569  0  0  -0.781323  0  2.116367  0  0  -0.803013  0  2.089053  0  -1.25053  0  -0.577882  -0.765916  0  2.13526  0
O  O144  1  0.11664336  0.10561442  0.39163964  1  0  -0.887345  0  1.837499  0  0  -0.829489  0  2.032632  0  0  -0.851425  0  1.998027  0  -1.300886  0  -0.620697  -0.813875  0  2.056733  0
O  O145  1  0.61664477  0.39438492  0.60835988  1  0  -0.887364  0  1.837466  0  0  -0.82951  0  2.032515  0  0  -0.851446  0  1.997909  0  -1.300867  0  -0.620676  -0.813897  0  2.056614  0
O  O146  1  0.88335546  0.89438512  0.60836032  1  0  -0.887314  0  1.837493  0  0  -0.829493  0  2.032505  0  0  -0.851412  0  1.997941  0  -1.300884  0  -0.620673  -0.813881  0  2.056605  0
O  O147  1  0.38335605  0.60561546  0.39164028  1  0  -0.88742  0  1.837395  0  0  -0.829577  0  2.032453  0  0  -0.851511  0  1.997849  0  -1.300897  0  -0.620732  -0.813966  0  2.056552  0
