# generated using pymatgen
data_CdH11C20N5O4
_symmetry_space_group_name_H-M   'P 1'
_cell_length_a   9.68124328
_cell_length_b   10.07056187
_cell_length_c   11.38020436
_cell_angle_alpha   109.53026740
_cell_angle_beta   100.09146313
_cell_angle_gamma   108.65007533
_symmetry_Int_Tables_number   1
_chemical_formula_structural   CdH11C20N5O4
_chemical_formula_sum   'Cd2 H22 C40 N10 O8'
_cell_volume   940.02545091
_cell_formula_units_Z   2
loop_
 _symmetry_equiv_pos_site_id
 _symmetry_equiv_pos_as_xyz
  1  'x, y, z'
loop_
 _atom_site_type_symbol
 _atom_site_label
 _atom_site_symmetry_multiplicity
 _atom_site_fract_x
 _atom_site_fract_y
 _atom_site_fract_z
 _atom_site_occupancy
 _atom_site_hle17_bader_spin_density
 _atom_site_hle17_ddec_charge
 _atom_site_hle17_ddec_spin_density
 _atom_site_hle17_ddec_sum_bond_order
 _atom_site_hle17_magmom
 _atom_site_hse06_10hf_bader_spin_density
 _atom_site_hse06_10hf_ddec_charge
 _atom_site_hse06_10hf_ddec_spin_density
 _atom_site_hse06_10hf_ddec_sum_bond_order
 _atom_site_hse06_10hf_magmom
 _atom_site_hse06_bader_spin_density
 _atom_site_hse06_ddec_charge
 _atom_site_hse06_ddec_spin_density
 _atom_site_hse06_ddec_sum_bond_order
 _atom_site_hse06_magmom
 _atom_site_pbe_bader_spin_density
 _atom_site_pbe_cm5_charge
 _atom_site_pbe_ddec_charge
 _atom_site_pbe_ddec_spin_density
 _atom_site_pbe_ddec_sum_bond_order
 _atom_site_pbe_magmom
Cd  Cd0  1  0.83205870  0.69686639  0.60812967  1  0  1.109485  0  1.732197  0  0  0.918907  0  2.18954  0  0  0.972863  0  2.140907  0  0  0.774151  0.878788  0  2.223311  0
Cd  Cd1  1  0.16794652  0.30313419  0.39187398  1  0  1.109495  0  1.732098  0  0  0.918898  0  2.189439  0  0  0.972856  0  2.140804  0  0  0.774171  0.878778  0  2.223213  0
H  H2  1  0.03427717  0.43791195  0.19225385  1  0  0.322243  0  0.912414  0  0  0.302132  0  0.976633  0  0  0.311337  0  0.968557  0  0  0.310633  0.295386  0  0.982714  0
H  H3  1  0.96572334  0.56208745  0.80774527  1  0  0.32226  0  0.912451  0  0  0.302143  0  0.97667  0  0  0.311346  0  0.968597  0  0  0.310623  0.295396  0  0.98275  0
H  H4  1  0.10065393  0.87079322  0.51611111  1  0  0.082413  0  0.961719  0  0  0.086169  0  1.03433  0  0  0.088759  0  1.03203  0  0  0.11441  0.084694  0  1.034998  0
H  H5  1  0.89934553  0.12920618  0.48388786  1  0  0.082417  0  0.961714  0  0  0.086171  0  1.03433  0  0  0.08876  0  1.032034  0  0  0.114418  0.084699  0  1.034997  0
H  H6  1  0.29504235  0.13417870  0.57669322  1  0  0.122109  0  0.982633  0  0  0.124873  0  1.053062  0  0  0.129118  0  1.050239  0  0  0.109736  0.121718  0  1.055485  0
H  H7  1  0.70495605  0.86582069  0.42330471  1  0  0.122078  0  0.982661  0  0  0.124853  0  1.053091  0  0  0.129103  0  1.050249  0  0  0.10972  0.121697  0  1.055515  0
H  H8  1  0.31062369  0.35608190  0.77252065  1  0  0.119188  0  0.910478  0  0  0.129772  0  0.966229  0  0  0.133672  0  0.962583  0  0  0.117043  0.127267  0  0.968275  0
H  H9  1  0.68937471  0.64391749  0.22747728  1  0  0.119186  0  0.910489  0  0  0.129774  0  0.966236  0  0  0.133674  0  0.962591  0  0  0.11704  0.127269  0  0.968282  0
H  H10  1  0.81770092  0.18191180  0.12111067  1  0  0.111227  0  0.927928  0  0  0.124955  0  0.982412  0  0  0.12811  0  0.97989  0  0  0.113892  0.122428  0  0.984312  0
H  H11  1  0.18229689  0.81808875  0.87888753  1  0  0.111241  0  0.927913  0  0  0.124964  0  0.982395  0  0  0.128126  0  0.979874  0  0  0.113901  0.122437  0  0.984294  0
H  H12  1  0.63196178  0.90518988  0.03273136  1  0  0.102915  0  0.948759  0  0  0.117251  0  1.001565  0  0  0.11969  0  1.001628  0  0  0.10969  0.115614  0  1.001168  0
H  H13  1  0.36803874  0.09480952  0.96726863  1  0  0.10292  0  0.948737  0  0  0.117257  0  1.001543  0  0  0.119695  0  1.001605  0  0  0.109698  0.115619  0  1.001145  0
H  H14  1  0.64122922  0.71083793  0.83011757  1  0  0.088873  0  0.919141  0  0  0.101174  0  0.973388  0  0  0.103584  0  0.971648  0  0  0.12171  0.099224  0  0.974644  0
H  H15  1  0.35877070  0.28916262  0.16988180  1  0  0.088877  0  0.919129  0  0  0.101183  0  0.973376  0  0  0.103593  0  0.971637  0  0  0.121713  0.099234  0  0.974632  0
H  H16  1  0.11726925  0.69056485  0.31386695  1  0  0.076797  0  0.948291  0  0  0.084043  0  1.016902  0  0  0.086757  0  1.014553  0  0  0.110074  0.081891  0  1.019145  0
H  H17  1  0.88273293  0.30943341  0.68613381  1  0  0.076761  0  0.948359  0  0  0.084052  0  1.016895  0  0  0.086786  0  1.014524  0  0  0.110069  0.081885  0  1.019179  0
H  H18  1  0.45642276  0.12573824  0.43448334  1  0  0.079974  0  0.945037  0  0  0.087314  0  1.008832  0  0  0.090236  0  1.006447  0  0  0.109479  0.085488  0  1.010069  0
H  H19  1  0.54357505  0.87426231  0.56551485  1  0  0.079936  0  0.945049  0  0  0.087276  0  1.008848  0  0  0.090197  0  1.006465  0  0  0.109458  0.085452  0  1.010077  0
H  H20  1  0.56784491  0.03191834  0.25710519  1  0  0.094834  0  0.943356  0  0  0.108904  0  0.994765  0  0  0.111643  0  0.994847  0  0  0.102739  0.106944  0  0.995145  0
H  H21  1  0.43215230  0.96808335  0.74289238  1  0  0.094852  0  0.943329  0  0  0.108895  0  0.994773  0  0  0.111634  0  0.994856  0  0  0.102719  0.106936  0  0.995151  0
H  H22  1  0.44056993  0.74839584  0.09942914  1  0  0.096241  0  0.949546  0  0  0.105357  0  1.013334  0  0  0.109007  0  1.009985  0  0  0.105182  0.103169  0  1.014764  0
H  H23  1  0.55942951  0.25160355  0.90056894  1  0  0.096238  0  0.94958  0  0  0.105354  0  1.013363  0  0  0.109003  0  1.010015  0  0  0.105191  0.103168  0  1.014793  0
C  C24  1  0.11116938  0.96832158  0.60170341  1  0  0.13596  0  3.716061  0  0  0.10078  0  3.975025  0  0  0.108859  0  3.992791  0  0  0.049602  0.096231  0  3.961924  0
C  C25  1  0.88882843  0.03167896  0.39829478  1  0  0.135912  0  3.716032  0  0  0.100745  0  3.975013  0  0  0.108822  0  3.992782  0  0  0.049599  0.096197  0  3.96191  0
C  C26  1  0.22035182  0.11685917  0.63590734  1  0  -0.114464  0  3.729414  0  0  -0.13106  0  3.992457  0  0  -0.137956  0  4.01316  0  0  -0.081126  -0.126012  0  3.979171  0
C  C27  1  0.77964552  0.88314022  0.36409044  1  0  -0.114385  0  3.72933  0  0  -0.131025  0  3.992422  0  0  -0.137915  0  4.013128  0  0  -0.081115  -0.125977  0  3.979136  0
C  C28  1  0.22891531  0.23845796  0.74371335  1  0  -0.005603  0  3.63653  0  0  -0.031303  0  3.884459  0  0  -0.027887  0  3.899689  0  0  -0.05184  -0.034476  0  3.874712  0
C  C29  1  0.77108309  0.76154143  0.25628459  1  0  -0.005648  0  3.636571  0  0  -0.03134  0  3.884521  0  0  -0.027926  0  3.899752  0  0  -0.051845  -0.034513  0  3.874776  0
C  C30  1  0.12966268  0.20925150  0.81750865  1  0  -0.0263  0  3.783438  0  0  -0.014224  0  4.018248  0  0  -0.017337  0  4.041955  0  0  0.001435  -0.011757  0  4.003075  0
C  C31  1  0.87033560  0.79075020  0.18248996  1  0  -0.026283  0  3.783446  0  0  -0.014211  0  4.01823  0  0  -0.017327  0  4.041936  0  0  0.00145  -0.011747  0  4.003063  0
C  C32  1  0.13394962  0.32534814  0.93397215  1  0  0.098385  0  3.870022  0  0  0.090412  0  4.134479  0  0  0.092046  0  4.158825  0  0  0.085949  0.08825  0  4.119159  0
C  C33  1  0.86604925  0.67465241  0.06602707  1  0  0.098365  0  3.87008  0  0  0.090375  0  4.134565  0  0  0.092011  0  4.158909  0  0  0.085938  0.088215  0  4.119248  0
C  C34  1  0.03425838  0.28950929  0.00545721  1  0  0.101343  0  3.78919  0  0  0.081475  0  4.049337  0  0  0.083384  0  4.074236  0  0  0.092495  0.079899  0  4.031553  0
C  C35  1  0.96573898  0.71049010  0.99454145  1  0  0.101364  0  3.789092  0  0  0.08149  0  4.049254  0  0  0.083392  0  4.07415  0  0  0.092506  0.07991  0  4.031475  0
C  C36  1  0.81628828  0.09473611  0.03203710  1  0  -0.034565  0  3.672906  0  0  -0.063774  0  3.929355  0  0  -0.060677  0  3.945315  0  0  -0.065597  -0.064701  0  3.917441  0
C  C37  1  0.18371152  0.90526674  0.96796295  1  0  -0.0346  0  3.672903  0  0  -0.063802  0  3.929345  0  0  -0.060717  0  3.945311  0  0  -0.0656  -0.064729  0  3.917431  0
C  C38  1  0.92151923  0.13774417  0.96609640  1  0  -0.026861  0  3.779054  0  0  -0.01454  0  4.018156  0  0  -0.017241  0  4.041988  0  0  0.001014  -0.012308  0  4.001549  0
C  C39  1  0.07847811  0.86225522  0.03390139  1  0  -0.026872  0  3.778965  0  0  -0.014549  0  4.018086  0  0  -0.01724  0  4.041901  0  0  0.000999  -0.012317  0  4.001483  0
C  C40  1  0.71407550  0.94204234  0.98364841  1  0  -0.120301  0  3.754832  0  0  -0.133408  0  4.014198  0  0  -0.139229  0  4.035014  0  0  -0.085159  -0.130505  0  3.999445  0
C  C41  1  0.28592609  0.05795707  0.01635350  1  0  -0.120269  0  3.754906  0  0  -0.133375  0  4.014271  0  0  -0.139195  0  4.03509  0  0  -0.085161  -0.130472  0  3.999517  0
C  C42  1  0.71807988  0.83281142  0.87031468  1  0  0.134101  0  3.720489  0  0  0.098164  0  3.985074  0  0  0.105951  0  4.002289  0  0  0.049882  0.093469  0  3.973018  0
C  C43  1  0.28192063  0.16718799  0.12968443  1  0  0.134078  0  3.720478  0  0  0.098133  0  3.985074  0  0  0.10592  0  4.002287  0  0  0.049859  0.093438  0  3.973016  0
C  C44  1  0.91657136  0.01954945  0.85023074  1  0  0.132518  0  3.745576  0  0  0.126026  0  3.98711  0  0  0.130343  0  4.009958  0  0  0.119443  0.122707  0  3.97213  0
C  C45  1  0.08342706  0.98044995  0.14976896  1  0  0.132519  0  3.745545  0  0  0.125994  0  3.987087  0  0  0.13031  0  4.009927  0  0  0.119409  0.122678  0  3.972102  0
C  C46  1  0.02152497  0.05561407  0.77667960  1  0  0.127041  0  3.764534  0  0  0.114107  0  4.011395  0  0  0.118405  0  4.034786  0  0  0.110626  0.110659  0  3.995916  0
C  C47  1  0.97847390  0.94438647  0.22331962  1  0  0.127055  0  3.764501  0  0  0.114187  0  4.011278  0  0  0.118491  0  4.034656  0  0  0.110639  0.110737  0  3.995804  0
C  C48  1  0.19410153  0.53634489  0.10196131  1  0  0.353521  0  3.748626  0  0  0.319738  0  4.026089  0  0  0.334565  0  4.04094  0  0  0.223065  0.309509  0  4.015647  0
C  C49  1  0.80589948  0.46365568  0.89804085  1  0  0.353536  0  3.748608  0  0  0.319778  0  4.026013  0  0  0.334604  0  4.040862  0  0  0.22308  0.30955  0  4.015569  0
C  C50  1  0.26964064  0.69797476  0.19440462  1  0  -0.049976  0  3.793352  0  0  -0.029904  0  4.031126  0  0  -0.035432  0  4.053272  0  0  -0.003579  -0.025983  0  4.015177  0
C  C51  1  0.73035825  0.30202580  0.80559637  1  0  -0.049952  0  3.793388  0  0  -0.029874  0  4.031153  0  0  -0.035409  0  4.053305  0  0  -0.00356  -0.025954  0  4.015201  0
C  C52  1  0.21755619  0.76219133  0.29806592  1  0  0.093214  0  3.69748  0  0  0.057828  0  3.960543  0  0  0.063959  0  3.976699  0  0  0.044262  0.052278  0  3.951079  0
C  C53  1  0.78244436  0.23780809  0.70193672  1  0  0.093241  0  3.697542  0  0  0.057826  0  3.960601  0  0  0.063948  0  3.976756  0  0  0.044278  0.052269  0  3.951136  0
C  C54  1  0.40616672  0.00448202  0.36510013  1  0  0.120596  0  3.715768  0  0  0.09101  0  3.982103  0  0  0.097124  0  3.999207  0  0  0.039655  0.087196  0  3.971467  0
C  C55  1  0.59383109  0.99551852  0.63489806  1  0  0.120616  0  3.715799  0  0  0.091033  0  3.982126  0  0  0.097144  0  3.999229  0  0  0.039666  0.087222  0  3.971485  0
C  C56  1  0.46714898  0.95187403  0.26538277  1  0  -0.129798  0  3.783399  0  0  -0.140251  0  4.036832  0  0  -0.147637  0  4.06083  0  0  -0.091313  -0.135857  0  4.021469  0
C  C57  1  0.53284940  0.04812536  0.73461340  1  0  -0.129842  0  3.783368  0  0  -0.140279  0  4.036807  0  0  -0.147662  0  4.060799  0  0  -0.091348  -0.135883  0  4.021441  0
C  C58  1  0.39819573  0.79678359  0.17896061  1  0  -0.040748  0  3.713942  0  0  -0.068475  0  3.961004  0  0  -0.066137  0  3.980215  0  0  -0.06646  -0.067577  0  3.946317  0
C  C59  1  0.60180420  0.20321696  0.82103876  1  0  -0.040743  0  3.71395  0  0  -0.068472  0  3.961006  0  0  -0.066132  0  3.980216  0  0  -0.066446  -0.067575  0  3.946321  0
C  C60  1  0.51113856  0.45366334  0.54209205  1  0  0.516914  0  3.952218  0  0  0.476449  0  4.240005  0  0  0.506101  0  4.2346  0  0  0.192901  0.456189  0  4.242726  0
C  C61  1  0.48886207  0.54633376  0.45790640  1  0  0.516614  0  3.952296  0  0  0.476144  0  4.240107  0  0  0.505794  0  4.23471  0  0  0.192833  0.455882  0  4.242827  0
C  C62  1  0.97363388  0.50281339  0.43169972  1  0  0.534023  0  3.922346  0  0  0.491984  0  4.212001  0  0  0.521323  0  4.206126  0  0  0.199572  0.471996  0  4.214909  0
C  C63  1  0.02637328  0.49718145  0.56830777  1  0  0.533853  0  3.922592  0  0  0.491793  0  4.212277  0  0  0.521132  0  4.206404  0  0  0.199407  0.471805  0  4.215181  0
N  N64  1  0.01502412  0.93918588  0.66955775  1  0  -0.368091  0  3.3051  0  0  -0.29235  0  3.573742  0  0  -0.312977  0  3.593581  0  0  -0.334664  -0.278445  0  3.559697  0
N  N65  1  0.98497429  0.06081352  0.33044195  1  0  -0.36806  0  3.305106  0  0  -0.292333  0  3.573718  0  0  -0.312962  0  3.593557  0  0  -0.334645  -0.278426  0  3.559674  0
N  N66  1  0.81632035  0.87116295  0.80648486  1  0  -0.362969  0  3.2657  0  0  -0.298355  0  3.53873  0  0  -0.316509  0  3.557852  0  0  -0.323036  -0.286654  0  3.525326  0
N  N67  1  0.18367807  0.12883645  0.19351484  1  0  -0.362984  0  3.26564  0  0  -0.298362  0  3.538669  0  0  -0.316521  0  3.557794  0  0  -0.323011  -0.28666  0  3.525267  0
N  N68  1  0.23165426  0.47820701  0.99427567  1  0  -0.435717  0  2.929892  0  0  -0.413605  0  3.200516  0  0  -0.427169  0  3.212687  0  0  -0.342427  -0.404847  0  3.192732  0
N  N69  1  0.76834686  0.52179125  0.00572495  1  0  -0.435727  0  2.929959  0  0  -0.413624  0  3.200576  0  0  -0.427184  0  3.212742  0  0  -0.342468  -0.404865  0  3.192793  0
N  N70  1  0.07410326  0.42596085  0.11197285  1  0  -0.362386  0  3.326511  0  0  -0.302714  0  3.561295  0  0  -0.320815  0  3.574816  0  0  -0.369312  -0.289713  0  3.551018  0
N  N71  1  0.92589725  0.57403856  0.88802627  1  0  -0.36241  0  3.326405  0  0  -0.302734  0  3.561175  0  0  -0.320846  0  3.574725  0  0  -0.3693  -0.289729  0  3.5509  0
N  N72  1  0.28331487  0.91146501  0.38137216  1  0  -0.312086  0  3.100168  0  0  -0.271144  0  3.376872  0  0  -0.283183  0  3.393775  0  0  -0.319161  -0.263461  0  3.366634  0
N  N73  1  0.71668610  0.08853555  0.61862736  1  0  -0.312068  0  3.100145  0  0  -0.271124  0  3.376847  0  0  -0.283164  0  3.393758  0  0  -0.319147  -0.263436  0  3.366603  0
O  O74  1  0.64505163  0.49413027  0.61589955  1  0  -0.587253  0  2.040337  0  0  -0.532769  0  2.285087  0  0  -0.558741  0  2.276784  0  0  -0.327352  -0.514009  0  2.2899  0
O  O75  1  0.35495767  0.50587264  0.38410536  1  0  -0.58708  0  2.040643  0  0  -0.53259  0  2.285387  0  0  -0.558558  0  2.277087  0  0  -0.327281  -0.513836  0  2.290213  0
O  O76  1  0.39339203  0.34288083  0.53128909  1  0  -0.584166  0  2.075495  0  0  -0.522036  0  2.324517  0  0  -0.548532  0  2.314757  0  0  -0.313981  -0.502458  0  2.329844  0
O  O77  1  0.60661710  0.65712437  0.46871209  1  0  -0.584077  0  2.075216  0  0  -0.521968  0  2.324252  0  0  -0.548466  0  2.314496  0  0  -0.313991  -0.50239  0  2.329583  0
O  O78  1  0.90644051  0.58929586  0.42361481  1  0  -0.575957  0  2.023598  0  0  -0.521267  0  2.264485  0  0  -0.545942  0  2.25515  0  0  -0.314651  -0.503297  0  2.269978  0
O  O79  1  0.09355753  0.41070239  0.57639153  1  0  -0.575835  0  2.023924  0  0  -0.521134  0  2.264805  0  0  -0.545807  0  2.255477  0  0  -0.314584  -0.503167  0  2.270303  0
O  O80  1  0.00342110  0.41839901  0.33643038  1  0  -0.616643  0  2.079224  0  0  -0.557601  0  2.327679  0  0  -0.583393  0  2.3158  0  0  -0.31897  -0.538885  0  2.335074  0
O  O81  1  0.99658164  0.58160043  0.66357960  1  0  -0.616614  0  2.07908  0  0  -0.557566  0  2.327524  0  0  -0.583353  0  2.315639  0  0  -0.318896  -0.538846  0  2.334917  0
