# generated using pymatgen
data_CdH30C34(NO3)2
_symmetry_space_group_name_H-M   'P 1'
_cell_length_a   9.53493612
_cell_length_b   11.47225789
_cell_length_c   14.89189462
_cell_angle_alpha   89.99823617
_cell_angle_beta   90.00109874
_cell_angle_gamma   112.76564821
_symmetry_Int_Tables_number   1
_chemical_formula_structural   CdH30C34(NO3)2
_chemical_formula_sum   'Cd2 H60 C68 N4 O12'
_cell_volume   1502.07791763
_cell_formula_units_Z   2
loop_
 _symmetry_equiv_pos_site_id
 _symmetry_equiv_pos_as_xyz
  1  'x, y, z'
loop_
 _atom_site_type_symbol
 _atom_site_label
 _atom_site_symmetry_multiplicity
 _atom_site_fract_x
 _atom_site_fract_y
 _atom_site_fract_z
 _atom_site_occupancy
 _atom_site_hle17_bader_spin_density
 _atom_site_hle17_ddec_charge
 _atom_site_hle17_ddec_spin_density
 _atom_site_hle17_ddec_sum_bond_order
 _atom_site_hle17_magmom
 _atom_site_hse06_10hf_bader_spin_density
 _atom_site_hse06_10hf_ddec_charge
 _atom_site_hse06_10hf_ddec_spin_density
 _atom_site_hse06_10hf_ddec_sum_bond_order
 _atom_site_hse06_10hf_magmom
 _atom_site_hse06_bader_spin_density
 _atom_site_hse06_ddec_charge
 _atom_site_hse06_ddec_spin_density
 _atom_site_hse06_ddec_sum_bond_order
 _atom_site_hse06_magmom
 _atom_site_pbe_bader_spin_density
 _atom_site_pbe_cm5_charge
 _atom_site_pbe_ddec_charge
 _atom_site_pbe_ddec_spin_density
 _atom_site_pbe_ddec_sum_bond_order
 _atom_site_pbe_magmom
Cd  Cd0  1  0.49999037  0.99999261  0.99999500  1  0  1.155513  0  1.65862  0  0  0.970119  0  2.104022  0  0  1.024645  0  2.051438  0  0  0.772441  0.930237  0  2.142065  0
Cd  Cd1  1  0.00000327  0.99999365  0.50000244  1  0  1.155579  0  1.658416  0  0  0.970181  0  2.103829  0  0  1.024711  0  2.051239  0  0  0.772456  0.9303  0  2.141865  0
H  H2  1  0.61689381  0.25192616  0.88863730  1  0  0.068059  0  0.962238  0  0  0.074104  0  1.033572  0  0  0.076119  0  1.032371  0  0  0.11156  0.072772  0  1.03423  0
H  H3  1  0.88311715  0.74806261  0.38862753  1  0  0.068094  0  0.96227  0  0  0.07422  0  1.033509  0  0  0.076234  0  1.032307  0  0  0.111575  0.072887  0  1.034166  0
H  H4  1  0.38310297  0.74807077  0.11136620  1  0  0.068094  0  0.962212  0  0  0.074192  0  1.033487  0  0  0.076204  0  1.032291  0  0  0.111591  0.072859  0  1.034145  0
H  H5  1  0.11691028  0.25192793  0.61136052  1  0  0.068039  0  0.962393  0  0  0.074097  0  1.03369  0  0  0.076109  0  1.032492  0  0  0.111516  0.072764  0  1.034349  0
H  H6  1  0.80031453  0.15939404  0.11689758  1  0  0.088577  0  0.949714  0  0  0.098658  0  1.008802  0  0  0.101288  0  1.006285  0  0  0.119874  0.096838  0  1.010566  0
H  H7  1  0.69968000  0.84059216  0.61687832  1  0  0.088488  0  0.949536  0  0  0.098653  0  1.008606  0  0  0.101284  0  1.006089  0  0  0.119828  0.096835  0  1.010369  0
H  H8  1  0.19966147  0.84058955  0.88310592  1  0  0.088447  0  0.949759  0  0  0.098663  0  1.008733  0  0  0.101293  0  1.006216  0  0  0.119833  0.096841  0  1.010493  0
H  H9  1  0.30031704  0.15939158  0.38310705  1  0  0.088484  0  0.94963  0  0  0.098585  0  1.008725  0  0  0.101216  0  1.006209  0  0  0.119855  0.096765  0  1.010484  0
H  H10  1  0.00968904  0.36919607  0.12189824  1  0  0.099313  0  0.963702  0  0  0.110208  0  1.024631  0  0  0.112668  0  1.024747  0  0  0.107319  0.108633  0  1.024436  0
H  H11  1  0.49032382  0.63077586  0.62188087  1  0  0.099278  0  0.963734  0  0  0.110115  0  1.024732  0  0  0.112571  0  1.024856  0  0  0.107362  0.108542  0  1.024534  0
H  H12  1  0.99029235  0.63078096  0.87811399  1  0  0.099159  0  0.963778  0  0  0.110153  0  1.02463  0  0  0.112612  0  1.024747  0  0  0.107339  0.108578  0  1.024437  0
H  H13  1  0.50969510  0.36918918  0.37810853  1  0  0.09947  0  0.963648  0  0  0.110331  0  1.024599  0  0  0.112792  0  1.02471  0  0  0.107363  0.108755  0  1.024405  0
H  H14  1  0.82148804  0.46274906  0.88043900  1  0  0.095587  0  0.985705  0  0  0.10369  0  1.052648  0  0  0.106136  0  1.052904  0  0  0.103077  0.102099  0  1.052404  0
H  H15  1  0.67852740  0.53723628  0.38042966  1  0  0.095492  0  0.985952  0  0  0.103741  0  1.052739  0  0  0.106186  0  1.052998  0  0  0.103051  0.10215  0  1.052494  0
H  H16  1  0.17851185  0.53724318  0.11956718  1  0  0.095598  0  0.98583  0  0  0.103825  0  1.052649  0  0  0.106273  0  1.0529  0  0  0.103091  0.102233  0  1.052408  0
H  H17  1  0.32149730  0.46275519  0.61954698  1  0  0.095627  0  0.985843  0  0  0.103701  0  1.052783  0  0  0.106149  0  1.053038  0  0  0.103064  0.102111  0  1.052541  0
H  H18  1  0.04188596  0.11328606  0.01401258  1  0  0.113769  0  0.930282  0  0  0.130093  0  0.989822  0  0  0.131908  0  0.989526  0  0  0.104689  0.128681  0  0.990395  0
H  H19  1  0.45812429  0.88674440  0.51399278  1  0  0.11365  0  0.93039  0  0  0.129979  0  0.989934  0  0  0.131793  0  0.989641  0  0  0.104654  0.128573  0  0.990501  0
H  H20  1  0.95811554  0.88675331  0.98598353  1  0  0.113653  0  0.930377  0  0  0.129987  0  0.989926  0  0  0.131803  0  0.989633  0  0  0.10465  0.128581  0  0.990495  0
H  H21  1  0.54186582  0.11324024  0.48601542  1  0  0.113659  0  0.930222  0  0  0.129935  0  0.989895  0  0  0.13177  0  0.989612  0  0  0.104622  0.128533  0  0.990458  0
H  H22  1  0.20132081  0.25204617  0.03539001  1  0  0.100907  0  0.941401  0  0  0.115029  0  1.002918  0  0  0.117797  0  1.000463  0  0  0.095533  0.112955  0  1.004853  0
H  H23  1  0.29872116  0.74797431  0.53537687  1  0  0.10078  0  0.941611  0  0  0.114929  0  1.003122  0  0  0.117702  0  1.000662  0  0  0.09555  0.112852  0  1.00506  0
H  H24  1  0.79871550  0.74796611  0.96460946  1  0  0.100809  0  0.941489  0  0  0.114958  0  1.003012  0  0  0.117733  0  1.000551  0  0  0.095549  0.112884  0  1.004949  0
H  H25  1  0.70127886  0.25201134  0.46463066  1  0  0.100762  0  0.941469  0  0  0.11495  0  1.002947  0  0  0.117743  0  1.000499  0  0  0.095555  0.112875  0  1.004885  0
H  H26  1  0.89162738  0.07992966  0.88335496  1  0  0.100377  0  0.943407  0  0  0.112999  0  1.001278  0  0  0.115847  0  1.00021  0  0  0.10064  0.110838  0  1.002383  0
H  H27  1  0.60839831  0.92010087  0.38334104  1  0  0.100418  0  0.943241  0  0  0.112981  0  1.001158  0  0  0.115829  0  1.000077  0  0  0.100612  0.110823  0  1.002258  0
H  H28  1  0.10839421  0.92011927  0.11664451  1  0  0.10036  0  0.943528  0  0  0.112975  0  1.001373  0  0  0.115821  0  1.000291  0  0  0.100587  0.110809  0  1.00247  0
H  H29  1  0.39159396  0.07988849  0.61666917  1  0  0.100405  0  0.943426  0  0  0.113039  0  1.001251  0  0  0.115888  0  1.00017  0  0  0.100666  0.110872  0  1.002358  0
H  H30  1  0.80986102  0.16759375  0.74936441  1  0  0.097359  0  0.975107  0  0  0.109961  0  1.030665  0  0  0.113177  0  1.029055  0  0  0.099207  0.107592  0  1.031993  0
H  H31  1  0.69015477  0.83242363  0.24935292  1  0  0.097634  0  0.974935  0  0  0.11016  0  1.03054  0  0  0.113374  0  1.028934  0  0  0.099278  0.107794  0  1.031863  0
H  H32  1  0.19018354  0.83245722  0.25063036  1  0  0.097689  0  0.975066  0  0  0.110263  0  1.030597  0  0  0.113477  0  1.028991  0  0  0.099335  0.107895  0  1.031925  0
H  H33  1  0.30983292  0.16756946  0.75065058  1  0  0.097857  0  0.974825  0  0  0.110286  0  1.030536  0  0  0.1135  0  1.028932  0  0  0.099346  0.107922  0  1.031855  0
H  H34  1  0.96828282  0.38041260  0.69304634  1  0  0.084025  0  1.000122  0  0  0.093493  0  1.066707  0  0  0.095115  0  1.068305  0  0  0.091644  0.092498  0  1.06518  0
H  H35  1  0.53172793  0.61959735  0.19305806  1  0  0.083962  0  1.000375  0  0  0.093489  0  1.066885  0  0  0.095111  0  1.068476  0  0  0.091672  0.092494  0  1.065357  0
H  H36  1  0.03177444  0.61962715  0.30694507  1  0  0.083875  0  1.000324  0  0  0.093428  0  1.066815  0  0  0.095038  0  1.068418  0  0  0.091645  0.092431  0  1.065289  0
H  H37  1  0.46825616  0.38039478  0.80694611  1  0  0.083887  0  1.000308  0  0  0.093394  0  1.066858  0  0  0.095009  0  1.068456  0  0  0.091603  0.092399  0  1.065328  0
H  H38  1  0.36108223  0.41414607  0.97778966  1  0  0.08191  0  0.981345  0  0  0.094616  0  1.042995  0  0  0.096802  0  1.042307  0  0  0.096671  0.093146  0  1.043324  0
H  H39  1  0.13892403  0.58588744  0.47777464  1  0  0.081974  0  0.981162  0  0  0.094694  0  1.042818  0  0  0.096872  0  1.042141  0  0  0.096744  0.093222  0  1.043154  0
H  H40  1  0.63893488  0.58587927  0.02222458  1  0  0.081884  0  0.981359  0  0  0.094565  0  1.043052  0  0  0.09674  0  1.042381  0  0  0.096703  0.093092  0  1.04339  0
H  H41  1  0.86105413  0.41410088  0.52223020  1  0  0.081863  0  0.981295  0  0  0.094596  0  1.042935  0  0  0.09674  0  1.042299  0  0  0.096679  0.093121  0  1.043278  0
H  H42  1  0.50691468  0.63119952  0.92361625  1  0  0.086239  0  0.96571  0  0  0.096192  0  1.029923  0  0  0.099282  0  1.027937  0  0  0.096611  0.093899  0  1.031564  0
H  H43  1  0.99309814  0.36883701  0.42361752  1  0  0.086276  0  0.965816  0  0  0.096251  0  1.029983  0  0  0.099345  0  1.027987  0  0  0.09661  0.093954  0  1.031629  0
H  H44  1  0.49312911  0.36882224  0.07638859  1  0  0.086058  0  0.965633  0  0  0.09609  0  1.02975  0  0  0.099146  0  1.027801  0  0  0.096527  0.093787  0  1.031402  0
H  H45  1  0.00689270  0.63115611  0.57637927  1  0  0.086172  0  0.965718  0  0  0.096157  0  1.029881  0  0  0.099247  0  1.027893  0  0  0.096567  0.093854  0  1.031528  0
H  H46  1  0.42624390  0.71251817  0.78762336  1  0  0.098986  0  0.931992  0  0  0.115454  0  0.980081  0  0  0.118544  0  0.978506  0  0  0.105881  0.113118  0  0.981483  0
H  H47  1  0.07377489  0.28750437  0.28764145  1  0  0.098961  0  0.932057  0  0  0.115458  0  0.980093  0  0  0.118541  0  0.978531  0  0  0.105912  0.113122  0  0.981496  0
H  H48  1  0.57382531  0.28751789  0.21238283  1  0  0.098979  0  0.931832  0  0  0.115379  0  0.979989  0  0  0.118456  0  0.978436  0  0  0.105917  0.113047  0  0.981384  0
H  H49  1  0.92621552  0.71248781  0.71235869  1  0  0.098918  0  0.931995  0  0  0.115368  0  0.980088  0  0  0.118448  0  0.978533  0  0  0.105904  0.113035  0  0.981486  0
H  H50  1  0.19059752  0.57659595  0.70643302  1  0  0.086386  0  0.955849  0  0  0.099257  0  1.014788  0  0  0.101855  0  1.013783  0  0  0.09813  0.097309  0  1.015683  0
H  H51  1  0.30942830  0.42341731  0.20645755  1  0  0.086189  0  0.955975  0  0  0.099115  0  1.014889  0  0  0.101717  0  1.013875  0  0  0.098131  0.097183  0  1.015765  0
H  H52  1  0.80947520  0.42345239  0.29356377  1  0  0.086206  0  0.956132  0  0  0.099148  0  1.015007  0  0  0.101744  0  1.014006  0  0  0.098099  0.097247  0  1.015852  0
H  H53  1  0.69056694  0.57657395  0.79355266  1  0  0.086279  0  0.955863  0  0  0.099184  0  1.014771  0  0  0.101779  0  1.013767  0  0  0.098133  0.097244  0  1.015655  0
H  H54  1  0.47793189  0.95220048  0.20967960  1  0  0.423393  0  0.835829  0  0  0.402438  0  0.897722  0  0  0.411114  0  0.88512  0  0  0.306946  0.396169  0  0.906874  0
H  H55  1  0.02205213  0.04776244  0.70968496  1  0  0.423408  0  0.835953  0  0  0.402521  0  0.897599  0  0  0.411197  0  0.884998  0  0  0.307018  0.396251  0  0.906751  0
H  H56  1  0.52200742  0.04777626  0.79030979  1  0  0.423474  0  0.836069  0  0  0.402603  0  0.897516  0  0  0.411273  0  0.88493  0  0  0.307107  0.396332  0  0.906668  0
H  H57  1  0.97791391  0.95221544  0.29031921  1  0  0.423419  0  0.835772  0  0  0.402487  0  0.897635  0  0  0.41116  0  0.885039  0  0  0.306989  0.396218  0  0.906787  0
H  H58  1  0.63053112  0.97287687  0.15481355  1  0  0.407058  0  0.913486  0  0  0.372766  0  0.984104  0  0  0.384682  0  0.966796  0  0  0.276431  0.364364  0  0.996241  0
H  H59  1  0.86943829  0.02709554  0.65483516  1  0  0.407009  0  0.913545  0  0  0.372689  0  0.984195  0  0  0.384604  0  0.96689  0  0  0.27644  0.364281  0  0.996341  0
H  H60  1  0.36940304  0.02710926  0.84517719  1  0  0.407093  0  0.913419  0  0  0.372713  0  0.984145  0  0  0.384627  0  0.966837  0  0  0.276375  0.36431  0  0.996282  0
H  H61  1  0.13052490  0.97288985  0.34516633  1  0  0.407158  0  0.913348  0  0  0.372879  0  0.983942  0  0  0.384794  0  0.966637  0  0  0.276555  0.364476  0  0.996082  0
C  C62  1  0.70700764  0.28132633  0.93897765  1  0  0.130295  0  3.731874  0  0  0.100415  0  3.983637  0  0  0.106989  0  4.003265  0  0  0.047322  0.095956  0  3.970038  0
C  C63  1  0.79298979  0.71865489  0.43895738  1  0  0.130252  0  3.732443  0  0  0.100303  0  3.984209  0  0  0.106878  0  4.003838  0  0  0.047333  0.095846  0  3.97061  0
C  C64  1  0.29297462  0.71865260  0.06103324  1  0  0.130291  0  3.732165  0  0  0.100348  0  3.983929  0  0  0.106921  0  4.003558  0  0  0.047243  0.095889  0  3.970334  0
C  C65  1  0.20702204  0.28133367  0.56102530  1  0  0.130197  0  3.732477  0  0  0.100335  0  3.984143  0  0  0.106912  0  4.003766  0  0  0.047226  0.095876  0  3.970549  0
C  C66  1  0.80870109  0.23015965  0.06620747  1  0  0.137142  0  3.702778  0  0  0.104636  0  3.956601  0  0  0.111252  0  3.976059  0  0  0.050869  0.100248  0  3.943316  0
C  C67  1  0.69130723  0.76982094  0.56618777  1  0  0.137368  0  3.70265  0  0  0.104709  0  3.956528  0  0  0.111323  0  3.975991  0  0  0.050983  0.100322  0  3.943242  0
C  C68  1  0.19129582  0.76983069  0.93379938  1  0  0.137477  0  3.702583  0  0  0.104809  0  3.956437  0  0  0.111424  0  3.975897  0  0  0.051008  0.100431  0  3.943147  0
C  C69  1  0.30870870  0.23015822  0.43380163  1  0  0.137409  0  3.702741  0  0  0.104873  0  3.956551  0  0  0.111487  0  3.976013  0  0  0.050949  0.100491  0  3.943261  0
C  C70  1  0.92694444  0.34818249  0.06771703  1  0  -0.141386  0  3.69492  0  0  -0.159773  0  3.943993  0  0  -0.167234  0  3.966078  0  0  -0.07453  -0.154553  0  3.928842  0
C  C71  1  0.57306816  0.65180278  0.56770133  1  0  -0.141489  0  3.694961  0  0  -0.159754  0  3.944101  0  0  -0.167217  0  3.966193  0  0  -0.074739  -0.154534  0  3.92895  0
C  C72  1  0.07304479  0.65181627  0.93229318  1  0  -0.141373  0  3.694868  0  0  -0.159818  0  3.944055  0  0  -0.167279  0  3.966145  0  0  -0.074706  -0.154599  0  3.9289  0
C  C73  1  0.42694801  0.34817921  0.43228135  1  0  -0.141629  0  3.694995  0  0  -0.159916  0  3.944116  0  0  -0.167378  0  3.966201  0  0  -0.074599  -0.154698  0  3.928963  0
C  C74  1  0.93727547  0.43704842  0.00072322  1  0  0.096458  0  3.743218  0  0  0.107127  0  3.97359  0  0  0.111095  0  3.994748  0  0  0.017503  0.104402  0  3.959503  0
C  C75  1  0.56272193  0.56293539  0.50070748  1  0  0.096788  0  3.742984  0  0  0.107404  0  3.973495  0  0  0.11137  0  3.994651  0  0  0.017655  0.104675  0  3.959418  0
C  C76  1  0.06270981  0.56293712  0.99927759  1  0  0.096715  0  3.742847  0  0  0.107272  0  3.973371  0  0  0.111227  0  3.99455  0  0  0.017722  0.104553  0  3.959271  0
C  C77  1  0.43729697  0.43704567  0.49927654  1  0  0.096511  0  3.743271  0  0  0.106991  0  3.973878  0  0  0.110952  0  3.995046  0  0  0.017601  0.104276  0  3.959773  0
C  C78  1  0.82245436  0.40063320  0.93536157  1  0  -0.140739  0  3.698869  0  0  -0.159485  0  3.946449  0  0  -0.166984  0  3.968726  0  0  -0.076207  -0.154572  0  3.931394  0
C  C79  1  0.67755200  0.59934256  0.43535276  1  0  -0.140711  0  3.699255  0  0  -0.159579  0  3.946881  0  0  -0.167078  0  3.969155  0  0  -0.076157  -0.154666  0  3.931829  0
C  C80  1  0.17752034  0.59934756  0.06464529  1  0  -0.140827  0  3.699005  0  0  -0.159661  0  3.946611  0  0  -0.167158  0  3.968888  0  0  -0.076223  -0.154749  0  3.931557  0
C  C81  1  0.32246579  0.40063379  0.56462791  1  0  -0.140742  0  3.699491  0  0  -0.159405  0  3.947118  0  0  -0.166907  0  3.969396  0  0  -0.076128  -0.154495  0  3.932064  0
C  C82  1  0.24646902  0.11256286  0.95692412  1  0  0.699986  0  3.857864  0  0  0.653958  0  4.163936  0  0  0.686913  0  4.157818  0  0  0.203127  0.631692  0  4.166814  0
C  C83  1  0.25351491  0.88743921  0.45692152  1  0  0.699614  0  3.857664  0  0  0.653681  0  4.163624  0  0  0.686633  0  4.157512  0  0  0.202983  0.631411  0  4.166512  0
C  C84  1  0.75349236  0.88743006  0.04305387  1  0  0.699811  0  3.858226  0  0  0.653837  0  4.164244  0  0  0.686796  0  4.158124  0  0  0.202927  0.631567  0  4.167137  0
C  C85  1  0.74646486  0.11254346  0.54309810  1  0  0.699569  0  3.857946  0  0  0.653679  0  4.163861  0  0  0.686661  0  4.157743  0  0  0.202863  0.631407  0  4.166759  0
C  C86  1  0.14403501  0.18375145  0.98241167  1  0  -0.309427  0  3.710265  0  0  -0.354958  0  3.959621  0  0  -0.360306  0  3.967198  0  0  -0.164884  -0.351146  0  3.954491  0
C  C87  1  0.35598506  0.81627068  0.48239928  1  0  -0.309139  0  3.710472  0  0  -0.354784  0  3.959828  0  0  -0.360124  0  3.967392  0  0  -0.164923  -0.350982  0  3.954719  0
C  C88  1  0.85596743  0.81627850  0.01758982  1  0  -0.309153  0  3.710164  0  0  -0.354878  0  3.959559  0  0  -0.360227  0  3.967138  0  0  -0.164968  -0.35106  0  3.954409  0
C  C89  1  0.64401533  0.18371119  0.51761295  1  0  -0.309001  0  3.710064  0  0  -0.354685  0  3.959519  0  0  -0.360131  0  3.967202  0  0  -0.164805  -0.350877  0  3.954389  0
C  C90  1  0.09710759  0.24267783  0.90395122  1  0  0.081323  0  3.729024  0  0  0.095578  0  3.970377  0  0  0.095948  0  3.994823  0  0  -0.009119  0.095036  0  3.954027  0
C  C91  1  0.40290685  0.75734615  0.40394014  1  0  0.081302  0  3.729269  0  0  0.095694  0  3.970385  0  0  0.096064  0  3.994838  0  0  -0.009022  0.095147  0  3.954048  0
C  C92  1  0.90291824  0.75735511  0.09605161  1  0  0.081312  0  3.729274  0  0  0.095841  0  3.970209  0  0  0.096207  0  3.994661  0  0  -0.008855  0.095294  0  3.953876  0
C  C93  1  0.59707466  0.24264031  0.59606806  1  0  0.081033  0  3.72891  0  0  0.095418  0  3.970167  0  0  0.095812  0  3.994642  0  0  -0.009029  0.094876  0  3.953823  0
C  C94  1  0.96341877  0.17390739  0.85888930  1  0  -0.126095  0  3.749507  0  0  -0.149608  0  4.004521  0  0  -0.152147  0  4.024875  0  0  -0.097177  -0.148204  0  3.99126  0
C  C95  1  0.53659034  0.82611826  0.35887202  1  0  -0.126017  0  3.749663  0  0  -0.14949  0  4.004575  0  0  -0.152025  0  4.024933  0  0  -0.097168  -0.148084  0  3.991313  0
C  C96  1  0.03660350  0.82614532  0.14111419  1  0  -0.126062  0  3.749647  0  0  -0.149616  0  4.004554  0  0  -0.152139  0  4.024894  0  0  -0.097265  -0.148199  0  3.991281  0
C  C97  1  0.46338777  0.17386535  0.64113283  1  0  -0.125868  0  3.749361  0  0  -0.149384  0  4.004296  0  0  -0.151916  0  4.024646  0  0  -0.097235  -0.147972  0  3.991025  0
C  C98  1  0.91614308  0.22321226  0.78320900  1  0  -0.079001  0  3.817271  0  0  -0.091539  0  4.069993  0  0  -0.093067  0  4.090855  0  0  -0.099208  -0.090409  0  4.055845  0
C  C99  1  0.58386935  0.77680483  0.28320086  1  0  -0.07946  0  3.817458  0  0  -0.091921  0  4.070149  0  0  -0.09345  0  4.09101  0  0  -0.099415  -0.090791  0  4.056006  0
C  C100  1  0.08389578  0.77683773  0.21679181  1  0  -0.079403  0  3.816835  0  0  -0.091933  0  4.069628  0  0  -0.093465  0  4.090481  0  0  -0.099316  -0.090801  0  4.05548  0
C  C101  1  0.41611086  0.22317880  0.71680331  1  0  -0.079774  0  3.817288  0  0  -0.092232  0  4.07015  0  0  -0.093762  0  4.091002  0  0  -0.099506  -0.091099  0  4.056002  0
C  C102  1  0.00450613  0.34161388  0.75119926  1  0  -0.130059  0  3.768126  0  0  -0.151609  0  4.019381  0  0  -0.154756  0  4.041557  0  0  -0.10225  -0.149206  0  4.003892  0
C  C103  1  0.49550237  0.65839765  0.25120377  1  0  -0.129961  0  3.768319  0  0  -0.151547  0  4.019575  0  0  -0.154688  0  4.041748  0  0  -0.102197  -0.149147  0  4.004089  0
C  C104  1  0.99553707  0.65842954  0.24879350  1  0  -0.129858  0  3.767384  0  0  -0.151434  0  4.018687  0  0  -0.154562  0  4.040854  0  0  -0.10227  -0.149031  0  4.003197  0
C  C105  1  0.50448545  0.34158885  0.74879973  1  0  -0.129785  0  3.767634  0  0  -0.151308  0  4.018849  0  0  -0.154438  0  4.041017  0  0  -0.102064  -0.148905  0  4.00336  0
C  C106  1  0.14165108  0.41645786  0.79510298  1  0  0.057882  0  3.797128  0  0  0.076289  0  4.020612  0  0  0.07631  0  4.045344  0  0  -0.010378  0.076149  0  4.003817  0
C  C107  1  0.35835698  0.58355680  0.29510687  1  0  0.058052  0  3.796785  0  0  0.076375  0  4.020426  0  0  0.076389  0  4.045161  0  0  -0.010334  0.076237  0  4.003635  0
C  C108  1  0.85838006  0.58357983  0.20489582  1  0  0.057773  0  3.796884  0  0  0.076078  0  4.020575  0  0  0.076088  0  4.045305  0  0  -0.010407  0.075937  0  4.003793  0
C  C109  1  0.64163634  0.41643257  0.70489327  1  0  0.057932  0  3.796629  0  0  0.076272  0  4.020263  0  0  0.076283  0  4.044993  0  0  -0.010386  0.076131  0  4.003471  0
C  C110  1  0.18894565  0.36746498  0.87327188  1  0  0.003526  0  3.729007  0  0  0.01674  0  3.950259  0  0  0.015168  0  3.975243  0  0  -0.008641  0.018017  0  3.933142  0
C  C111  1  0.31106073  0.63255251  0.37326932  1  0  0.003264  0  3.728908  0  0  0.016479  0  3.950138  0  0  0.014907  0  3.975123  0  0  -0.008662  0.017757  0  3.93302  0
C  C112  1  0.81108017  0.63256796  0.12673431  1  0  0.003261  0  3.72949  0  0  0.016443  0  3.950639  0  0  0.014876  0  3.975619  0  0  -0.008718  0.017716  0  3.93353  0
C  C113  1  0.68892919  0.36743401  0.62673485  1  0  0.003271  0  3.729215  0  0  0.016451  0  3.95046  0  0  0.014886  0  3.975427  0  0  -0.008735  0.017727  0  3.933347  0
C  C114  1  0.32374254  0.44795413  0.91763348  1  0  -0.11787  0  3.75975  0  0  -0.134933  0  4.006636  0  0  -0.137052  0  4.027845  0  0  -0.095233  -0.133231  0  3.991681  0
C  C115  1  0.17625999  0.55207963  0.41762712  1  0  -0.117797  0  3.759114  0  0  -0.134875  0  4.005991  0  0  -0.136987  0  4.027191  0  0  -0.095407  -0.133171  0  3.991037  0
C  C116  1  0.67628019  0.55208350  0.08237740  1  0  -0.117616  0  3.75949  0  0  -0.134673  0  4.006369  0  0  -0.136786  0  4.027567  0  0  -0.095296  -0.132973  0  3.991416  0
C  C117  1  0.82371823  0.44791340  0.58237437  1  0  -0.117607  0  3.75937  0  0  -0.134663  0  4.006193  0  0  -0.136755  0  4.027412  0  0  -0.09527  -0.132961  0  3.991238  0
C  C118  1  0.40683062  0.56890514  0.88707769  1  0  -0.074526  0  3.787065  0  0  -0.090466  0  4.04494  0  0  -0.09214  0  4.065895  0  0  -0.095901  -0.089384  0  4.030716  0
C  C119  1  0.09317222  0.43111748  0.38708323  1  0  -0.074581  0  3.786886  0  0  -0.090556  0  4.044796  0  0  -0.092229  0  4.065739  0  0  -0.095826  -0.089468  0  4.030566  0
C  C120  1  0.59320610  0.43112410  0.11292446  1  0  -0.074226  0  3.786881  0  0  -0.090203  0  4.044688  0  0  -0.09185  0  4.065645  0  0  -0.095668  -0.08911  0  4.030453  0
C  C121  1  0.90680681  0.56887274  0.61291356  1  0  -0.074359  0  3.786606  0  0  -0.090309  0  4.044436  0  0  -0.09198  0  4.065377  0  0  -0.095698  -0.089211  0  4.030196  0
C  C122  1  0.36104424  0.61579388  0.80946551  1  0  -0.071434  0  3.78818  0  0  -0.087475  0  4.041523  0  0  -0.08897  0  4.062379  0  0  -0.093686  -0.086345  0  4.027332  0
C  C123  1  0.13897458  0.38422505  0.30948548  1  0  -0.071499  0  3.788239  0  0  -0.087583  0  4.041677  0  0  -0.089077  0  4.06253  0  0  -0.093735  -0.08645  0  4.027479  0
C  C124  1  0.63901110  0.38424398  0.19053195  1  0  -0.0716  0  3.788426  0  0  -0.087625  0  4.041908  0  0  -0.089114  0  4.062741  0  0  -0.093806  -0.086498  0  4.027728  0
C  C125  1  0.86102222  0.61575586  0.69052809  1  0  -0.071603  0  3.788295  0  0  -0.087666  0  4.041767  0  0  -0.089156  0  4.062606  0  0  -0.093846  -0.086537  0  4.027578  0
C  C126  1  0.23091566  0.54052053  0.76463918  1  0  -0.127756  0  3.77018  0  0  -0.143858  0  4.017824  0  0  -0.146011  0  4.038304  0  0  -0.094026  -0.142456  0  4.003979  0
C  C127  1  0.26908626  0.45948953  0.26464759  1  0  -0.127355  0  3.769971  0  0  -0.143493  0  4.017682  0  0  -0.145641  0  4.038157  0  0  -0.093938  -0.142106  0  4.00383  0
C  C128  1  0.76911896  0.45950870  0.23536633  1  0  -0.127323  0  3.77025  0  0  -0.143447  0  4.017911  0  0  -0.145593  0  4.038383  0  0  -0.093884  -0.142088  0  4.004053  0
C  C129  1  0.73089628  0.54051296  0.73534919  1  0  -0.127405  0  3.769963  0  0  -0.143505  0  4.017608  0  0  -0.145646  0  4.038077  0  0  -0.093919  -0.142111  0  4.003761  0
N  N130  1  0.69994745  0.19644739  0.00273038  1  0  -0.335483  0  3.262678  0  0  -0.257295  0  3.527634  0  0  -0.277802  0  3.547858  0  0  -0.329142  -0.242575  0  3.513717  0
N  N131  1  0.80005288  0.80353354  0.50270922  1  0  -0.335673  0  3.262825  0  0  -0.257398  0  3.527789  0  0  -0.277906  0  3.548016  0  0  -0.329179  -0.242674  0  3.513857  0
N  N132  1  0.30004185  0.80354006  0.99728386  1  0  -0.335677  0  3.262559  0  0  -0.257416  0  3.527574  0  0  -0.277927  0  3.547805  0  0  -0.329177  -0.242694  0  3.513645  0
N  N133  1  0.19994985  0.19645119  0.49727346  1  0  -0.335619  0  3.26274  0  0  -0.257416  0  3.527693  0  0  -0.277924  0  3.547914  0  0  -0.329198  -0.242696  0  3.513773  0
O  O134  1  0.54266083  0.00119817  0.16130522  1  0  -0.842172  0  1.82453  0  0  -0.785305  0  2.007005  0  0  -0.805344  0  1.973909  0  0  -0.591939  -0.771252  0  2.030575  0
O  O135  1  0.95731193  0.99878346  0.66130961  1  0  -0.84213  0  1.824667  0  0  -0.785283  0  2.007146  0  0  -0.805326  0  1.974046  0  0  -0.591961  -0.771222  0  2.030726  0
O  O136  1  0.45728299  0.99878615  0.83869492  1  0  -0.842319  0  1.824735  0  0  -0.78542  0  2.00718  0  0  -0.805459  0  1.974093  0  0  -0.592006  -0.771358  0  2.03076  0
O  O137  1  0.04265955  0.00120859  0.33868852  1  0  -0.842264  0  1.824426  0  0  -0.785405  0  2.00693  0  0  -0.805446  0  1.973833  0  0  -0.592048  -0.77135  0  2.030504  0
O  O138  1  0.34018700  0.10951310  0.01707388  1  0  -0.666937  0  1.955193  0  0  -0.60461  0  2.202218  0  0  -0.633415  0  2.191428  0  0  -0.345639  -0.584457  0  2.209266  0
O  O139  1  0.15980260  0.89047658  0.51707912  1  0  -0.66691  0  1.95508  0  0  -0.604599  0  2.202058  0  0  -0.633404  0  2.191268  0  0  -0.345658  -0.58444  0  2.209107  0
O  O140  1  0.65977775  0.89046194  0.98289538  1  0  -0.667025  0  1.955038  0  0  -0.604688  0  2.202003  0  0  -0.633488  0  2.19121  0  0  -0.345676  -0.584533  0  2.209051  0
O  O141  1  0.84018584  0.10950898  0.48294855  1  0  -0.667014  0  1.955304  0  0  -0.604725  0  2.202244  0  0  -0.633528  0  2.191439  0  0  -0.345711  -0.584569  0  2.209301  0
O  O142  1  0.22750390  0.06025613  0.88030777  1  0  -0.653466  0  1.959662  0  0  -0.597893  0  2.178646  0  0  -0.623136  0  2.169191  0  0  -0.331404  -0.57981  0  2.184363  0
O  O143  1  0.27244429  0.93974374  0.38030417  1  0  -0.653236  0  1.959488  0  0  -0.597772  0  2.178445  0  0  -0.623021  0  2.169006  0  0  -0.331258  -0.579676  0  2.184152  0
O  O144  1  0.77242778  0.93973376  0.11967021  1  0  -0.653368  0  1.960304  0  0  -0.597811  0  2.179184  0  0  -0.623068  0  2.169742  0  0  -0.331168  -0.579714  0  2.18488  0
O  O145  1  0.72752262  0.06023602  0.61971276  1  0  -0.653027  0  1.959507  0  0  -0.597536  0  2.178406  0  0  -0.622788  0  2.168965  0  0  -0.331099  -0.579444  0  2.184125  0
