# generated using pymatgen
data_ZnH18C22(NO2)2
_symmetry_space_group_name_H-M   'P 1'
_cell_length_a   5.38402980
_cell_length_b   19.22723207
_cell_length_c   21.89556024
_cell_angle_alpha   89.99984189
_cell_angle_beta   94.71556721
_cell_angle_gamma   90.00033921
_symmetry_Int_Tables_number   1
_chemical_formula_structural   ZnH18C22(NO2)2
_chemical_formula_sum   'Zn4 H72 C88 N8 O16'
_cell_volume   2258.95584914
_cell_formula_units_Z   4
loop_
 _symmetry_equiv_pos_site_id
 _symmetry_equiv_pos_as_xyz
  1  'x, y, z'
loop_
 _atom_site_type_symbol
 _atom_site_label
 _atom_site_symmetry_multiplicity
 _atom_site_fract_x
 _atom_site_fract_y
 _atom_site_fract_z
 _atom_site_occupancy
 _atom_site_pbe_bader_charge
 _atom_site_pbe_bader_spin_density
 _atom_site_pbe_cm5_charge
 _atom_site_pbe_ddec_charge
 _atom_site_pbe_ddec_spin_density
 _atom_site_pbe_ddec_sum_bond_order
 _atom_site_pbe_magmom
Zn  Zn0  1  0.22857843  0.51528120  0.26461151  1  1.239566  0  0.690804  0.744546  0  2.363221  0
Zn  Zn1  1  0.27140009  0.01528166  0.23538368  1  1.239595  0  0.690845  0.744613  0  2.363264  0
Zn  Zn2  1  0.77144350  0.48471925  0.73539561  1  1.239093  0  0.690806  0.744589  0  2.363269  0
Zn  Zn3  1  0.72856543  0.98472190  0.76460694  1  1.239101  0  0.690789  0.744551  0  2.363345  0
H  H4  1  0.70341804  0.70327639  0.24769973  1  0.067943  0  0.10224  0.132556  0  0.996777  0
H  H5  1  0.79656855  0.20328038  0.25229999  1  0.067576  0  0.102228  0.132503  0  0.996705  0
H  H6  1  0.29656326  0.29672562  0.75228729  1  0.067314  0  0.102243  0.132579  0  0.996599  0
H  H7  1  0.20346279  0.79673306  0.74769830  1  0.067852  0  0.102243  0.13266  0  0.996538  0
H  H8  1  0.47916310  0.76131048  0.27552589  1  0.133459  0  0.101968  0.138611  0  1.005599  0
H  H9  1  0.02082977  0.26131281  0.22447743  1  0.133481  0  0.101987  0.138607  0  1.005615  0
H  H10  1  0.52082682  0.23869412  0.72446463  1  0.133806  0  0.101975  0.138661  0  1.005519  0
H  H11  1  0.97921459  0.73869388  0.77552998  1  0.133532  0  0.101988  0.138612  0  1.005658  0
H  H12  1  0.70688392  0.67575857  0.14363065  1  0.089592  0  0.096489  0.101282  0  1.021623  0
H  H13  1  0.79308097  0.17576272  0.35637060  1  0.089396  0  0.096482  0.101296  0  1.021456  0
H  H14  1  0.29303009  0.32423615  0.85635551  1  0.091089  0  0.096425  0.101267  0  1.02158  0
H  H15  1  0.20693675  0.82423981  0.64362999  1  0.089526  0  0.096404  0.101183  0  1.021528  0
H  H16  1  0.56443166  0.69781880  0.03456179  1  0.016947  0  0.092719  0.089683  0  1.011177  0
H  H17  1  0.93550708  0.19783313  0.46544182  1  0.017442  0  0.092689  0.089643  0  1.01098  0
H  H18  1  0.43541966  0.30216708  0.96542824  1  0.016933  0  0.092629  0.089628  0  1.010965  0
H  H19  1  0.06450643  0.80216628  0.53456090  1  0.017462  0  0.092676  0.089628  0  1.010967  0
H  H20  1  0.18007055  0.76915863  0.00895697  1  0.053657  0  0.094001  0.091777  0  1.004654  0
H  H21  1  0.31987032  0.26917935  0.49104509  1  0.052065  0  0.094123  0.091948  0  1.004401  0
H  H22  1  0.81977958  0.23082309  0.99103851  1  0.05186  0  0.094049  0.091803  0  1.00432  0
H  H23  1  0.68013907  0.73082057  0.50895933  1  0.052178  0  0.094095  0.091869  0  1.004233  0
H  H24  1  0.94939520  0.81759787  0.09339833  1  0.056866  0  0.094126  0.094563  0  1.024586  0
H  H25  1  0.55055871  0.31761116  0.40660229  1  0.057362  0  0.094148  0.094561  0  1.024616  0
H  H26  1  0.05048412  0.18238698  0.90660086  1  0.057924  0  0.094164  0.094587  0  1.024564  0
H  H27  1  0.44947046  0.68239032  0.59340599  1  0.057683  0  0.094222  0.094719  0  1.02463  0
H  H28  1  0.86089180  0.81787614  0.19770545  1  0.063772  0  0.099622  0.128267  0  0.993388  0
H  H29  1  0.63909326  0.31788159  0.30229849  1  0.063774  0  0.099655  0.128305  0  0.993341  0
H  H30  1  0.13906960  0.18212535  0.80229555  1  0.064048  0  0.099567  0.128183  0  0.993382  0
H  H31  1  0.36093384  0.68212562  0.69771933  1  0.06402  0  0.099599  0.128169  0  0.993396  0
H  H32  1  0.05593548  0.77386177  0.25513566  1  0.089234  0  0.10537  0.139294  0  1.001633  0
H  H33  1  0.44407428  0.27386498  0.24486914  1  0.08934  0  0.105398  0.139358  0  1.00169  0
H  H34  1  0.94405276  0.22613607  0.74486257  1  0.089088  0  0.105359  0.139299  0  1.001672  0
H  H35  1  0.55597644  0.72613963  0.75514351  1  0.088956  0  0.105324  0.139279  0  1.001628  0
H  H36  1  0.74438333  0.45383712  0.21404091  1  0.185088  0  0.123315  0.109789  0  1.018556  0
H  H37  1  0.75561765  0.95383495  0.28595002  1  0.184848  0  0.123271  0.109589  0  1.018586  0
H  H38  1  0.25565672  0.54615605  0.78596041  1  0.184981  0  0.123325  0.109685  0  1.018626  0
H  H39  1  0.24433857  0.04616186  0.71404029  1  0.184871  0  0.123308  0.109691  0  1.018534  0
H  H40  1  0.49027673  0.44972966  0.11505033  1  0.098424  0  0.112333  0.121703  0  0.992185  0
H  H41  1  0.00973347  0.94972322  0.38494009  1  0.098242  0  0.11232  0.12178  0  0.99213  0
H  H42  1  0.50977175  0.55026714  0.88495539  1  0.098345  0  0.112292  0.12164  0  0.992261  0
H  H43  1  0.99023726  0.05026891  0.61504384  1  0.098348  0  0.112276  0.121651  0  0.99227  0
H  H44  1  0.01555034  0.59366770  0.04375049  1  0.101123  0  0.107677  0.11403  0  1.003134  0
H  H45  1  0.48445555  0.09365512  0.45624937  1  0.101219  0  0.107635  0.114019  0  1.003301  0
H  H46  1  0.98446923  0.40633431  0.95625885  1  0.10083  0  0.107725  0.114095  0  1.003191  0
H  H47  1  0.51553142  0.90633128  0.54374607  1  0.100993  0  0.1077  0.114008  0  1.003094  0
H  H48  1  0.24606761  0.59268130  0.14726580  1  0.141672  0  0.115597  0.086299  0  1.039703  0
H  H49  1  0.25394600  0.09267503  0.35273294  1  0.136056  0  0.115634  0.086347  0  1.039539  0
H  H50  1  0.75393541  0.40731602  0.85274207  1  0.142276  0  0.115593  0.086373  0  1.039499  0
H  H51  1  0.74605038  0.90731969  0.64726236  1  0.142359  0  0.115594  0.086377  0  1.039474  0
H  H52  1  0.67930981  0.55352527  0.97492127  1  0.074652  0  0.105539  0.101759  0  1.003854  0
H  H53  1  0.82069233  0.05352134  0.52507544  1  0.074622  0  0.105537  0.101721  0  1.00375  0
H  H54  1  0.32074082  0.44647258  0.02508314  1  0.07368  0  0.105513  0.101662  0  1.00381  0
H  H55  1  0.17927975  0.94646455  0.47491951  1  0.074237  0  0.105588  0.10179  0  1.003672  0
H  H56  1  0.82885804  0.59686668  0.31837219  1  0.176704  0  0.122563  0.107879  0  1.023787  0
H  H57  1  0.67113049  0.09686643  0.18163111  1  0.176918  0  0.122559  0.107888  0  1.023725  0
H  H58  1  0.17114078  0.40312545  0.68162914  1  0.177202  0  0.122519  0.10792  0  1.023676  0
H  H59  1  0.32889330  0.90312465  0.81837608  1  0.177295  0  0.122506  0.107839  0  1.0237  0
H  H60  1  0.55437846  0.58519052  0.40332882  1  0.089905  0  0.112287  0.120518  0  0.99603  0
H  H61  1  0.94563404  0.08519914  0.09667481  1  0.089745  0  0.112213  0.120429  0  0.996003  0
H  H62  1  0.44566904  0.41479693  0.59667275  1  0.089651  0  0.112162  0.120402  0  0.995808  0
H  H63  1  0.05436546  0.91479871  0.90333203  1  0.089666  0  0.112209  0.120525  0  0.995896  0
H  H64  1  0.96059433  0.39698249  0.45646109  1  0.061488  0  0.107305  0.112864  0  1.006482  0
H  H65  1  0.53942176  0.89699094  0.04353941  1  0.061622  0  0.107347  0.112873  0  1.006437  0
H  H66  1  0.03948068  0.60302628  0.54355191  1  0.061409  0  0.107333  0.112737  0  1.006628  0
H  H67  1  0.46055601  0.10302563  0.95644658  1  0.061393  0  0.107237  0.112734  0  1.006605  0
H  H68  1  0.20848490  0.41576721  0.36742574  1  0.122345  0  0.116331  0.083188  0  1.044283  0
H  H69  1  0.29151359  0.91576898  0.13257110  1  0.122412  0  0.116331  0.08316  0  1.044308  0
H  H70  1  0.79156258  0.58424260  0.63258452  1  0.122432  0  0.116298  0.083096  0  1.044357  0
H  H71  1  0.70847662  0.08423875  0.86741805  1  0.122237  0  0.116317  0.083131  0  1.044436  0
H  H72  1  0.64769199  0.43379076  0.51964820  1  0.080257  0  0.107885  0.107043  0  0.992435  0
H  H73  1  0.85230195  0.93380110  0.98035653  1  0.080377  0  0.107875  0.107003  0  0.992269  0
H  H74  1  0.35236148  0.56621281  0.48036043  1  0.080405  0  0.107922  0.107134  0  0.99242  0
H  H75  1  0.14766572  0.06621703  0.01964147  1  0.080536  0  0.107922  0.107091  0  0.9926  0
C  C76  1  0.35915011  0.65391902  0.26575385  1  1.550817  0  0.199689  0.626345  0  4.163386  0
C  C77  1  0.14085564  0.15392193  0.23424563  1  1.550868  0  0.199684  0.626464  0  4.163297  0
C  C78  1  0.64084705  0.34608507  0.73423782  1  1.551021  0  0.199731  0.626391  0  4.163392  0
C  C79  1  0.85916491  0.84608996  0.76575916  1  1.551155  0  0.1998  0.626585  0  4.163053  0
C  C80  1  0.50494576  0.71681748  0.24548135  1  -0.096109  0  -0.168612  -0.356162  0  3.913239  0
C  C81  1  0.99506010  0.21681391  0.25451765  1  -0.095734  0  -0.168615  -0.356109  0  3.913182  0
C  C82  1  0.49503838  0.28318556  0.75450988  1  -0.096662  0  -0.168604  -0.35633  0  3.913014  0
C  C83  1  0.00497153  0.78318810  0.74547927  1  -0.096469  0  -0.168684  -0.356445  0  3.913046  0
C  C84  1  0.41316950  0.73435325  0.18007146  1  0.006238  0  -0.002371  0.095347  0  3.903697  0
C  C85  1  0.08681539  0.23435484  0.31993064  1  0.006382  0  -0.002341  0.095338  0  3.903508  0
C  C86  1  0.58677300  0.26564824  0.81992160  1  0.00477  0  -0.002559  0.095287  0  3.903841  0
C  C87  1  0.91321271  0.76564300  0.68007395  1  0.005393  0  -0.002495  0.095283  0  3.903935  0
C  C88  1  0.54022048  0.70692733  0.13210977  1  -0.123535  0  -0.098218  -0.146431  0  4.003521  0
C  C89  1  0.95975954  0.20693471  0.36789476  1  -0.123037  0  -0.098172  -0.14651  0  4.003686  0
C  C90  1  0.45969440  0.29306584  0.86788099  1  -0.12328  0  -0.098123  -0.146506  0  4.003608  0
C  C91  1  0.04026092  0.79306834  0.63211048  1  -0.12216  0  -0.098058  -0.1463  0  4.003168  0
C  C92  1  0.45961949  0.71918359  0.07082195  1  0.014438  0  -0.108156  -0.10489  0  4.079524  0
C  C93  1  0.04032375  0.21919928  0.42918012  1  0.01323  0  -0.108125  -0.104719  0  4.079354  0
C  C94  1  0.54024651  0.28080281  0.92916948  1  0.013677  0  -0.108077  -0.104751  0  4.078964  0
C  C95  1  0.95967898  0.78079960  0.57082043  1  0.013195  0  -0.10815  -0.104805  0  4.078987  0
C  C96  1  0.24632595  0.75933126  0.05663811  1  -0.067154  0  -0.110353  -0.111605  0  4.086006  0
C  C97  1  0.25362367  0.25935022  0.44336559  1  -0.065744  0  -0.110492  -0.111818  0  4.085881  0
C  C98  1  0.75354172  0.24064994  0.94335429  1  -0.06419  0  -0.110439  -0.111638  0  4.085801  0
C  C99  1  0.74638856  0.74065022  0.55664304  1  -0.065614  0  -0.110539  -0.111721  0  4.085615  0
C  C100  1  0.11754037  0.78668489  0.10405881  1  -0.117561  0  -0.100971  -0.149015  0  4.014973  0
C  C101  1  0.38242144  0.28669350  0.39594396  1  -0.117112  0  -0.101074  -0.149229  0  4.015318  0
C  C102  1  0.88235883  0.21330463  0.89593509  1  -0.119051  0  -0.101062  -0.149268  0  4.015206  0
C  C103  1  0.61760156  0.71330331  0.60406685  1  -0.118048  0  -0.101079  -0.149386  0  4.015072  0
C  C104  1  0.19718346  0.77496640  0.16584812  1  -0.024262  0  -0.006278  0.088392  0  3.908647  0
C  C105  1  0.30279998  0.27497283  0.33415719  1  -0.024779  0  -0.006218  0.088688  0  3.908346  0
C  C106  1  0.80275503  0.22502728  0.83414618  1  -0.024094  0  -0.0061  0.088759  0  3.908352  0
C  C107  1  0.69723193  0.72502761  0.66585575  1  -0.024473  0  -0.0061  0.0888  0  3.908351  0
C  C108  1  0.05458874  0.80823714  0.21502367  1  -0.0391  0  -0.164921  -0.347246  0  3.90339  0
C  C109  1  0.44540559  0.30823897  0.28497884  1  -0.039068  0  -0.165008  -0.347422  0  3.903621  0
C  C110  1  0.94537697  0.19176226  0.78497472  1  -0.039196  0  -0.164844  -0.347219  0  3.903776  0
C  C111  1  0.55463602  0.69176512  0.71503260  1  -0.038788  0  -0.164961  -0.347348  0  3.903664  0
C  C112  1  0.17630108  0.87722991  0.23526921  1  1.552107  0  0.196922  0.617227  0  4.166604  0
C  C113  1  0.32369579  0.37722967  0.26473028  1  1.552116  0  0.196751  0.616993  0  4.167081  0
C  C114  1  0.82367942  0.12277158  0.76473014  1  1.552055  0  0.196749  0.616955  0  4.167133  0
C  C115  1  0.67635719  0.62277338  0.73528062  1  1.552966  0  0.196867  0.617005  0  4.167292  0
C  C116  1  0.79697533  0.48409284  0.17512256  1  0.498378  0  0.05871  0.123389  0  3.906578  0
C  C117  1  0.70304302  0.98408871  0.32486990  1  0.498199  0  0.058925  0.12376  0  3.906319  0
C  C118  1  0.20305052  0.51590604  0.82488378  1  0.499346  0  0.058697  0.123569  0  3.90665  0
C  C119  1  0.29694074  0.01591017  0.67511446  1  0.499361  0  0.058803  0.123716  0  3.906489  0
C  C120  1  0.65726055  0.48194136  0.11916225  1  -0.063496  0  -0.078306  -0.171564  0  3.908389  0
C  C121  1  0.84274854  0.98193277  0.38082944  1  -0.06357  0  -0.07828  -0.171621  0  3.908346  0
C  C122  1  0.34277539  0.51805493  0.88084076  1  -0.063978  0  -0.078229  -0.171538  0  3.908793  0
C  C123  1  0.15721934  0.01805676  0.61915897  1  -0.064215  0  -0.078331  -0.171717  0  3.909001  0
C  C124  1  0.73319253  0.52045886  0.06928234  1  -0.007588  0  0.006292  0.14106  0  4.039363  0
C  C125  1  0.76681285  0.02044674  0.43071135  1  -0.006375  0  0.006093  0.140676  0  4.039483  0
C  C126  1  0.26684517  0.47953847  0.93072119  1  -0.007402  0  0.006208  0.141052  0  4.039362  0
C  C127  1  0.23315571  0.97954122  0.56928257  1  -0.007715  0  0.006288  0.141143  0  4.039216  0
C  C128  1  0.94842706  0.56167861  0.08007992  1  0.012155  0  -0.081834  -0.178984  0  3.940961  0
C  C129  1  0.55156561  0.06166891  0.41991706  1  0.011376  0  -0.081711  -0.178898  0  3.941077  0
C  C130  1  0.05159310  0.43832340  0.91992669  1  0.011914  0  -0.081861  -0.179071  0  3.941109  0
C  C131  1  0.44839873  0.93832009  0.58007900  1  0.012876  0  -0.081875  -0.179016  0  3.940999  0
C  C132  1  0.07810890  0.56162113  0.13758161  1  0.394816  0  0.048586  0.093911  0  3.942554  0
C  C133  1  0.42190427  0.06161446  0.36241524  1  0.40088  0  0.048443  0.093784  0  3.942333  0
C  C134  1  0.92190901  0.43837776  0.86242675  1  0.394419  0  0.048529  0.093757  0  3.942118  0
C  C135  1  0.57808153  0.93837974  0.63757696  1  0.394152  0  0.048542  0.093848  0  3.942445  0
C  C136  1  0.60167646  0.51945213  0.00852710  1  -0.01297  0  -0.078166  -0.12024  0  3.975629  0
C  C137  1  0.89832703  0.01944174  0.49146653  1  -0.012914  0  -0.078361  -0.120356  0  3.975633  0
C  C138  1  0.39836918  0.48054468  0.99147440  1  -0.115239  0  -0.078357  -0.12023  0  3.975597  0
C  C139  1  0.10164534  0.98054102  0.50852706  1  -0.116137  0  -0.078248  -0.120179  0  3.975338  0
C  C140  1  0.84758767  0.55331375  0.34993274  1  0.444106  0  0.054522  0.113009  0  3.918775  0
C  C141  1  0.65241565  0.05331478  0.15006596  1  0.443853  0  0.054564  0.112935  0  3.918675  0
C  C142  1  0.15246179  0.44668618  0.65006844  1  0.444329  0  0.054538  0.112938  0  3.919053  0
C  C143  1  0.34758296  0.94668358  0.84993627  1  0.443366  0  0.054577  0.113092  0  3.918908  0
C  C144  1  0.69801892  0.54624899  0.39810847  1  -0.021838  0  -0.079926  -0.172735  0  3.91197  0
C  C145  1  0.80197667  0.04625634  0.10189042  1  -0.021347  0  -0.079745  -0.172328  0  3.911963  0
C  C146  1  0.30201183  0.45374938  0.60189254  1  -0.021539  0  -0.079796  -0.172416  0  3.9118  0
C  C147  1  0.19802773  0.95374878  0.89811109  1  -0.021221  0  -0.079993  -0.17287  0  3.911956  0
C  C148  1  0.73425446  0.48974356  0.43871283  1  -0.016608  0  0.008296  0.145321  0  4.033624  0
C  C149  1  0.76574934  0.98975267  0.06128693  1  -0.017088  0  0.008107  0.144923  0  4.034094  0
C  C150  1  0.26579382  0.51026416  0.56129380  1  -0.017734  0  0.008345  0.14509  0  4.033442  0
C  C151  1  0.23424322  0.01026754  0.93870870  1  -0.01758  0  0.008465  0.145257  0  4.033516  0
C  C152  1  0.92160099  0.44184500  0.42676271  1  0.101692  0  -0.080805  -0.176715  0  3.936687  0
C  C153  1  0.57839936  0.94185377  0.07323824  1  0.102253  0  -0.080944  -0.176746  0  3.937113  0
C  C154  1  0.07844179  0.55816272  0.57325196  1  0.102589  0  -0.080928  -0.176395  0  3.93684  0
C  C155  1  0.42159859  0.05816228  0.92674979  1  0.101729  0  -0.080848  -0.176445  0  3.937049  0
C  C156  1  0.06144631  0.45187784  0.37713794  1  0.393254  0  0.051576  0.105638  0  3.940442  0
C  C157  1  0.43856031  0.95187988  0.12286060  1  0.392199  0  0.051658  0.105708  0  3.940577  0
C  C158  1  0.93860354  0.54813041  0.62287011  1  0.392087  0  0.051771  0.105883  0  3.940788  0
C  C159  1  0.56143479  0.04812785  0.87713192  1  0.393398  0  0.051667  0.105718  0  3.940926  0
C  C160  1  0.59300349  0.47931845  0.49174042  1  0.002997  0  -0.077625  -0.118463  0  3.969392  0
C  C161  1  0.90701913  0.97932923  0.00825767  1  -0.096689  0  -0.077439  -0.118121  0  3.968973  0
C  C162  1  0.40704489  0.52068875  0.50826576  1  -0.097437  0  -0.07765  -0.118505  0  3.96943  0
C  C163  1  0.09298900  0.02069618  0.99173528  1  0.002328  0  -0.077684  -0.11854  0  3.969749  0
N  N164  1  0.00574654  0.52281863  0.18416630  1  -1.246326  0  -0.323505  -0.221648  0  3.552666  0
N  N165  1  0.49426206  0.02281453  0.31582944  1  -1.246496  0  -0.323467  -0.221531  0  3.552198  0
N  N166  1  0.99427990  0.47717870  0.81583731  1  -1.246175  0  -0.323387  -0.22155  0  3.551911  0
N  N167  1  0.50571570  0.97718019  0.68416525  1  -1.246196  0  -0.323398  -0.221663  0  3.552115  0
N  N168  1  0.02719405  0.50691034  0.33941029  1  -1.252027  0  -0.325519  -0.224694  0  3.564047  0
N  N169  1  0.47279678  0.00691169  0.16058758  1  -1.251536  0  -0.325599  -0.224791  0  3.564227  0
N  N170  1  0.97284561  0.49309271  0.66059285  1  -1.251655  0  -0.3256  -0.225086  0  3.564532  0
N  N171  1  0.52720057  0.99308772  0.83941187  1  -1.251904  0  -0.325524  -0.224798  0  3.564186  0
O  O172  1  0.16354973  0.66098532  0.29210831  1  -1.190053  0  -0.335736  -0.575129  0  2.112566  0
O  O173  1  0.33647364  0.16098610  0.20789725  1  -1.190206  0  -0.335797  -0.575237  0  2.112438  0
O  O174  1  0.83643755  0.33902085  0.70787709  1  -1.189872  0  -0.335716  -0.575117  0  2.112645  0
O  O175  1  0.66357071  0.83902111  0.79211885  1  -1.190011  0  -0.335717  -0.575172  0  2.112526  0
O  O176  1  0.45166291  0.59412322  0.25094238  1  -1.173096  0  -0.34313  -0.573297  0  2.320757  0
O  O177  1  0.04835104  0.09412641  0.24905500  1  -1.173103  0  -0.343089  -0.573322  0  2.320974  0
O  O178  1  0.54835706  0.40587931  0.74906513  1  -1.172866  0  -0.343115  -0.573264  0  2.320832  0
O  O179  1  0.95165965  0.90588392  0.75093483  1  -1.173104  0  -0.343151  -0.573369  0  2.320801  0
O  O180  1  0.39045157  0.87832161  0.26186206  1  -1.190573  0  -0.326701  -0.561662  0  2.132163  0
O  O181  1  0.10954944  0.37832185  0.23813574  1  -1.190659  0  -0.32663  -0.561561  0  2.132311  0
O  O182  1  0.60952060  0.12167572  0.73814113  1  -1.190734  0  -0.326642  -0.561539  0  2.132199  0
O  O183  1  0.89050412  0.62168172  0.76187244  1  -1.190991  0  -0.326635  -0.561502  0  2.132296  0
O  O184  1  0.04724408  0.93314225  0.22073704  1  -1.169511  0  -0.341545  -0.564777  0  2.276135  0
O  O185  1  0.45275352  0.43314153  0.27925752  1  -1.169466  0  -0.341429  -0.564652  0  2.27622  0
O  O186  1  0.95273996  0.06686028  0.77925465  1  -1.169419  0  -0.341456  -0.564616  0  2.27634  0
O  O187  1  0.54729329  0.56686152  0.72074723  1  -1.169993  0  -0.341508  -0.564628  0  2.276458  0
