# generated using pymatgen
data_CoH6C8(N2O)2
_symmetry_space_group_name_H-M   'P 1'
_cell_length_a   7.33400344
_cell_length_b   7.33408686
_cell_length_c   10.04312413
_cell_angle_alpha   111.40453278
_cell_angle_beta   111.40486103
_cell_angle_gamma   89.96627942
_symmetry_Int_Tables_number   1
_chemical_formula_structural   CoH6C8(N2O)2
_chemical_formula_sum   'Co2 H12 C16 N8 O4'
_cell_volume   462.74039332
_cell_formula_units_Z   2
loop_
 _symmetry_equiv_pos_site_id
 _symmetry_equiv_pos_as_xyz
  1  'x, y, z'
loop_
 _atom_site_type_symbol
 _atom_site_label
 _atom_site_symmetry_multiplicity
 _atom_site_fract_x
 _atom_site_fract_y
 _atom_site_fract_z
 _atom_site_occupancy
 _atom_site_hle17_ddec_charge
 _atom_site_hle17_ddec_spin_density
 _atom_site_hle17_ddec_sum_bond_order
 _atom_site_hle17_magmom
 _atom_site_hse06_10hf_ddec_charge
 _atom_site_hse06_10hf_ddec_spin_density
 _atom_site_hse06_10hf_ddec_sum_bond_order
 _atom_site_hse06_10hf_magmom
 _atom_site_hse06_ddec_charge
 _atom_site_hse06_ddec_spin_density
 _atom_site_hse06_ddec_sum_bond_order
 _atom_site_hse06_magmom
 _atom_site_pbe_cm5_charge
 _atom_site_pbe_ddec_charge
 _atom_site_pbe_ddec_spin_density
 _atom_site_pbe_ddec_sum_bond_order
 _atom_site_pbe_magmom
Co  Co0  1  0.49988734  0.49992190  0.99993294  1  0.874113  -2.837513  2.147042  -2.526  0.792335  -2.81212  2.601071  -2.567  0.874022  -2.859869  2.526564  -2.66  0.731542  0.730544  -2.768463  2.656218  -2.48
Co  Co1  1  0.74991892  0.24988954  0.49993201  1  0.874094  -2.837515  2.147046  -2.526  0.792389  -2.812107  2.600989  -2.567  0.874082  -2.859861  2.526498  -2.66  0.73156  0.730599  -2.768452  2.656177  -2.48
H  H2  1  0.20535265  0.37490743  0.24998383  1  0.146302  -0.000397  0.974837  -0.001  0.153365  -0.00038  1.036643  -0.001  0.157386  -0.00023  1.036267  -0.001  0.10985  0.150579  -0.000556  1.036792  -0.001
H  H3  1  0.04475558  0.87514760  0.25019885  1  0.145884  -0.000401  0.974803  -0.001  0.153048  -0.000381  1.036451  -0.001  0.157071  -0.000228  1.03614  -0.001  0.109877  0.150226  -0.000555  1.03671  -0.001
H  H4  1  0.12516307  0.79475908  0.75020682  1  0.145874  -0.000401  0.974772  -0.001  0.153019  -0.000381  1.03646  -0.001  0.157037  -0.000228  1.036148  -0.001  0.10985  0.150196  -0.000555  1.03672  -0.001
H  H5  1  0.62491939  0.95535380  0.74999186  1  0.146308  -0.000399  0.974836  -0.001  0.15341  -0.00038  1.036592  -0.001  0.157429  -0.00023  1.036221  -0.001  0.109868  0.150618  -0.000556  1.036741  -0.001
H  H6  1  0.91285778  0.41502674  0.03310951  1  0.073835  -0.000836  0.940223  -0.002  0.082932  -0.000665  1.0029  -0.002  0.084496  -0.000424  0.999365  -0.001  0.11934  0.081689  -0.000968  1.005949  -0.002
H  H7  1  0.12048646  0.61842363  0.03328184  1  0.074856  -0.000867  0.938652  -0.002  0.083872  -0.000688  1.001582  -0.002  0.085508  -0.00044  0.997999  -0.001  0.11957  0.082568  -0.000971  1.004746  -0.002
H  H8  1  0.38181510  0.08724574  0.96696082  1  0.073974  -0.000856  0.940136  -0.002  0.083423  -0.000686  1.002424  -0.002  0.084987  -0.000439  0.998907  -0.001  0.119413  0.082258  -0.000967  1.005355  -0.002
H  H9  1  0.58490819  0.87949224  0.96679576  1  0.074079  -0.000872  0.938845  -0.002  0.083107  -0.000712  1.001876  -0.002  0.084634  -0.000453  0.998442  -0.001  0.119359  0.081792  -0.00097  1.005081  -0.002
H  H10  1  0.33722768  0.13180891  0.46694747  1  0.074016  -0.000857  0.940278  -0.002  0.083483  -0.000686  1.002512  -0.002  0.085043  -0.000439  0.999001  -0.001  0.119462  0.082324  -0.000967  1.005439  -0.002
H  H11  1  0.12950472  0.33492457  0.46680999  1  0.07401  -0.000871  0.939014  -0.002  0.083074  -0.000712  1.001999  -0.002  0.084594  -0.000453  0.998582  -0.001  0.119349  0.081799  -0.00097  1.005162  -0.002
H  H12  1  0.86842175  0.87049328  0.53329775  1  0.074789  -0.000866  0.9388  -0.002  0.083894  -0.000688  1.00165  -0.002  0.085458  -0.000439  0.998139  -0.001  0.119589  0.082595  -0.00097  1.004811  -0.002
H  H13  1  0.66501545  0.66286491  0.53309815  1  0.073857  -0.000837  0.940076  -0.002  0.08293  -0.000665  1.0028  -0.002  0.084502  -0.000423  0.999253  -0.001  0.119353  0.081687  -0.000968  1.005847  -0.002
C  C14  1  0.67773444  0.37496091  0.24990367  1  0.65874  0.005149  3.897348  0.004  0.615515  -0.00304  4.182496  -0.003  0.64845  -0.001747  4.18596  -0.002  0.305478  0.592554  -0.004671  4.179386  -0.005
C  C15  1  0.57222910  0.87496970  0.24998027  1  0.657675  0.00474  3.897589  0.004  0.615169  -0.0032  4.181471  -0.003  0.648092  -0.001838  4.185036  -0.002  0.305472  0.592043  -0.004676  4.178738  -0.005
C  C16  1  0.12494780  0.32222149  0.74997540  1  0.657932  0.004741  3.897595  0.004  0.615288  -0.003199  4.181632  -0.003  0.64821  -0.001835  4.185207  -0.002  0.305524  0.592161  -0.004674  4.178905  -0.005
C  C17  1  0.62495083  0.42773065  0.74989973  1  0.658596  0.005147  3.897465  0.004  0.615438  -0.00304  4.182521  -0.003  0.648371  -0.001747  4.185985  -0.002  0.305353  0.592477  -0.004671  4.179421  -0.005
C  C18  1  0.05682470  0.37489641  0.24990903  1  -0.249582  -0.012204  3.73821  -0.018  -0.262441  -0.003535  3.992304  -0.006  -0.281137  -0.002004  4.012482  -0.004  -0.111026  -0.249377  -0.005638  3.979517  -0.009
C  C19  1  0.19326728  0.87507024  0.25018468  1  -0.247088  -0.012355  3.737111  -0.018  -0.259929  -0.003461  3.990829  -0.006  -0.278718  -0.00192  4.011101  -0.004  -0.110463  -0.246755  -0.005632  3.978035  -0.009
C  C20  1  0.12507543  0.94326111  0.75017325  1  -0.24714  -0.012358  3.737103  -0.018  -0.259966  -0.003461  3.990847  -0.006  -0.278748  -0.001923  4.011095  -0.004  -0.110448  -0.246791  -0.005632  3.978052  -0.009
C  C21  1  0.62490330  0.80682158  0.74991460  1  -0.249675  -0.012197  3.738505  -0.018  -0.262544  -0.003534  3.992557  -0.006  -0.281249  -0.002003  4.012751  -0.004  -0.111073  -0.249469  -0.005636  3.979753  -0.009
C  C22  1  0.89765577  0.39907484  0.13243372  1  0.223966  0.021991  3.704288  0.015  0.189482  -0.000846  3.961971  -0.002  0.210401  -0.001136  3.974048  -0.002  0.066846  0.173747  0.00164  3.954509  0.0
C  C23  1  0.23503644  0.73355169  0.13263128  1  0.220637  0.023061  3.702339  0.015  0.185907  -0.000502  3.960381  -0.001  0.206825  -0.001052  3.972474  -0.002  0.065157  0.170119  0.001664  3.953021  0.0
C  C24  1  0.26657449  0.10244948  0.86760749  1  0.223149  0.022923  3.702561  0.015  0.188486  -0.000655  3.960426  -0.002  0.209524  -0.001138  3.972378  -0.002  0.066883  0.172665  0.001663  3.95286  0.0
C  C25  1  0.60078767  0.76497925  0.86740308  1  0.223559  0.022164  3.701923  0.015  0.188846  -0.000834  3.95988  -0.002  0.209706  -0.001132  3.972028  -0.002  0.066066  0.173077  0.001637  3.952692  0.0
C  C26  1  0.35244964  0.01657340  0.36761642  1  0.22309  0.022929  3.702552  0.015  0.188418  -0.000657  3.960445  -0.002  0.209458  -0.001141  3.972394  -0.002  0.066869  0.172592  0.001662  3.952884  0.0
C  C27  1  0.01497108  0.35076457  0.36740004  1  0.223477  0.022165  3.70188  0.015  0.188759  -0.000833  3.959858  -0.002  0.209624  -0.00113  3.972007  -0.002  0.066089  0.172958  0.00164  3.95266  0.0
C  C28  1  0.98355085  0.98503140  0.63261739  1  0.220757  0.023061  3.702545  0.015  0.185951  -0.000505  3.960593  -0.001  0.20693  -0.001049  3.972703  -0.002  0.06519  0.170159  0.001664  3.953228  0.0
C  C29  1  0.64909734  0.64766654  0.63244342  1  0.224032  0.021999  3.703861  0.015  0.189549  -0.000846  3.961586  -0.002  0.210469  -0.001136  3.973666  -0.002  0.066908  0.173814  0.001642  3.954126  0.0
N  N30  1  0.71552858  0.40468738  0.13331794  1  -0.482325  -0.053437  3.267892  -0.081  -0.42682  -0.034953  3.568076  -0.044  -0.465112  -0.026373  3.577223  -0.032  -0.363253  -0.398834  -0.043394  3.56137  -0.055
N  N31  1  0.41796478  0.72873127  0.13339592  1  -0.482329  -0.053473  3.266751  -0.081  -0.426177  -0.034842  3.56556  -0.044  -0.464571  -0.026271  3.574952  -0.032  -0.362848  -0.398137  -0.043374  3.558846  -0.055
N  N32  1  0.27127107  0.28450452  0.86662972  1  -0.482556  -0.053539  3.266113  -0.081  -0.427289  -0.034941  3.566257  -0.044  -0.465495  -0.026346  3.575202  -0.032  -0.363425  -0.39931  -0.043338  3.559598  -0.055
N  N33  1  0.59517642  0.58200761  0.86652637  1  -0.483402  -0.053506  3.268316  -0.081  -0.427527  -0.035051  3.568329  -0.044  -0.465693  -0.026475  3.577264  -0.032  -0.363096  -0.39949  -0.043371  3.561452  -0.055
N  N34  1  0.53450455  0.02126620  0.36662969  1  -0.482461  -0.05354  3.266149  -0.081  -0.427292  -0.034942  3.566304  -0.044  -0.465501  -0.026345  3.575249  -0.032  -0.363458  -0.39931  -0.04334  3.559638  -0.055
N  N35  1  0.83201344  0.34519144  0.36654322  1  -0.483356  -0.053501  3.268316  -0.081  -0.427504  -0.03505  3.568369  -0.044  -0.465681  -0.026475  3.577322  -0.032  -0.363188  -0.399477  -0.043369  3.561511  -0.055
N  N36  1  0.97872995  0.16796616  0.63339995  1  -0.482387  -0.053469  3.267052  -0.081  -0.426221  -0.034842  3.565959  -0.044  -0.464597  -0.026273  3.575282  -0.032  -0.36288  -0.398186  -0.043374  3.559252  -0.055
N  N37  1  0.65467283  0.46552233  0.63330217  1  -0.482272  -0.053443  3.267363  -0.081  -0.42683  -0.034955  3.567605  -0.044  -0.465097  -0.026374  3.576685  -0.032  -0.363244  -0.398851  -0.043396  3.560911  -0.055
O  O38  1  0.50683819  0.37499052  0.24992271  1  -0.622126  -0.009765  1.894575  -0.016  -0.592804  -0.014124  2.128117  -0.022  -0.620386  -0.010174  2.12313  -0.017  -0.315311  -0.571023  -0.019569  2.130341  -0.031
O  O39  1  0.74308712  0.87494650  0.24990983  1  -0.621328  -0.010016  1.894844  -0.016  -0.592401  -0.014391  2.127871  -0.023  -0.619896  -0.010318  2.122667  -0.017  -0.315379  -0.57084  -0.019501  2.130648  -0.031
O  O40  1  0.12493729  0.49307004  0.74988585  1  -0.621456  -0.010019  1.89484  -0.016  -0.592513  -0.014394  2.127963  -0.023  -0.620014  -0.01032  2.122765  -0.017  -0.315438  -0.570943  -0.019505  2.13073  -0.031
O  O41  1  0.62498224  0.25683382  0.74990223  1  -0.622118  -0.009761  1.894739  -0.016  -0.592834  -0.014121  2.128264  -0.022  -0.62041  -0.010173  2.123259  -0.017  -0.31529  -0.57105  -0.019565  2.130487  -0.031
