# generated using pymatgen
data_Cu4H70C69(N5O6)2
_symmetry_space_group_name_H-M   'P 1'
_cell_length_a   9.14387011
_cell_length_b   14.73478296
_cell_length_c   27.15595329
_cell_angle_alpha   89.98736602
_cell_angle_beta   90.00862918
_cell_angle_gamma   90.00343019
_symmetry_Int_Tables_number   1
_chemical_formula_structural   Cu4H70C69(N5O6)2
_chemical_formula_sum   'Cu8 H140 C138 N20 O24'
_cell_volume   3658.80132875
_cell_formula_units_Z   2
loop_
 _symmetry_equiv_pos_site_id
 _symmetry_equiv_pos_as_xyz
  1  'x, y, z'
loop_
 _atom_site_type_symbol
 _atom_site_label
 _atom_site_symmetry_multiplicity
 _atom_site_fract_x
 _atom_site_fract_y
 _atom_site_fract_z
 _atom_site_occupancy
 _atom_site_pbe_bader_charge
 _atom_site_pbe_bader_spin_density
 _atom_site_pbe_cm5_charge
 _atom_site_pbe_ddec_charge
 _atom_site_pbe_ddec_spin_density
 _atom_site_pbe_ddec_sum_bond_order
 _atom_site_pbe_magmom
Cu  Cu0  1  0.10676057  0.03622119  0.43340609  1  1.04285  0.449727  0.677656  0.808646  0.60478  2.267382  0.449
Cu  Cu1  1  0.10671450  0.96386238  0.56647169  1  1.04245  -0.450014  0.677911  0.80872  -0.605098  2.266817  -0.449
Cu  Cu2  1  0.89339320  0.53626819  0.06655260  1  1.04547  -0.474409  0.680135  0.812575  -0.635768  2.267612  -0.473
Cu  Cu3  1  0.60803584  0.05420078  0.43739154  1  1.045468  0.456814  0.75903  0.719701  0.613715  2.356072  0.455
Cu  Cu4  1  0.39213017  0.44594754  0.93742495  1  1.043401  -0.459392  0.756206  0.716428  -0.616256  2.353341  -0.458
Cu  Cu5  1  0.89346823  0.46380452  0.93357751  1  1.044621  0.474658  0.68053  0.812485  0.636154  2.268314  0.473
Cu  Cu6  1  0.39201687  0.55421514  0.06263754  1  1.042655  0.459114  0.756221  0.71707  0.615736  2.352221  0.458
Cu  Cu7  1  0.60797426  0.94593263  0.56251886  1  1.046201  -0.456642  0.758551  0.719086  -0.613594  2.355149  -0.455
H  H8  1  0.08140515  0.47471339  0.31508618  1  0.026625  -4e-06  0.096011  0.100254  -2e-06  0.965048  0.0
H  H9  1  0.30888864  0.71173153  0.22876083  1  0.072424  0.001161  0.106805  0.115337  0.000615  1.004081  0.001
H  H10  1  0.48635368  0.46217181  0.20766596  1  0.041587  -4.3e-05  0.105668  0.074656  -4.4e-05  0.997566  0.0
H  H11  1  0.09297240  0.15336401  0.52766130  1  0.143349  -0.001214  0.124024  0.111674  -0.000629  1.00699  -0.001
H  H12  1  0.51503461  0.72464279  0.38967664  1  0.075566  0.000816  0.103051  0.111872  0.000427  1.00679  0.0
H  H13  1  0.94134534  0.06605609  0.10869905  1  0.02547  -2.8e-05  0.089695  0.080336  -2.3e-05  0.988746  0.0
H  H14  1  0.16843071  0.32995989  0.97802611  1  0.153772  -0.001663  0.123739  0.10924  -0.000836  1.029583  -0.001
H  H15  1  0.13918635  0.58699019  0.63284294  1  0.098719  1.7e-05  0.101093  0.128612  -3.2e-05  0.985208  0.0
H  H16  1  0.87513457  0.19097726  0.06046621  1  0.059762  -0.000551  0.104405  0.107708  -0.00028  1.017889  0.0
H  H17  1  0.46032395  0.87672939  0.42704617  1  0.141225  0.001625  0.117581  0.098252  0.000813  1.018194  0.001
H  H18  1  0.23358742  0.81113376  0.29860137  1  0.119438  0.000701  0.10535  0.113371  0.000396  1.022424  0.0
H  H19  1  0.51499643  0.23454835  0.71860953  1  0.040791  -4.8e-05  0.089947  0.088808  -3.2e-05  1.017667  0.0
H  H20  1  0.38080777  0.19605959  0.46377072  1  0.176404  0.001572  0.122404  0.107275  0.000806  1.008839  0.001
H  H21  1  0.24774550  0.55556978  0.40330014  1  0.010028  -6e-06  0.084855  0.072622  -1e-06  0.995667  0.0
H  H22  1  0.33969848  0.08641900  0.38996994  1  0.14975  0.0011  0.112082  0.070642  9e-05  1.100057  0.001
H  H23  1  0.05866586  0.56598623  0.39132419  1  0.024513  1.5e-05  0.089622  0.080426  1.1e-05  0.988633  0.0
H  H24  1  0.38376675  0.34935769  0.50271883  1  0.071443  0.001011  0.104223  0.110035  0.00055  1.004951  0.0
H  H25  1  0.16845932  0.67019516  0.02201132  1  0.155655  0.001661  0.123666  0.108971  0.000836  1.0292  0.001
H  H26  1  0.61610148  0.15052414  0.00273507  1  0.070456  -0.000918  0.104305  0.110024  -0.000474  1.004901  0.0
H  H27  1  0.24766491  0.44440635  0.59666329  1  0.010026  7e-06  0.084931  0.072639  1e-06  0.995569  0.0
H  H28  1  0.34008998  0.12050496  0.84110988  1  0.081956  -1.1e-05  0.111764  0.082497  -1e-05  0.973142  0.0
H  H29  1  0.48550778  0.26539371  0.21849633  1  0.037203  1.2e-05  0.089935  0.088747  7e-06  1.018601  0.0
H  H30  1  0.24373203  0.50729872  0.75478460  1  0.07537  2.7e-05  0.102341  0.108441  2.5e-05  1.009224  0.0
H  H31  1  0.46925285  0.02548946  0.04233158  1  0.027329  -5.1e-05  0.09246  0.08909  -3.3e-05  0.996015  0.0
H  H32  1  0.85178096  0.32023666  0.51946442  1  0.083742  0.000866  0.108734  0.113957  0.000459  0.99666  0.0
H  H33  1  0.30694841  0.36112612  0.67427045  1  0.050444  0.000152  0.095138  0.09722  7.1e-05  1.005109  0.0
H  H34  1  0.44747588  0.11773007  0.18216777  1  0.013311  4.7e-05  0.083131  0.072022  2.9e-05  1.017352  0.0
H  H35  1  0.46943702  0.97449018  0.95753197  1  0.025872  5.1e-05  0.092552  0.089171  3.3e-05  0.996649  0.0
H  H36  1  0.57635919  0.90548071  0.11558164  1  0.058842  1.8e-05  0.102231  0.109003  1.5e-05  1.006987  0.0
H  H37  1  0.53964830  0.37662104  0.07294912  1  0.146174  0.001718  0.117479  0.098201  0.000842  1.017976  0.001
H  H38  1  0.24327345  0.15300811  0.31236578  1  0.132089  0.00077  0.111765  0.13383  0.000483  0.997689  0.0
H  H39  1  0.61623651  0.84951862  0.99725604  1  0.068922  0.000918  0.104369  0.110333  0.000473  1.004844  0.0
H  H40  1  0.83172379  0.82987748  0.52200487  1  0.15422  -0.001486  0.123947  0.109687  -0.000652  1.028977  -0.001
H  H41  1  0.19758960  0.95487129  0.02103613  1  0.033716  6.9e-05  0.094387  0.089067  4.2e-05  0.994374  0.0
H  H42  1  0.08708573  0.34074076  0.16787211  1  0.078148  0.000878  0.101062  0.106249  0.000465  1.034697  0.0
H  H43  1  0.30960460  0.26689985  0.24492204  1  0.029249  -0.000102  0.098808  0.10605  -5.3e-05  0.975862  0.0
H  H44  1  0.24368834  0.49274783  0.24524232  1  0.075645  -2.7e-05  0.102566  0.108703  -2.5e-05  1.009371  0.0
H  H45  1  0.75235299  0.94432683  0.90334884  1  0.010152  3.1e-05  0.084844  0.072407  2.5e-05  0.995987  0.0
H  H46  1  0.15529655  0.48647361  0.12675555  1  0.149004  0.001783  0.119986  0.09525  0.000934  1.030267  0.001
H  H47  1  0.80231801  0.45488321  0.47896195  1  0.034137  3.9e-05  0.094455  0.089197  1.7e-05  0.994553  0.0
H  H48  1  0.83168877  0.17023437  0.47792361  1  0.154751  0.00149  0.124025  0.109902  0.000654  1.02911  0.001
H  H49  1  0.57637684  0.09440854  0.88443211  1  0.058771  -1.8e-05  0.102423  0.109209  -1.5e-05  1.006796  0.0
H  H50  1  0.44683670  0.88234174  0.81759447  1  0.02062  -4.7e-05  0.083393  0.07199  -2.9e-05  1.017195  0.0
H  H51  1  0.81087811  0.53826895  0.83682973  1  0.11547  0.000928  0.120971  0.096649  0.000373  0.992097  0.001
H  H52  1  0.30917446  0.28837377  0.77132098  1  0.076797  -0.00116  0.106845  0.1152  -0.000615  1.003406  -0.001
H  H53  1  0.85193952  0.67969402  0.48067058  1  0.085975  -0.000863  0.108948  0.11412  -0.000458  0.995934  0.0
H  H54  1  0.48640496  0.53790955  0.79237558  1  0.041853  4.3e-05  0.105687  0.074724  4.4e-05  0.997599  0.0
H  H55  1  0.76909574  0.85525382  0.64826835  1  0.150994  -0.001794  0.121412  0.102589  -0.000925  1.002881  -0.001
H  H56  1  0.81118221  0.46165003  0.16333779  1  0.114445  -0.000925  0.121179  0.096887  -0.000372  0.990997  -0.001
H  H57  1  0.30568802  0.08994950  0.22286738  1  0.060838  1e-06  0.09309  0.094027  2e-06  0.998851  0.0
H  H58  1  0.53947994  0.62365438  0.92696513  1  0.149836  -0.001712  0.117309  0.09781  -0.000841  1.018042  -0.001
H  H59  1  0.09354801  0.84668241  0.47226661  1  0.146022  0.001215  0.124085  0.112028  0.000628  1.006995  0.001
H  H60  1  0.90721428  0.65330156  0.97234440  1  0.144353  0.001227  0.124122  0.111827  0.000644  1.00745  0.001
H  H61  1  0.78153281  0.37140267  0.63656501  1  0.032251  0.000159  0.093381  0.091464  8.5e-05  0.997594  0.0
H  H62  1  0.91299900  0.84084613  0.33218824  1  0.086011  0.000802  0.101076  0.106113  0.000423  1.034614  0.0
H  H63  1  0.87549929  0.80904728  0.93959118  1  0.057244  0.00055  0.104399  0.107743  0.000279  1.017766  0.0
H  H64  1  0.12455039  0.30912203  0.56041356  1  0.05689  -0.000493  0.10423  0.10755  -0.000236  1.017973  0.0
H  H65  1  0.75706680  0.34684624  0.81254973  1  0.128519  -0.000828  0.111601  0.133374  -0.000374  0.998274  0.0
H  H66  1  0.51355624  0.03790904  0.70765312  1  0.042165  3.8e-05  0.105695  0.074505  3e-05  0.997985  0.0
H  H67  1  0.90671445  0.34670922  0.02774259  1  0.145286  -0.001228  0.124002  0.111866  -0.000642  1.007441  -0.001
H  H68  1  0.23085447  0.35530915  0.85157914  1  0.151088  -0.00173  0.120921  0.101936  -0.000722  1.002994  -0.001
H  H69  1  0.91853818  0.02514123  0.81509373  1  0.026606  -4e-06  0.096001  0.099963  -2e-06  0.965425  0.0
H  H70  1  0.46055950  0.12348741  0.57300104  1  0.147562  -0.001612  0.117342  0.098057  -0.000809  1.018468  -0.001
H  H71  1  0.05864864  0.43391975  0.60870137  1  0.02534  -1.5e-05  0.089644  0.080277  -1.1e-05  0.988956  0.0
H  H72  1  0.53045362  0.47432465  0.54246588  1  0.028016  5.1e-05  0.092276  0.088878  3e-05  0.996599  0.0
H  H73  1  0.75624371  0.00727703  0.74523340  1  0.075845  -1.7e-05  0.102468  0.108582  -1.7e-05  1.009278  0.0
H  H74  1  0.91319260  0.15901827  0.66796683  1  0.076783  -0.000806  0.100912  0.105865  -0.000422  1.034587  0.0
H  H75  1  0.38085421  0.80397648  0.53610303  1  0.177735  -0.001566  0.122445  0.10755  -0.000805  1.009087  -0.001
H  H76  1  0.24291653  0.84696994  0.68738420  1  0.128715  -0.000777  0.111651  0.133224  -0.000489  0.998226  0.0
H  H77  1  0.30780357  0.93698997  0.92854343  1  0.034014  -0.000136  0.09593  0.094651  -7e-05  0.997234  0.0
H  H78  1  0.21894813  0.12842478  0.13645603  1  0.031614  -0.00016  0.093225  0.09127  -8.6e-05  0.996949  0.0
H  H79  1  0.94136715  0.93384672  0.89130795  1  0.02609  2.8e-05  0.089608  0.080225  2.3e-05  0.989003  0.0
H  H80  1  0.48447927  0.77565032  0.88949655  1  0.07309  -0.000862  0.102886  0.111552  -0.000453  1.00684  0.0
H  H81  1  0.23061519  0.64491813  0.14846699  1  0.151299  0.001729  0.121048  0.101858  0.000723  1.002932  0.001
H  H82  1  0.42369480  0.59443038  0.61558063  1  0.059114  1.9e-05  0.102295  0.108956  1.5e-05  1.00686  0.0
H  H83  1  0.30915615  0.73306912  0.75482138  1  0.020796  0.000102  0.098796  0.106107  5.3e-05  0.975268  0.0
H  H84  1  0.12275964  0.35802465  0.69065202  1  0.054117  0.000201  0.099181  0.100749  0.000102  0.975774  0.0
H  H85  1  0.18890978  0.96162351  0.33663040  1  0.112674  0.000915  0.121222  0.096912  0.00036  0.991078  0.001
H  H86  1  0.80210539  0.54510394  0.52138924  1  0.02506  -3.8e-05  0.094362  0.089129  -1.6e-05  0.994901  0.0
H  H87  1  0.69240567  0.56290315  0.42875190  1  0.036593  0.000137  0.096156  0.095356  7.1e-05  0.997675  0.0
H  H88  1  0.86079109  0.91295121  0.13284729  1  0.09797  1.9e-05  0.101186  0.128668  -3e-05  0.985247  0.0
H  H89  1  0.75627105  0.99274514  0.25476671  1  0.075583  1.7e-05  0.102503  0.108722  1.8e-05  1.009337  0.0
H  H90  1  0.86794921  0.31060369  0.68447932  1  0.029787  -3.8e-05  0.095181  0.096176  -2.7e-05  0.985765  0.0
H  H91  1  0.69081852  0.78838946  0.72855330  1  0.079131  -0.001068  0.107086  0.115442  -0.000545  1.003635  -0.001
H  H92  1  0.61931439  0.69618475  0.03618615  1  0.175289  0.00149  0.122309  0.107146  0.000659  1.008931  0.001
H  H93  1  0.66043557  0.41342689  0.89009349  1  0.186365  -0.002407  0.111682  0.069858  -0.001543  1.10044  -0.002
H  H94  1  0.75677240  0.65309514  0.18768904  1  0.131496  0.00083  0.111607  0.133372  0.000379  0.998252  0.0
H  H95  1  0.48490548  0.22453621  0.11033500  1  0.072557  0.000864  0.102934  0.112039  0.000454  1.006588  0.0
H  H96  1  0.84480988  0.98656313  0.37327522  1  0.148739  0.001263  0.120056  0.095726  0.000484  1.030776  0.001
H  H97  1  0.55317628  0.38228851  0.68231939  1  0.018924  -4e-05  0.083335  0.072115  -2.5e-05  1.016959  0.0
H  H98  1  0.76638070  0.31116351  0.20138887  1  0.119923  -0.00061  0.105446  0.113413  -0.000324  1.022199  0.0
H  H99  1  0.18916625  0.03830635  0.66320740  1  0.115928  -0.000917  0.120813  0.096502  -0.00036  0.992139  -0.001
H  H100  1  0.13255954  0.18916289  0.18437743  1  0.031812  4.4e-05  0.095322  0.096487  3.1e-05  0.985357  0.0
H  H101  1  0.61926496  0.30390493  0.96388981  1  0.176334  -0.001488  0.122162  0.10696  -0.000657  1.009549  -0.001
H  H102  1  0.34009231  0.87938638  0.15889436  1  0.082362  1.1e-05  0.111639  0.082257  1.1e-05  0.973202  0.0
H  H103  1  0.12495539  0.69093776  0.43956198  1  0.058732  0.000494  0.104325  0.107467  0.000237  1.017979  0.0
H  H104  1  0.15529714  0.51346516  0.87319800  1  0.148333  -0.00178  0.12005  0.095572  -0.000933  1.030187  -0.001
H  H105  1  0.86083098  0.08693639  0.86717400  1  0.098773  -1.9e-05  0.101177  0.128635  3e-05  0.985522  0.0
H  H106  1  0.78109645  0.62854913  0.36364481  1  0.028993  -0.00016  0.093284  0.091407  -8.6e-05  0.997174  0.0
H  H107  1  0.33947215  0.91358162  0.60981700  1  0.183604  -0.001059  0.111691  0.069815  -8.7e-05  1.100217  -0.001
H  H108  1  0.66025455  0.58655639  0.11010462  1  0.152262  0.002443  0.111775  0.070004  0.001542  1.099512  0.002
H  H109  1  0.23399885  0.18874551  0.70126782  1  0.121245  -0.000699  0.105241  0.113099  -0.000395  1.022887  0.0
H  H110  1  0.14826104  0.82024042  0.98050290  1  0.054664  0.000901  0.108617  0.11369  0.00047  0.996877  0.0
H  H111  1  0.42366834  0.40547220  0.38443562  1  0.05823  -1.9e-05  0.102216  0.108996  -1.5e-05  1.007066  0.0
H  H112  1  0.69301225  0.86109087  0.82575826  1  0.050031  -0.000195  0.094887  0.097062  -0.000105  1.004922  0.0
H  H113  1  0.76597908  0.68871716  0.79875426  1  0.073916  0.000627  0.105288  0.11304  0.000325  1.02281  0.0
H  H114  1  0.86752042  0.68926921  0.31571099  1  0.035142  3.8e-05  0.095196  0.096292  2.7e-05  0.985372  0.0
H  H115  1  0.08685791  0.65905500  0.83198000  1  0.080985  -0.000876  0.100877  0.105695  -0.000465  1.034848  0.0
H  H116  1  0.76938833  0.14491748  0.35166060  1  0.151463  0.001792  0.121438  0.102486  0.000923  1.003423  0.001
H  H117  1  0.91859077  0.97470304  0.18492905  1  0.026726  4e-06  0.096033  0.100283  2e-06  0.965179  0.0
H  H118  1  0.30747071  0.06286898  0.07126435  1  0.035875  0.000135  0.095947  0.094894  6.9e-05  0.997581  0.0
H  H119  1  0.65997543  0.62051322  0.65891042  1  0.093152  1.7e-05  0.111727  0.082464  1.4e-05  0.973119  0.0
H  H120  1  0.30662638  0.63874093  0.32561536  1  0.049571  -0.000151  0.095032  0.097209  -7e-05  1.004264  0.0
H  H121  1  0.14808156  0.17976868  0.01937000  1  0.085863  -0.000889  0.108734  0.113911  -0.000472  0.996212  0.0
H  H122  1  0.19778761  0.04516413  0.97863345  1  0.024546  -6.9e-05  0.094225  0.088716  -4.2e-05  0.995075  0.0
H  H123  1  0.69443050  0.59001616  0.27722923  1  0.054503  2e-06  0.093254  0.093941  2e-06  0.998714  0.0
H  H124  1  0.87718430  0.85802666  0.80934760  1  0.054199  -0.000209  0.099204  0.100675  -0.00011  0.975674  0.0
H  H125  1  0.08148959  0.52514390  0.68491957  1  0.026307  3e-06  0.096036  0.100047  2e-06  0.965322  0.0
H  H126  1  0.69083916  0.23300498  0.74512065  1  0.020904  7.6e-05  0.098703  0.106021  3.2e-05  0.975557  0.0
H  H127  1  0.75226360  0.05562934  0.09671773  1  0.010836  -3.1e-05  0.084767  0.072335  -2.5e-05  0.99581  0.0
H  H128  1  0.38387522  0.65060518  0.49727328  1  0.07149  -0.001007  0.104328  0.110177  -0.000548  1.004834  0.0
H  H129  1  0.30492083  0.90995484  0.77690603  1  0.056444  -1e-06  0.093161  0.093656  -2e-06  0.998993  0.0
H  H130  1  0.12233881  0.64183824  0.30933705  1  0.050674  -0.0002  0.099227  0.100801  -0.000102  0.975349  0.0
H  H131  1  0.51357761  0.96215908  0.29233531  1  0.041941  -3.8e-05  0.105664  0.074652  -3e-05  0.997779  0.0
H  H132  1  0.87760862  0.14183984  0.19068964  1  0.051464  0.000209  0.099443  0.101141  0.000109  0.975155  0.0
H  H133  1  0.69049488  0.76696855  0.25513020  1  0.031295  -7.6e-05  0.098804  0.105966  -3.2e-05  0.975757  0.0
H  H134  1  0.69512325  0.40987745  0.72299790  1  0.058154  -3e-06  0.093088  0.093619  -2e-06  0.998828  0.0
H  H135  1  0.84488479  0.01342500  0.62675962  1  0.147254  -0.001258  0.120134  0.095802  -0.000481  1.030391  -0.001
H  H136  1  0.69211190  0.43684649  0.57145006  1  0.034598  -0.000138  0.096028  0.094837  -7.1e-05  0.997232  0.0
H  H137  1  0.51542610  0.27549052  0.61047169  1  0.074927  -0.000812  0.102913  0.111756  -0.000425  1.006885  0.0
H  H138  1  0.53062868  0.52553436  0.45769467  1  0.027328  -5.1e-05  0.092417  0.089203  -3e-05  0.9962  0.0
H  H139  1  0.13916061  0.41290317  0.36716134  1  0.097185  -1.7e-05  0.101285  0.128778  3.3e-05  0.985241  0.0
H  H140  1  0.48501106  0.73461979  0.78132495  1  0.043349  -1.2e-05  0.090033  0.088796  -7e-06  1.017653  0.0
H  H141  1  0.69120662  0.21169546  0.27135030  1  0.075469  0.001071  0.106925  0.115659  0.000545  1.003745  0.001
H  H142  1  0.21849225  0.87149465  0.86334610  1  0.034686  0.000159  0.093286  0.091452  8.6e-05  0.997329  0.0
H  H143  1  0.55262563  0.61778374  0.31791115  1  0.012248  4e-05  0.083033  0.071892  2.5e-05  1.01735  0.0
H  H144  1  0.65990099  0.37937506  0.34111128  1  0.082807  -1.7e-05  0.111624  0.082175  -1.4e-05  0.973346  0.0
H  H145  1  0.51460140  0.76543630  0.28156125  1  0.034654  4.7e-05  0.090019  0.08864  3.2e-05  1.018368  0.0
H  H146  1  0.69333386  0.13875723  0.17438703  1  0.049261  0.000195  0.095013  0.097152  0.000105  1.004684  0.0
H  H147  1  0.13203281  0.81068886  0.81544938  1  0.02736  -4.5e-05  0.09514  0.095928  -3.1e-05  0.985665  0.0
C  C148  1  0.26470351  0.28822769  0.98512638  1  0.498574  0.000769  0.048707  0.100404  -3.3e-05  3.913432  0.001
C  C149  1  0.17451259  0.50009002  0.99999701  1  2.160246  -2e-06  0.246687  0.798157  -2e-06  4.285416  0.0
C  C150  1  0.16761990  0.52895178  0.65663272  1  0.00507  -5.6e-05  -0.156216  -0.207496  -1.5e-05  3.90876  0.0
C  C151  1  0.83361807  0.93997807  0.87342367  1  -0.013167  3.3e-05  -0.159502  -0.127634  3.6e-05  3.94865  0.0
C  C152  1  0.40789856  0.71963069  0.88485660  1  -0.066555  -0.004141  -0.090748  -0.191558  -0.002849  3.964345  -0.003
C  C153  1  0.60904154  0.81655968  0.70366327  1  -0.123954  -0.005149  -0.085939  -0.187204  -0.003554  3.95754  -0.004
C  C154  1  0.76277215  0.68048613  0.33507807  1  -0.019783  9.7e-05  -0.155702  -0.195817  6.2e-05  3.949898  0.0
C  C155  1  0.63887229  0.65129438  0.18151769  1  -0.105241  0.005004  -0.081571  -0.174566  0.003465  3.911125  0.004
C  C156  1  0.17984785  0.73562569  0.36546978  1  0.011171  -0.003621  0.006005  0.152014  -0.002426  3.953981  -0.002
C  C157  1  0.17768873  0.89945582  0.35813630  1  0.448031  -0.001681  0.047198  0.093999  -0.000779  3.950398  -0.001
C  C158  1  0.34622221  0.35345934  0.84094071  1  0.492937  0.000733  0.046406  0.088299  -0.000296  3.9406  0.0
C  C159  1  0.53979318  0.31398895  0.78432949  1  0.024375  0.00331  0.011791  0.166036  0.002253  3.95774  0.002
C  C160  1  0.82012998  0.76427001  0.86555674  1  0.015842  -0.003376  0.006008  0.152858  -0.002268  3.952974  -0.002
C  C161  1  0.55987614  0.13589301  0.59417130  1  0.482803  0.001143  0.043977  0.095363  0.000224  3.93603  0.001
C  C162  1  0.38094769  0.15163990  0.01445717  1  -0.051196  0.003139  0.005473  0.149448  0.002118  3.986913  0.002
C  C163  1  0.87893266  0.66418044  0.93370914  1  0.416334  -0.002209  0.052224  0.109564  -0.00124  3.897317  -0.002
C  C164  1  0.51403738  0.81207279  0.00148873  1  -0.068767  0.004302  -0.090986  -0.201212  0.002903  3.968587  0.003
C  C165  1  0.83242168  0.97096910  0.15664377  1  0.004257  -5.7e-05  -0.156222  -0.207667  -1.3e-05  3.908866  0.0
C  C166  1  0.79890571  0.68526773  0.83738367  1  -0.100471  0.003079  -0.090298  -0.199863  0.002133  3.95962  0.002
C  C167  1  0.56672501  0.92082671  0.15480649  1  -0.096108  1.4e-05  -0.09168  -0.195924  9e-06  3.947999  0.0
C  C168  1  0.18789838  0.65466637  0.85308614  1  -0.00225  -0.004305  -0.090873  -0.189127  -0.003064  3.958014  -0.003
C  C169  1  0.40819115  0.28046884  0.11499423  1  -0.060394  0.004132  -0.091116  -0.192578  0.002853  3.964983  0.003
C  C170  1  0.74482575  0.29561300  0.50775964  1  -0.083283  0.004431  -0.085365  -0.1805  0.003069  3.962086  0.004
C  C171  1  0.64804058  0.35351629  0.70181392  1  -0.027815  0.000323  -0.160956  -0.131683  0.000224  3.908836  0.0
C  C172  1  0.51676452  0.72634267  0.02337679  1  0.519011  -0.001474  0.053082  0.103638  -0.000451  3.907834  -0.001
C  C173  1  0.68784200  0.95290004  0.18137496  1  -0.080158  8e-06  0.009326  0.169329  7e-06  3.941608  0.0
C  C174  1  0.82241148  0.39948742  0.14184927  1  0.446431  0.001517  0.047471  0.094026  0.000644  3.950426  0.001
C  C175  1  0.22594380  0.42687354  0.12455956  1  0.415685  -0.000811  0.047769  0.097622  -6.6e-05  3.933664  -0.001
C  C176  1  0.73537647  0.21190871  0.48506257  1  0.499406  -0.000964  0.048961  0.100117  -0.000138  3.912916  -0.001
C  C177  1  0.23682904  0.81953125  0.83480087  1  -0.023054  -9.2e-05  -0.155634  -0.195683  -5.9e-05  3.949977  0.0
C  C178  1  0.06693771  0.18292079  0.39411724  1  2.107838  -0.008602  0.210816  0.778281  -0.006338  4.357971  -0.009
C  C179  1  0.43452783  0.09430209  0.82088957  1  0.53381  2e-06  0.03546  0.084278  8e-06  4.03344  0.0
C  C180  1  0.77425407  0.07302935  0.62460297  1  0.418375  0.001099  0.047693  0.097233  0.000268  3.934415  0.001
C  C181  1  0.82019939  0.23565611  0.13454386  1  0.013565  0.003368  0.006194  0.152165  0.002263  3.954071  0.002
C  C182  1  0.83365392  0.05994585  0.12661944  1  -0.014142  -3.3e-05  -0.159505  -0.127739  -3.6e-05  3.947762  0.0
C  C183  1  0.59208343  0.21951257  0.61510802  1  -0.071952  -0.00411  -0.090499  -0.19113  -0.00283  3.963668  -0.003
C  C184  1  0.20089338  0.81460617  0.33724526  1  -0.074614  0.00319  -0.090681  -0.200272  0.002242  3.958862  0.002
C  C185  1  0.26474830  0.71190380  0.01488210  1  0.498678  -0.000777  0.049315  0.101017  2.7e-05  3.912095  -0.001
C  C186  1  0.18809867  0.34521594  0.14676892  1  0.003641  0.004305  -0.090904  -0.189573  0.003068  3.957816  0.003
C  C187  1  0.46964565  0.54915664  0.75296802  1  0.499027  3.2e-05  0.036711  0.091591  3.2e-05  4.029272  0.0
C  C188  1  0.73543712  0.78816563  0.51490148  1  0.499358  0.000955  0.049075  0.100467  0.000134  3.913218  0.001
C  C189  1  0.16634685  0.55989677  0.37340049  1  -0.012429  2.8e-05  -0.15955  -0.128175  2.8e-05  3.948029  0.0
C  C190  1  0.46019790  0.81406786  0.71559106  1  0.027429  0.003374  0.012088  0.165929  0.002281  3.957725  0.002
C  C191  1  0.76317132  0.31945005  0.66512124  1  -0.021636  -9.5e-05  -0.156096  -0.196269  -6.1e-05  3.950867  0.0
C  C192  1  0.16756951  0.47094740  0.34337375  1  0.004673  5.7e-05  -0.156187  -0.20775  1.5e-05  3.909161  0.0
C  C193  1  0.39068958  0.68357209  0.20389750  1  -0.126491  0.005154  -0.086462  -0.188871  0.003551  3.959102  0.004
C  C194  1  0.14116136  0.74840575  0.41487671  1  -0.085032  0.002916  -0.091539  -0.196442  0.00198  3.954455  0.002
C  C195  1  0.25509503  0.20441609  0.00772446  1  -0.084698  -0.004456  -0.08523  -0.180196  -0.003093  3.961057  -0.003
C  C196  1  0.31214526  0.45289173  0.31864178  1  -0.07951  1e-06  0.009489  0.169496  -3e-06  3.941523  0.0
C  C197  1  0.82228257  0.60044352  0.85829673  1  0.51696  -0.001585  0.047383  0.094041  -0.000645  3.952266  -0.001
C  C198  1  0.48339841  0.77380748  0.52333898  1  0.515436  0.001525  0.052773  0.102649  0.000404  3.90922  0.001
C  C199  1  0.12158065  0.83578394  0.43361604  1  0.487223  -0.002304  0.051583  0.108508  -0.001244  3.898333  -0.002
C  C200  1  0.81195149  0.84531238  0.35327469  1  -0.003942  0.004212  -0.09098  -0.189085  0.00299  3.957371  0.003
C  C201  1  0.48599534  0.31195440  0.49847968  1  -0.072927  0.004324  -0.090958  -0.201079  0.002956  3.967521  0.003
C  C202  1  0.60937671  0.18352017  0.29620043  1  -0.124573  0.005157  -0.085878  -0.187771  0.003563  3.957998  0.004
C  C203  1  0.66667470  0.96814785  0.23179560  1  0.007469  2e-06  -0.094081  -0.209327  -2e-06  3.970827  0.0
C  C204  1  0.44015794  0.63600313  0.90579191  1  0.516716  0.001129  0.043669  0.095328  0.000174  3.93709  0.001
C  C205  1  0.58734738  0.38531879  0.86225005  1  0.47024  0.000858  0.041616  0.094741  5e-05  3.942726  0.001
C  C206  1  0.25522810  0.79564109  0.99220509  1  -0.054931  0.004434  -0.085728  -0.180687  0.003088  3.961551  0.003
C  C207  1  0.43327775  0.42081685  0.34520635  1  -0.096114  -3e-05  -0.091776  -0.195861  -2.9e-05  3.948034  0.0
C  C208  1  0.27758298  0.73077123  0.85842562  1  -0.020755  0.002926  0.007847  0.159551  0.001987  3.959361  0.002
C  C209  1  0.20110470  0.18531462  0.66263956  1  -0.148707  -0.003245  -0.090521  -0.200257  -0.002239  3.959517  -0.002
C  C210  1  0.23728947  0.18039091  0.16499593  1  -0.021691  9.3e-05  -0.155991  -0.196106  5.9e-05  3.950509  0.0
C  C211  1  0.66664461  0.03183841  0.76821208  1  -0.000209  -2e-06  -0.093995  -0.20931  2e-06  3.97072  0.0
C  C212  1  0.36303128  0.94201397  0.96446006  1  -0.023223  0.000105  -0.156073  -0.197362  6.5e-05  3.93813  0.0
C  C213  1  0.41257074  0.88543439  0.63765754  1  0.470174  0.001894  0.041905  0.095581  0.000772  3.940006  0.001
C  C214  1  0.14093127  0.25160510  0.58506395  1  -0.016767  -0.002865  -0.091347  -0.197009  -0.001977  3.953625  -0.002
C  C215  1  0.59179152  0.78056726  0.38502619  1  -0.062627  0.004113  -0.090937  -0.191763  0.002841  3.964846  0.003
C  C216  1  0.12120367  0.16424791  0.56630373  1  0.418326  0.002271  0.051772  0.109139  0.001259  3.896982  0.002
C  C217  1  0.65405194  0.14666304  0.34095124  1  0.493389  -0.000886  0.045919  0.087475  0.000205  3.939864  0.0
C  C218  1  0.40336726  0.22252123  0.23658233  1  -0.003121  0.000135  -0.161966  -0.207226  7.9e-05  3.944081  0.0
C  C219  1  0.87861186  0.33582115  0.06638967  1  0.421366  0.0022  0.051827  0.108986  0.001228  3.89753  0.002
C  C220  1  0.43454494  0.90563551  0.17910956  1  0.533047  -2e-06  0.035561  0.084626  -8e-06  4.03326  0.0
C  C221  1  0.85913146  0.75154045  0.91494656  1  -0.015774  0.00279  -0.091246  -0.196874  0.001939  3.952818  0.002
C  C222  1  0.46055754  0.18598679  0.28422599  1  0.021265  -0.003374  0.012443  0.166453  -0.002282  3.9575  -0.002
C  C223  1  0.26952235  0.00000337  0.99986537  1  0.001842  0.0  -0.157415  -0.130864  0.0  3.880775  0.0
C  C224  1  0.63687920  0.44189458  0.53553320  1  -0.024746  0.000102  -0.155952  -0.197149  5.9e-05  3.937179  0.0
C  C225  1  0.35258632  0.14639731  0.20168606  1  -0.025186  -0.000321  -0.160757  -0.132267  -0.000223  3.908362  0.0
C  C226  1  0.44033449  0.36414983  0.09410807  1  0.510612  -0.001122  0.04385  0.095002  -0.000172  3.936069  -0.001
C  C227  1  0.81215062  0.15461275  0.64686416  1  0.002729  -0.004192  -0.09049  -0.189013  -0.00298  3.95794  -0.003
C  C228  1  0.48333102  0.22624868  0.47658494  1  0.518156  -0.001531  0.05323  0.103832  -0.000405  3.908356  -0.001
C  C229  1  0.72241211  0.23069133  0.64152699  1  -0.020013  0.002925  0.00804  0.159609  0.001983  3.96014  0.002
C  C230  1  0.19620598  0.35634405  0.65836457  1  -0.057093  -6.4e-05  -0.158336  -0.210738  -3.8e-05  3.964301  0.0
C  C231  1  0.93249613  0.31680049  0.89456234  1  2.101116  -0.008552  0.210635  0.776671  -0.006286  4.359531  -0.009
C  C232  1  0.22586471  0.57309297  0.87535672  1  0.41691  0.0008  0.047965  0.097489  6.1e-05  3.934966  0.001
C  C233  1  0.56544214  0.40562551  0.32089921  1  0.532015  -4e-06  0.03567  0.084625  -5e-06  4.03313  0.0
C  C234  1  0.80400142  0.14359599  0.15843322  1  -0.053579  -5e-06  -0.158124  -0.210378  2.3e-05  3.962836  0.0
C  C235  1  0.36284278  0.05794951  0.03536896  1  -0.024437  -0.000105  -0.155981  -0.197404  -6.5e-05  3.93752  0.0
C  C236  1  0.77412736  0.92696701  0.37547060  1  0.416417  -0.001113  0.048038  0.097432  -0.000277  3.934147  -0.001
C  C237  1  0.64751576  0.64646176  0.29839275  1  -0.009678  -0.000322  -0.160687  -0.131701  -0.000224  3.908503  0.0
C  C238  1  0.53951993  0.68605160  0.21584992  1  0.022039  -0.003303  0.012416  0.166701  -0.002249  3.958539  -0.002
C  C239  1  0.85893632  0.24844684  0.08513982  1  -0.01737  -0.002793  -0.091442  -0.196584  -0.001941  3.953823  -0.002
C  C240  1  0.93266478  0.68301777  0.10576790  1  2.101405  0.008558  0.211355  0.778782  0.006296  4.356995  0.009
C  C241  1  0.36116902  0.15120921  0.31855613  1  -0.100465  0.004953  -0.08117  -0.174231  0.003357  3.910156  0.004
C  C242  1  0.48608523  0.68803873  0.50152429  1  -0.070905  -0.004312  -0.091099  -0.200749  -0.002949  3.967663  -0.003
C  C243  1  0.74495249  0.70436598  0.49230764  1  -0.085992  -0.004428  -0.085542  -0.180368  -0.003064  3.961248  -0.004
C  C244  1  0.41283885  0.11460356  0.36215118  1  0.511842  -0.001931  0.041566  0.094628  -0.000771  3.941977  -0.001
C  C245  1  0.34598674  0.64669756  0.15915847  1  0.496573  -0.000722  0.046516  0.08889  0.000299  3.939341  0.0
C  C246  1  0.79913304  0.31463385  0.16274936  1  -0.0763  -0.003037  -0.09037  -0.19965  -0.002133  3.958469  -0.002
C  C247  1  0.46959544  0.45086845  0.24706714  1  0.498572  -3.2e-05  0.037017  0.092156  -3.2e-05  4.028999  0.0
C  C248  1  0.58715737  0.61471403  0.13793400  1  0.514017  -0.000914  0.042114  0.095896  -5.4e-05  3.941769  -0.001
C  C249  1  0.36083797  0.84879424  0.68122934  1  -0.099559  -0.004941  -0.081059  -0.173478  -0.003354  3.909623  -0.004
C  C250  1  0.51668724  0.27377239  0.97666409  1  0.516985  0.001477  0.052985  0.103379  0.000451  3.90958  0.001
C  C251  1  0.68780949  0.04702457  0.81864154  1  -0.080636  -8e-06  0.009437  0.169577  -7e-06  3.940817  0.0
C  C252  1  0.40287211  0.77748650  0.76321818  1  -0.000205  -0.000136  -0.161862  -0.207197  -7.9e-05  3.942801  0.0
C  C253  1  0.39092462  0.31653081  0.79622237  1  -0.125623  -0.005155  -0.086116  -0.187992  -0.003552  3.95796  -0.004
C  C254  1  0.72213038  0.76928135  0.35864409  1  -0.019769  -0.002937  0.007977  0.159232  -0.00199  3.960519  -0.002
C  C255  1  0.61890936  0.34829822  0.51451975  1  -0.050993  -0.003211  0.005646  0.150046  -0.002173  3.986416  -0.002
C  C256  1  0.51393090  0.18799874  0.99849088  1  -0.07137  -0.004304  -0.091262  -0.200929  -0.002904  3.968292  -0.003
C  C257  1  0.63913897  0.34870438  0.81869185  1  -0.10026  -0.004993  -0.08093  -0.173481  -0.003467  3.910462  -0.004
C  C258  1  0.82520134  0.00009900  0.49998808  1  2.165517  8e-06  0.247944  0.800655  8e-06  4.28204  0.0
C  C259  1  0.33329107  0.46814318  0.26821673  1  0.006816  -1e-05  -0.094515  -0.209742  -1.1e-05  3.971299  0.0
C  C260  1  0.38109707  0.84839142  0.98544936  1  -0.052369  -0.003138  0.005403  0.149593  -0.002117  3.987311  -0.002
C  C261  1  0.83240277  0.02892016  0.84337976  1  0.003661  5.6e-05  -0.156129  -0.207278  1.3e-05  3.908732  0.0
C  C262  1  0.35198603  0.85358207  0.79809639  1  -0.028798  0.00032  -0.161384  -0.131991  0.000222  3.909262  0.0
C  C263  1  0.56551318  0.59430880  0.67913203  1  0.522159  4e-06  0.035482  0.084045  5e-06  4.033001  0.0
C  C264  1  0.80378045  0.85630917  0.84164703  1  -0.057538  5e-06  -0.157853  -0.210166  -2.3e-05  3.963702  0.0
C  C265  1  0.17989352  0.26432350  0.63445446  1  0.013091  0.003636  0.006128  0.152932  0.002437  3.953177  0.002
C  C266  1  0.33334554  0.53185513  0.73180704  1  0.008005  1e-05  -0.094094  -0.209246  1.1e-05  3.970615  0.0
C  C267  1  0.61904005  0.65164417  0.48556688  1  -0.051286  0.003207  0.00549  0.149506  0.002171  3.986842  0.002
C  C268  1  0.06723388  0.81686071  0.60551585  1  2.100543  0.008616  0.211075  0.777764  0.006338  4.358615  0.009
C  C269  1  0.73037176  0.49997495  0.50013988  1  0.003416  -0.0  -0.157494  -0.131469  0.0  3.880555  0.0
C  C270  1  0.32599039  0.00022410  0.49995726  1  2.150138  5e-06  0.24925  0.821603  1e-06  4.264794  0.0
C  C271  1  0.19598335  0.64357045  0.34158480  1  -0.052031  6.6e-05  -0.158116  -0.210188  3.9e-05  3.96246  0.0
C  C272  1  0.16639612  0.44003426  0.62658714  1  -0.013082  -2.7e-05  -0.159505  -0.127696  -2.7e-05  3.948415  0.0
C  C273  1  0.65374970  0.85346529  0.65893352  1  0.48764  0.000891  0.046267  0.087693  -0.000196  3.939739  0.0
C  C274  1  0.63705609  0.55797246  0.46465046  1  -0.027349  -0.000101  -0.155811  -0.197828  -5.9e-05  3.938337  0.0
C  C275  1  0.56669972  0.07908187  0.84520308  1  -0.096508  -1.4e-05  -0.091969  -0.196188  -9e-06  3.947925  0.0
C  C276  1  0.53034397  0.04915160  0.74705456  1  0.505354  2e-05  0.036564  0.09177  2.2e-05  4.02957  0.0
C  C277  1  0.55965516  0.86423925  0.40590271  1  0.513363  -0.001185  0.043823  0.095184  -0.000219  3.936051  -0.001
C  C278  1  0.31220946  0.54704404  0.68137319  1  -0.081015  -1e-06  0.009534  0.169541  3e-06  3.941204  0.0
C  C279  1  0.53035991  0.95086082  0.25293916  1  0.497499  -2e-05  0.036748  0.091763  -2.2e-05  4.02924  0.0
C  C280  1  0.17779403  0.10049330  0.64173296  1  0.516643  0.001752  0.047752  0.094573  0.000789  3.951632  0.001
C  C281  1  0.27788949  0.26918365  0.14139904  1  -0.020442  -0.002931  0.007891  0.15963  -0.00199  3.961458  -0.002
C  C282  1  0.43334747  0.57910170  0.65481187  1  -0.095896  3e-05  -0.091913  -0.195835  2.9e-05  3.947847  0.0
C  C283  1  0.59712966  0.27741551  0.73671154  1  0.001955  -0.00016  -0.161851  -0.207335  -0.000103  3.94253  0.0
C  C284  1  0.59674763  0.72258169  0.26348443  1  -0.012342  0.000158  -0.162272  -0.20743  0.000102  3.944286  0.0
C  C285  1  0.67394883  0.50021127  0.00002230  1  2.149237  -4e-06  0.249404  0.821543  -0.0  4.264019  0.0
N  N286  1  0.65060871  0.06445609  0.59827571  1  -1.200865  -0.063304  -0.344973  -0.219334  -0.044287  3.59701  -0.056
N  N287  1  0.86300903  0.41053156  0.09444605  1  -1.193774  -0.041938  -0.346624  -0.247995  -0.029885  3.622909  -0.037
N  N288  1  0.60631735  0.82239618  0.52992967  1  -1.214043  -0.06519  -0.343326  -0.220536  -0.0457  3.600926  -0.057
N  N289  1  0.65045950  0.93564019  0.40176318  1  -1.239994  0.063573  -0.345067  -0.219128  0.044441  3.598286  0.056
N  N290  1  0.39386601  0.67774586  0.02998726  1  -1.214615  0.066  -0.344042  -0.221438  0.046264  3.599739  0.058
N  N291  1  0.34959719  0.43557218  0.09825858  1  -1.24014  0.064183  -0.344832  -0.218586  0.044815  3.597528  0.056
N  N292  1  0.13720270  0.91049819  0.40554557  1  -1.192411  0.041733  -0.346425  -0.247555  0.029794  3.623239  0.037
N  N293  1  0.55651334  0.11206988  0.37300272  1  -1.235757  0.074356  -0.35621  -0.248941  0.051946  3.663384  0.066
N  N294  1  0.41457249  0.91983248  0.22760585  1  -1.227263  5.2e-05  -0.338342  -0.305336  3.2e-05  3.341596  0.0
N  N295  1  0.60627734  0.17771613  0.46997254  1  -1.21477  0.065292  -0.343758  -0.220944  0.045779  3.600967  0.058
N  N296  1  0.39384736  0.32242775  0.97008121  1  -1.213706  -0.06605  -0.343455  -0.220952  -0.046285  3.601179  -0.058
N  N297  1  0.86314068  0.58944433  0.90568068  1  -1.190553  0.041834  -0.346905  -0.247967  0.029818  3.624502  0.037
N  N298  1  0.58546120  0.58015251  0.72763877  1  -1.229588  2.2e-05  -0.338346  -0.305245  1.2e-05  3.340832  0.0
N  N299  1  0.41455001  0.08014984  0.77238599  1  -1.227641  -5.2e-05  -0.338352  -0.305434  -3.2e-05  3.341339  0.0
N  N300  1  0.13702235  0.08950303  0.59434371  1  -1.188883  -0.041599  -0.346881  -0.24788  -0.029701  3.624251  -0.037
N  N301  1  0.34951253  0.56452312  0.90168427  1  -1.238022  -0.064119  -0.344738  -0.218778  -0.044769  3.597128  -0.056
N  N302  1  0.55625490  0.88802090  0.62685091  1  -1.2308  -0.074245  -0.356529  -0.249352  -0.051857  3.662533  -0.065
N  N303  1  0.44348154  0.61214684  0.12709529  1  -1.235469  0.072997  -0.356344  -0.250244  0.050942  3.663067  0.064
N  N304  1  0.58539627  0.41982937  0.27239790  1  -1.226827  -2.2e-05  -0.33852  -0.305544  -1.2e-05  3.341235  0.0
N  N305  1  0.44366676  0.38797498  0.87303796  1  -1.233693  -0.07303  -0.356395  -0.249476  -0.05095  3.664017  -0.064
O  O306  1  0.17982908  0.00015352  0.49994801  1  -1.095014  -0.000291  -0.369244  -0.632698  -0.000193  2.524937  0.0
O  O307  1  0.04577167  0.10265557  0.37232776  1  -1.103375  0.1531  -0.382336  -0.650643  0.102566  2.126505  0.137
O  O308  1  0.82010686  0.50011557  0.00005513  1  -1.093189  0.000245  -0.369346  -0.633624  0.000163  2.52578  0.0
O  O309  1  0.38787218  0.98668674  0.54144727  1  -1.220051  0.010467  -0.361555  -0.668937  0.006853  2.351829  0.008
O  O310  1  0.04062898  0.74247157  0.62572992  1  -1.197528  -0.066534  -0.383512  -0.629165  -0.044901  1.992671  -0.059
O  O311  1  0.11996314  0.17386326  0.43928640  1  -1.119309  0.146038  -0.376557  -0.63599  0.097706  2.112204  0.13
O  O312  1  0.67835651  0.00010374  0.49996113  1  -1.061237  -2.3e-05  -0.356465  -0.582117  -1.8e-05  2.52414  0.0
O  O313  1  0.61214132  0.51399694  0.04148888  1  -1.217189  0.007514  -0.360737  -0.667973  0.005338  2.35072  0.007
O  O314  1  0.61218915  0.48653090  0.95853144  1  -1.219256  -0.007464  -0.361155  -0.667952  -0.005304  2.350536  -0.007
O  O315  1  0.11467383  0.53285595  0.03829894  1  -1.19597  -0.026684  -0.346179  -0.648406  -0.01794  2.36324  -0.025
O  O316  1  0.12024455  0.82637220  0.56036815  1  -1.109003  -0.146061  -0.376696  -0.636007  -0.097642  2.113192  -0.13
O  O317  1  0.95890684  0.75731044  0.12609411  1  -1.197099  -0.066913  -0.382648  -0.628475  -0.045118  1.992643  -0.059
O  O318  1  0.32118900  0.50010020  0.00002286  1  -1.057759  -2.1e-05  -0.355847  -0.58148  -1.2e-05  2.524462  0.0
O  O319  1  0.04592232  0.89691878  0.62750532  1  -1.104664  -0.153144  -0.382079  -0.650188  -0.102579  2.12517  -0.137
O  O320  1  0.88017324  0.67369433  0.06052879  1  -1.10628  -0.14706  -0.375824  -0.634986  -0.098302  2.112327  -0.131
O  O321  1  0.95381984  0.60288698  0.12769366  1  -1.106577  -0.153139  -0.382067  -0.65078  -0.102508  2.124998  -0.137
O  O322  1  0.95867065  0.24229837  0.87444223  1  -1.198447  0.066824  -0.382359  -0.627803  0.045088  1.993582  0.059
O  O323  1  0.11486010  0.46733649  0.96164479  1  -1.19529  0.026726  -0.346015  -0.648282  0.01797  2.363502  0.025
O  O324  1  0.87998401  0.32652580  0.93977850  1  -1.1067  0.146988  -0.376088  -0.634397  0.098216  2.113732  0.131
O  O325  1  0.95372461  0.39675634  0.87245982  1  -1.103718  0.153181  -0.381461  -0.650119  0.102569  2.124918  0.137
O  O326  1  0.88493501  0.03301709  0.46172494  1  -1.197247  -0.023713  -0.346433  -0.649131  -0.01569  2.362217  -0.019
O  O327  1  0.38781781  0.01383755  0.45846805  1  -1.217363  -0.010629  -0.361428  -0.669032  -0.006956  2.351887  -0.008
O  O328  1  0.88481002  0.96718971  0.53828689  1  -1.196778  0.023636  -0.346256  -0.648934  0.015642  2.362074  0.019
O  O329  1  0.04016582  0.25706874  0.37367314  1  -1.19623  0.066565  -0.383081  -0.629142  0.044932  1.992536  0.059
