# generated using pymatgen
data_AlH24C45(O2F)3
_symmetry_space_group_name_H-M   'P 1'
_cell_length_a   3.95100931
_cell_length_b   23.65247245
_cell_length_c   23.62305420
_cell_angle_alpha   59.93948001
_cell_angle_beta   88.10464801
_cell_angle_gamma   88.49777380
_symmetry_Int_Tables_number   1
_chemical_formula_structural   AlH24C45(O2F)3
_chemical_formula_sum   'Al1 H24 C45 O6 F3'
_cell_volume   1909.50772271
_cell_formula_units_Z   1
loop_
 _symmetry_equiv_pos_site_id
 _symmetry_equiv_pos_as_xyz
  1  'x, y, z'
loop_
 _atom_site_type_symbol
 _atom_site_label
 _atom_site_symmetry_multiplicity
 _atom_site_fract_x
 _atom_site_fract_y
 _atom_site_fract_z
 _atom_site_occupancy
 _atom_site_pbe_bader_charge
 _atom_site_pbe_bader_spin_density
 _atom_site_pbe_cm5_charge
 _atom_site_pbe_ddec_charge
 _atom_site_pbe_ddec_spin_density
 _atom_site_pbe_ddec_sum_bond_order
 _atom_site_pbe_magmom
Al  Al0  1  0.02685779  0.49964025  0.49962755  1  2.50294  0  0.42285  1.588938  0  2.584545  0
H  H1  1  0.76507579  0.32612828  0.67714836  1  0.081601  0  0.108983  0.111496  0  0.98541  0
H  H2  1  0.75037571  0.26116898  0.79711228  1  0.081438  0  0.096519  0.104944  0  1.039068  0
H  H3  1  0.83094658  0.16256620  0.01582324  1  0.074929  0  0.107042  0.12839  0  0.996627  0
H  H4  1  0.21533349  0.68389522  0.33746641  1  0.087371  0  0.108494  0.112477  0  0.988788  0
H  H5  1  0.21435360  0.80349031  0.27991198  1  0.050595  0  0.098251  0.095571  0  1.022769  0
H  H6  1  0.31603061  0.89366494  0.22642671  1  0.058947  0  0.102218  0.100839  0  1.013428  0
H  H7  1  0.29791195  0.01158744  0.16489732  1  0.100446  0  0.099406  0.10144  0  1.008897  0
H  H8  1  0.51622143  0.10373269  0.10826160  1  0.022213  0  0.098768  0.09741  0  1.028926  0
H  H9  1  0.81921944  0.67737851  0.48825954  1  0.103905  0  0.10923  0.113211  0  0.986411  0
H  H10  1  0.81504588  0.79713145  0.43279326  1  0.059886  0  0.096797  0.1058  0  1.038397  0
H  H11  1  0.72847512  0.01554904  0.32874667  1  0.069783  0  0.107408  0.127996  0  0.999434  0
H  H12  1  0.24536106  0.33771473  0.48009773  1  0.103112  0  0.108561  0.11244  0  0.988674  0
H  H13  1  0.25586389  0.27891870  0.41967106  1  0.054211  0  0.097775  0.094882  0  1.026409  0
H  H14  1  0.27564758  0.23229543  0.37626156  1  0.025975  0  0.102312  0.101529  0  1.017248  0
H  H15  1  0.24901110  0.17055541  0.32049437  1  0.088166  0  0.099916  0.103202  0  1.005727  0
H  H16  1  0.51583836  0.10898743  0.28773360  1  0.020545  0  0.09875  0.097588  0  1.030808  0
H  H17  1  0.85866204  0.48861401  0.32994707  1  0.078946  0  0.109226  0.11259  0  0.986313  0
H  H18  1  0.85605962  0.43293854  0.26589199  1  0.104484  0  0.096179  0.104969  0  1.041955  0
H  H19  1  0.81467545  0.32154782  0.15742381  1  0.104785  0  0.107546  0.128658  0  0.997775  0
H  H20  1  0.26222362  0.48536126  0.68454194  1  0.082979  0  0.108457  0.111658  0  0.986391  0
H  H21  1  0.28659636  0.42521233  0.80420687  1  0.01969  0  0.098001  0.095014  0  1.021685  0
H  H22  1  0.19765813  0.37031254  0.89505303  1  0.063722  0  0.101854  0.101545  0  1.015218  0
H  H23  1  0.19601643  0.31506669  0.01350281  1  0.054349  0  0.099152  0.102948  0  1.006073  0
H  H24  1  0.51517401  0.28783461  0.10290789  1  0.087954  0  0.099086  0.098342  0  1.024524  0
C  C25  1  0.51632070  0.44747856  0.60038658  1  1.571382  0  0.273894  0.647658  0  4.069397  0
C  C26  1  0.54429248  0.45168718  0.44691969  1  1.525534  0  0.273776  0.647591  0  4.070057  0
C  C27  1  0.52048059  0.60030835  0.45120453  1  1.566168  0  0.273592  0.646236  0  4.070627  0
C  C28  1  0.65426622  0.34682636  0.70572229  1  -0.008151  0  -0.078823  -0.079024  0  3.97779  0
C  C29  1  0.64896878  0.31057454  0.77365203  1  0.011204  0  -0.090804  -0.134073  0  3.968825  0
C  C30  1  0.68489969  0.24055214  0.92309332  1  0.48963  0  0.100696  0.255479  0  4.014211  0
C  C31  1  0.68322025  0.20767000  0.99085193  1  -0.093104  0  -0.103188  -0.260012  0  4.005843  0
C  C32  1  0.35115169  0.70935665  0.35732053  1  -0.138481  0  -0.079611  -0.082889  0  3.987149  0
C  C33  1  0.35372396  0.77711668  0.32505671  1  0.054282  0  -0.092247  -0.136536  0  3.986323  0
C  C34  1  0.40470867  0.91989749  0.24989332  1  -0.045997  0  -0.088022  -0.104162  0  4.0085  0
C  C35  1  0.39915736  0.98761478  0.21399750  1  -0.07985  0  -0.098932  -0.147957  0  4.01439  0
C  C36  1  0.51397722  0.40980319  0.67298587  1  -0.062918  0  -0.008311  -0.033958  0  3.968037  0
C  C37  1  0.51929134  0.33731725  0.81171254  1  -0.137146  0  -0.004215  0.087855  0  3.974631  0
C  C38  1  0.51946005  0.30091759  0.88416915  1  0.128696  0  -0.013356  -0.045731  0  3.973528  0
C  C39  1  0.51349999  0.23398521  0.02547914  1  -0.036585  0  -0.007304  0.089145  0  4.021992  0
C  C40  1  0.51374941  0.19950718  0.09764654  1  0.021192  0  -0.006812  0.081964  0  4.017729  0
C  C41  1  0.51524056  0.13107045  0.13413424  1  0.070042  0  -0.087215  -0.173257  0  3.920773  0
C  C42  1  0.68401526  0.70571621  0.44277853  1  -0.038306  0  -0.077605  -0.076319  0  3.976324  0
C  C43  1  0.68060100  0.77354347  0.41114657  1  -0.013511  0  -0.091986  -0.136134  0  3.971131  0
C  C44  1  0.62428803  0.92303055  0.33999578  1  0.396749  0  0.100799  0.255286  0  4.017178  0
C  C45  1  0.62764451  0.99068726  0.30479483  1  0.066058  0  -0.102372  -0.257577  0  3.998514  0
C  C46  1  0.38425934  0.35749233  0.43356730  1  -0.06263  0  -0.08071  -0.083411  0  3.990801  0
C  C47  1  0.39204504  0.32468990  0.39864415  1  -0.028195  0  -0.092072  -0.136746  0  3.989825  0
C  C48  1  0.39767295  0.25267270  0.32819216  1  -0.026716  0  -0.088854  -0.105422  0  4.009387  0
C  C49  1  0.38485288  0.21659914  0.29674868  1  -0.040305  0  -0.100644  -0.152219  0  4.021869  0
C  C50  1  0.51857085  0.67276962  0.41654687  1  -0.023401  0  -0.011456  -0.042194  0  3.973365  0
C  C51  1  0.51733570  0.81132086  0.35096030  1  0.079411  0  -0.003499  0.085791  0  3.978328  0
C  C52  1  0.51720943  0.88365161  0.31495191  1  -0.02463  0  -0.014366  -0.046701  0  3.978585  0
C  C53  1  0.51338216  0.02515646  0.24045880  1  -0.056017  0  -0.005552  0.092521  0  4.010571  0
C  C54  1  0.51412592  0.09735802  0.20273550  1  -0.042728  0  -0.006323  0.081588  0  4.009132  0
C  C55  1  0.51542875  0.13405327  0.23449689  1  0.067585  0  -0.087082  -0.173195  0  3.917928  0
C  C56  1  0.72314231  0.44289342  0.34866053  1  -0.031898  0  -0.077683  -0.076043  0  3.974476  0
C  C57  1  0.72186647  0.41095883  0.31270698  1  -0.011884  0  -0.091962  -0.136099  0  3.964992  0
C  C58  1  0.69423259  0.33608543  0.23755337  1  0.438636  0  0.10161  0.256548  0  4.012808  0
C  C59  1  0.68628673  0.30097873  0.20504300  1  -0.014754  0  -0.10289  -0.259207  0  3.998093  0
C  C60  1  0.37427095  0.43647786  0.70982575  1  -0.080844  0  -0.079978  -0.084963  0  3.986899  0
C  C61  1  0.38552179  0.40153982  0.77764120  1  0.129157  0  -0.091728  -0.136366  0  3.986196  0
C  C62  1  0.34619012  0.32549464  0.92084681  1  -0.03779  0  -0.089125  -0.107457  0  4.006956  0
C  C63  1  0.34437897  0.29409527  0.98865134  1  -0.044161  0  -0.100139  -0.150521  0  4.018816  0
C  C64  1  0.55206641  0.41696079  0.40916040  1  0.018099  0  -0.010772  -0.041988  0  3.973504  0
C  C65  1  0.55784678  0.35051424  0.33686845  1  -0.031296  0  -0.003512  0.086606  0  3.971033  0
C  C66  1  0.55329931  0.31441083  0.30059559  1  0.014606  0  -0.014209  -0.046745  0  3.974401  0
C  C67  1  0.52994127  0.24001177  0.23393298  1  -0.015548  0  -0.00587  0.092507  0  4.016808  0
C  C68  1  0.51910169  0.20252315  0.19943863  1  -0.055362  0  -0.00654  0.081933  0  4.0141  0
C  C69  1  0.51525453  0.23459798  0.13094051  1  -0.085808  0  -0.087696  -0.17584  0  3.926578  0
O  O70  1  0.29160071  0.57230898  0.43734164  1  -1.262205  0  -0.238529  -0.595617  0  2.367801  0
O  O71  1  0.27862317  0.48921425  0.57259071  1  -1.251334  0  -0.237837  -0.593882  0  2.359876  0
O  O72  1  0.30428204  0.43790241  0.48928612  1  -1.250465  0  -0.239024  -0.599061  0  2.375117  0
O  O73  1  0.75138210  0.57034936  0.49297481  1  -1.258941  0  -0.239032  -0.598636  0  2.374194  0
O  O74  1  0.77669497  0.49300579  0.43491410  1  -1.259039  0  -0.238357  -0.594943  0  2.365033  0
O  O75  1  0.75725564  0.43548655  0.57034936  1  -1.261309  0  -0.23842  -0.59805  0  2.371558  0
F  F76  1  0.85572742  0.39481770  0.20395313  1  -0.636037  0  -0.097269  -0.146043  0  1.358285  0
F  F77  1  0.87036051  0.21076777  0.89517769  1  -0.646793  0  -0.096231  -0.145616  0  1.366026  0
F  F78  1  0.73543995  0.89560460  0.40273376  1  -0.637261  0  -0.098981  -0.147988  0  1.352876  0
