# generated using pymatgen
data_AgH28C20SN7O6
_symmetry_space_group_name_H-M   'P 1'
_cell_length_a   11.98519430
_cell_length_b   13.49306945
_cell_length_c   16.06959146
_cell_angle_alpha   90.00007660
_cell_angle_beta   109.05567044
_cell_angle_gamma   89.99983930
_symmetry_Int_Tables_number   1
_chemical_formula_structural   AgH28C20SN7O6
_chemical_formula_sum   'Ag4 H112 C80 S4 N28 O24'
_cell_volume   2456.32149632
_cell_formula_units_Z   4
loop_
 _symmetry_equiv_pos_site_id
 _symmetry_equiv_pos_as_xyz
  1  'x, y, z'
loop_
 _atom_site_type_symbol
 _atom_site_label
 _atom_site_symmetry_multiplicity
 _atom_site_fract_x
 _atom_site_fract_y
 _atom_site_fract_z
 _atom_site_occupancy
 _atom_site_pbe_bader_charge
 _atom_site_pbe_bader_spin_density
 _atom_site_pbe_cm5_charge
 _atom_site_pbe_ddec_charge
 _atom_site_pbe_ddec_spin_density
 _atom_site_pbe_ddec_sum_bond_order
 _atom_site_pbe_magmom
Ag  Ag0  1  0.23743864  0.33295615  0.21415858  1  0.570717  0  0.461602  0.314099  0  1.847893  0
Ag  Ag1  1  0.76256437  0.83296262  0.28584547  1  0.57065  0  0.461591  0.314055  0  1.847927  0
Ag  Ag2  1  0.76256255  0.66704236  0.78583803  1  0.570704  0  0.461622  0.314106  0  1.847877  0
Ag  Ag3  1  0.23743981  0.16703440  0.71416052  1  0.570631  0  0.461584  0.314125  0  1.847864  0
H  H4  1  0.11335195  0.44622032  0.04541084  1  0.103183  0  0.113508  0.092308  0  1.036565  0
H  H5  1  0.88664910  0.94622512  0.45459520  1  0.103015  0  0.113523  0.092324  0  1.036579  0
H  H6  1  0.88664938  0.55378041  0.95458954  1  0.103398  0  0.113527  0.092336  0  1.03658  0
H  H7  1  0.11334712  0.05376969  0.54540839  1  0.102994  0  0.113507  0.09228  0  1.03654  0
H  H8  1  0.02082243  0.40948180  0.88280559  1  0.148207  0  0.107113  0.117559  0  1.029731  0
H  H9  1  0.97918121  0.90948685  0.61720003  1  0.148026  0  0.107222  0.117804  0  1.029684  0
H  H10  1  0.97917885  0.59052412  0.11719353  1  0.148303  0  0.107134  0.117623  0  1.029524  0
H  H11  1  0.02081594  0.09051240  0.38280501  1  0.148087  0  0.107126  0.117636  0  1.029794  0
H  H12  1  0.01158130  0.23476182  0.83174016  1  0.08192  0  0.113029  0.120528  0  0.982402  0
H  H13  1  0.98842147  0.73476818  0.66826441  1  0.082398  0  0.113103  0.120648  0  0.982248  0
H  H14  1  0.98841542  0.76524484  0.16825420  1  0.081971  0  0.113009  0.12045  0  0.982435  0
H  H15  1  0.01158097  0.26523107  0.33174181  1  0.081951  0  0.113034  0.120587  0  0.98242  0
H  H16  1  0.17555725  0.14655834  0.10230155  1  0.147464  0  0.115421  0.102941  0  1.047091  0
H  H17  1  0.82443463  0.64656312  0.39770408  1  0.14732  0  0.115357  0.102712  0  1.047242  0
H  H18  1  0.82443680  0.85344091  0.89769160  1  0.147093  0  0.115423  0.102961  0  1.047055  0
H  H19  1  0.17557399  0.35342946  0.60230352  1  0.147173  0  0.115345  0.102817  0  1.047122  0
H  H20  1  0.13568883  0.80533958  0.02628404  1  0.069188  0  0.101114  0.046471  0  0.983284  0
H  H21  1  0.86430252  0.30534640  0.47370544  1  0.069113  0  0.101107  0.046372  0  0.983296  0
H  H22  1  0.86430686  0.19466708  0.97370636  1  0.069146  0  0.101122  0.04638  0  0.983344  0
H  H23  1  0.13570275  0.69464619  0.52630577  1  0.068698  0  0.101062  0.046259  0  0.983448  0
H  H24  1  0.16913264  0.74977241  0.85128310  1  0.058435  0  0.088399  0.089665  0  1.006318  0
H  H25  1  0.83087213  0.24977226  0.64870954  1  0.058672  0  0.088367  0.089659  0  1.006283  0
H  H26  1  0.83087460  0.25023129  0.14871174  1  0.058654  0  0.088382  0.089609  0  1.006316  0
H  H27  1  0.16911900  0.75022180  0.35129789  1  0.058894  0  0.088409  0.089687  0  1.00611  0
H  H28  1  0.03575666  0.73575824  0.87553743  1  0.034397  0  0.08122  0.070914  0  1.047581  0
H  H29  1  0.96424268  0.23576168  0.62444709  1  0.034172  0  0.081259  0.07093  0  1.047612  0
H  H30  1  0.96424604  0.26424620  0.12445329  1  0.034341  0  0.081217  0.070862  0  1.047643  0
H  H31  1  0.03575215  0.76423016  0.37556553  1  0.033893  0  0.081231  0.070944  0  1.047679  0
H  H32  1  0.13358179  0.61740113  0.99665386  1  0.03833  0  0.084452  0.080511  0  1.023585  0
H  H33  1  0.86641353  0.11740467  0.50333104  1  0.038189  0  0.084435  0.080511  0  1.023672  0
H  H34  1  0.86641937  0.38260850  0.00334211  1  0.038202  0  0.084428  0.080449  0  1.023659  0
H  H35  1  0.13358556  0.88258939  0.49667879  1  0.038106  0  0.084472  0.080551  0  1.023755  0
H  H36  1  0.14872663  0.57525824  0.89628704  1  0.040829  0  0.09131  0.096181  0  0.992932  0
H  H37  1  0.85127885  0.07525910  0.60370055  1  0.041011  0  0.091305  0.096185  0  0.992883  0
H  H38  1  0.85127904  0.42474694  0.10371244  1  0.040749  0  0.09132  0.096214  0  0.992978  0
H  H39  1  0.14871048  0.92473423  0.39630586  1  0.041162  0  0.091272  0.096169  0  0.992879  0
H  H40  1  0.35147980  0.64363069  0.94003830  1  0.043648  0  0.107744  0.05433  0  0.980911  0
H  H41  1  0.64852352  0.14363166  0.55995661  1  0.043781  0  0.107777  0.054457  0  0.980992  0
H  H42  1  0.64852594  0.35637597  0.05996306  1  0.043716  0  0.1078  0.054451  0  0.980962  0
H  H43  1  0.35146546  0.85636314  0.44004100  1  0.043803  0  0.107799  0.054366  0  0.981077  0
H  H44  1  0.44558671  0.71298747  0.08931366  1  -0.000905  0  0.085364  0.085265  0  1.023989  0
H  H45  1  0.55440658  0.21298516  0.41067891  1  -0.000947  0  0.085326  0.085234  0  1.023962  0
H  H46  1  0.55441109  0.28702438  0.91068592  1  -0.000698  0  0.085349  0.085264  0  1.023962  0
H  H47  1  0.44559642  0.78701335  0.58931934  1  -0.001088  0  0.085334  0.085267  0  1.02405  0
H  H48  1  0.31092435  0.70224905  0.11162590  1  0.024211  0  0.088091  0.088152  0  1.003997  0
H  H49  1  0.68906993  0.20224811  0.38836684  1  0.024064  0  0.088102  0.088121  0  1.00399  0
H  H50  1  0.68907340  0.29776131  0.88837243  1  0.024127  0  0.088097  0.08808  0  1.004056  0
H  H51  1  0.31093680  0.79774892  0.61163723  1  0.024496  0  0.088084  0.088155  0  1.003913  0
H  H52  1  0.33878689  0.87522172  0.06046661  1  0.035907  0  0.075748  0.051855  0  1.111467  0
H  H53  1  0.66120127  0.37522119  0.43952686  1  0.035974  0  0.075716  0.051763  0  1.111484  0
H  H54  1  0.66120812  0.12478791  0.93952862  1  0.035935  0  0.075751  0.051815  0  1.111498  0
H  H55  1  0.33880460  0.62477657  0.56047764  1  0.035846  0  0.075757  0.05185  0  1.111452  0
H  H56  1  0.34667933  0.82561147  0.96066649  1  0.017302  0  0.085477  0.089118  0  1.009687  0
H  H57  1  0.65331599  0.32560958  0.53932815  1  0.017075  0  0.085507  0.089156  0  1.009597  0
H  H58  1  0.65332364  0.17439667  0.03933114  1  0.017132  0  0.085521  0.089147  0  1.009544  0
H  H59  1  0.34668280  0.67438671  0.46067414  1  0.017128  0  0.08548  0.089106  0  1.009716  0
H  H60  1  0.29215174  0.32288759  0.84733745  1  0.154733  0  0.115697  0.103112  0  1.046163  0
H  H61  1  0.70785155  0.82288845  0.65265895  1  0.154787  0  0.115708  0.103133  0  1.046195  0
H  H62  1  0.70784528  0.67711537  0.15266445  1  0.154772  0  0.115703  0.10311  0  1.046196  0
H  H63  1  0.29214694  0.17711006  0.34733580  1  0.15469  0  0.115712  0.103179  0  1.046202  0
H  H64  1  0.33694423  0.01686977  0.87585919  1  0.105252  0  0.110367  0.084469  0  1.040671  0
H  H65  1  0.66304589  0.51687132  0.62414460  1  0.105104  0  0.110356  0.084506  0  1.040677  0
H  H66  1  0.66306442  0.98313541  0.12414904  1  0.105661  0  0.110321  0.084458  0  1.040771  0
H  H67  1  0.33695363  0.48312719  0.37585412  1  0.105331  0  0.110386  0.084538  0  1.04067  0
H  H68  1  0.42987496  0.03366398  0.03841394  1  0.082938  0  0.106436  0.107855  0  1.019859  0
H  H69  1  0.57011968  0.53366157  0.46158802  1  0.08291  0  0.106409  0.10783  0  1.019864  0
H  H70  1  0.57013366  0.96634416  0.96159367  1  0.082881  0  0.106365  0.107773  0  1.01987  0
H  H71  1  0.42987810  0.46633472  0.53841094  1  0.083009  0  0.106394  0.107819  0  1.019954  0
H  H72  1  0.45657722  0.20283593  0.10690042  1  0.08205  0  0.113778  0.126348  0  0.995927  0
H  H73  1  0.54342694  0.70283221  0.39309889  1  0.082043  0  0.11377  0.12636  0  0.995896  0
H  H74  1  0.54342692  0.79717296  0.89310431  1  0.082075  0  0.113712  0.12623  0  0.995959  0
H  H75  1  0.45657245  0.29716260  0.60689669  1  0.082152  0  0.113777  0.126302  0  0.995918  0
H  H76  1  0.68360064  0.29339220  0.25465616  1  0.08255  0  0.098842  0.164246  0  1.021831  0
H  H77  1  0.31639748  0.79338817  0.24534660  1  0.082468  0  0.098861  0.164262  0  1.021874  0
H  H78  1  0.31640944  0.70660557  0.74534430  1  0.082443  0  0.098837  0.16425  0  1.021812  0
H  H79  1  0.68359405  0.20661108  0.75464909  1  0.082464  0  0.098886  0.164297  0  1.021872  0
H  H80  1  0.75350186  0.40171968  0.31606352  1  0.151135  0  0.104957  0.180546  0  1.011067  0
H  H81  1  0.24649523  0.90171414  0.18394141  1  0.151228  0  0.104954  0.180559  0  1.011072  0
H  H82  1  0.24650220  0.59827883  0.68393933  1  0.151202  0  0.104956  0.180562  0  1.011009  0
H  H83  1  0.75350154  0.09828363  0.81605421  1  0.1513  0  0.10492  0.180569  0  1.011102  0
H  H84  1  0.68491083  0.40980986  0.19760448  1  0.137187  0  0.104248  0.177207  0  1.028184  0
H  H85  1  0.31509140  0.90980560  0.30239977  1  0.137215  0  0.104336  0.177356  0  1.02812  0
H  H86  1  0.31509325  0.59019087  0.80239899  1  0.137227  0  0.104336  0.177335  0  1.02816  0
H  H87  1  0.68490273  0.09019439  0.69759526  1  0.137153  0  0.104317  0.177349  0  1.028059  0
H  H88  1  0.56188635  0.55421931  0.19625286  1  0.131649  0  0.105069  0.177545  0  1.02205  0
H  H89  1  0.43810785  0.05421697  0.30374350  1  0.131637  0  0.105047  0.177495  0  1.02212  0
H  H90  1  0.43811423  0.44577475  0.80375046  1  0.131537  0  0.105098  0.177588  0  1.022049  0
H  H91  1  0.56188433  0.94578302  0.69624674  1  0.131493  0  0.10513  0.177584  0  1.02199  0
H  H92  1  0.62734690  0.56708506  0.31408548  1  0.066667  0  0.104709  0.166471  0  0.998582  0
H  H93  1  0.37264457  0.06707850  0.18591158  1  0.066519  0  0.104745  0.166439  0  0.998608  0
H  H94  1  0.37265632  0.43290752  0.68591843  1  0.066703  0  0.104733  0.166513  0  0.998618  0
H  H95  1  0.62734673  0.93291704  0.81407846  1  0.066793  0  0.104776  0.166521  0  0.99856  0
H  H96  1  0.46851077  0.57030206  0.26491182  1  0.108125  0  0.098106  0.158181  0  1.027848  0
H  H97  1  0.53147878  0.07029740  0.23508171  1  0.108269  0  0.098061  0.158093  0  1.02795  0
H  H98  1  0.53149165  0.42968830  0.73509378  1  0.108121  0  0.098109  0.158151  0  1.027919  0
H  H99  1  0.46851162  0.92970036  0.76490750  1  0.108231  0  0.098094  0.158145  0  1.027904  0
H  H100  1  0.12195594  0.92110172  0.86741474  1  0.525449  0  0.295721  0.264347  0  1.029856  0
H  H101  1  0.87803841  0.42110182  0.63258015  1  0.52552  0  0.295706  0.264391  0  1.029905  0
H  H102  1  0.87804678  0.07890346  0.13257661  1  0.525605  0  0.295717  0.264404  0  1.029975  0
H  H103  1  0.12196593  0.57889150  0.36742961  1  0.525609  0  0.295791  0.264576  0  1.029789  0
H  H104  1  0.34277458  0.52107170  0.09011570  1  0.50029  0  0.312166  0.28387  0  0.965558  0
H  H105  1  0.65722248  0.02106980  0.40987802  1  0.500197  0  0.312129  0.28381  0  0.965754  0
H  H106  1  0.65722683  0.47893866  0.90988655  1  0.500304  0  0.312151  0.283863  0  0.9656  0
H  H107  1  0.34277875  0.97893093  0.59011984  1  0.500231  0  0.312159  0.283858  0  0.965627  0
H  H108  1  0.06099721  0.07048862  0.86687059  1  0.43037  0  0.328879  0.290132  0  0.918204  0
H  H109  1  0.93899668  0.57048900  0.63313182  1  0.430317  0  0.328851  0.29008  0  0.918261  0
H  H110  1  0.93900027  0.92951730  0.13312083  1  0.430507  0  0.328937  0.290236  0  0.918102  0
H  H111  1  0.06100673  0.42950506  0.36687649  1  0.430386  0  0.328945  0.290246  0  0.91816  0
H  H112  1  0.41827412  0.37118602  0.08891780  1  0.514834  0  0.301143  0.283473  0  1.024957  0
H  H113  1  0.58172909  0.87118237  0.41107901  1  0.514779  0  0.301143  0.283422  0  1.024901  0
H  H114  1  0.58172730  0.62882064  0.91108446  1  0.514843  0  0.30116  0.283524  0  1.024806  0
H  H115  1  0.41826937  0.12881465  0.58891512  1  0.514867  0  0.301192  0.283544  0  1.024858  0
C  C116  1  0.10579873  0.37116109  0.01934256  1  0.452503  0  0.026663  0.044929  0  3.942934  0
C  C117  1  0.89420135  0.87116581  0.48066351  1  0.452645  0  0.026619  0.04487  0  3.942947  0
C  C118  1  0.89419988  0.62884113  0.98065534  1  0.452013  0  0.026685  0.044924  0  3.942966  0
C  C119  1  0.10579494  0.12882974  0.51934196  1  0.452444  0  0.026665  0.044928  0  3.942935  0
C  C120  1  0.05564018  0.34999272  0.93004403  1  -0.022517  0  -0.083736  -0.098139  0  3.99316  0
C  C121  1  0.94436147  0.84999782  0.56996210  1  -0.022525  0  -0.083791  -0.098397  0  3.993318  0
C  C122  1  0.94435931  0.65001172  0.06995406  1  -0.022476  0  -0.083712  -0.098241  0  3.992966  0
C  C123  1  0.05563659  0.14999995  0.43004377  1  -0.022516  0  -0.083767  -0.098202  0  3.993276  0
C  C124  1  0.04984004  0.25236116  0.90165426  1  -0.017723  0  -0.076996  -0.151287  0  3.934554  0
C  C125  1  0.95015994  0.75236617  0.59835039  1  -0.018224  0  -0.076985  -0.151181  0  3.934397  0
C  C126  1  0.95015497  0.74764402  0.09834096  1  -0.017875  0  -0.076924  -0.150983  0  3.9343  0
C  C127  1  0.04984077  0.24763160  0.40165606  1  -0.017817  0  -0.076904  -0.151263  0  3.934599  0
C  C128  1  0.09488944  0.17595968  0.96314426  1  0.341999  0  0.111019  0.230989  0  4.038403  0
C  C129  1  0.90510783  0.67596476  0.53686066  1  0.342247  0  0.110859  0.230679  0  4.038505  0
C  C130  1  0.90510375  0.82404328  0.03684931  1  0.342199  0  0.110932  0.230733  0  4.038436  0
C  C131  1  0.09489555  0.32403078  0.46314701  1  0.342413  0  0.110947  0.230904  0  4.038553  0
C  C132  1  0.14259538  0.20318745  0.05242906  1  0.507455  0  0.029754  -0.040952  0  3.894037  0
C  C133  1  0.85740116  0.70319364  0.44757664  1  0.50791  0  0.029882  -0.040563  0  3.894107  0
C  C134  1  0.85739874  0.79681254  0.94756596  1  0.507676  0  0.029811  -0.040868  0  3.893848  0
C  C135  1  0.14260307  0.29680042  0.55243061  1  0.507546  0  0.029776  -0.04097  0  3.894014  0
C  C136  1  0.13306795  0.99401672  0.98309735  1  1.814153  0  0.326043  0.628081  0  4.201222  0
C  C137  1  0.86692667  0.49402021  0.51690107  1  1.813775  0  0.325959  0.628053  0  4.200984  0
C  C138  1  0.86692340  0.00598698  0.01689394  1  1.814095  0  0.326002  0.628072  0  4.200819  0
C  C139  1  0.13307674  0.50597459  0.48310724  1  1.814257  0  0.325867  0.627803  0  4.201016  0
C  C140  1  0.17387307  0.81729350  0.97324452  1  0.342375  0  0.008803  0.179991  0  3.846766  0
C  C141  1  0.82611956  0.31729605  0.52674636  1  0.342104  0  0.008937  0.180379  0  3.84668  0
C  C142  1  0.82612529  0.18271316  0.02674710  1  0.342298  0  0.008829  0.180032  0  3.846791  0
C  C143  1  0.17388213  0.68269875  0.47326280  1  0.342271  0  0.008842  0.180281  0  3.846703  0
C  C144  1  0.13240591  0.73496611  0.90465362  1  -0.078088  0  -0.169429  -0.198631  0  3.913799  0
C  C145  1  0.86759363  0.23496780  0.59533591  1  -0.077938  0  -0.169527  -0.198773  0  3.91384  0
C  C146  1  0.86759777  0.26503907  0.09533980  1  -0.078625  0  -0.169388  -0.198444  0  3.913606  0
C  C147  1  0.13240193  0.76502552  0.40467313  1  -0.077542  0  -0.169429  -0.198706  0  3.913579  0
C  C148  1  0.17475772  0.63412101  0.94616045  1  -0.042209  0  -0.168438  -0.204004  0  3.904298  0
C  C149  1  0.82524192  0.13412270  0.55382737  1  -0.042209  0  -0.168394  -0.203912  0  3.904382  0
C  C150  1  0.82524523  0.36588640  0.05383655  1  -0.041763  0  -0.168424  -0.20399  0  3.904475  0
C  C151  1  0.17475269  0.86587211  0.44617960  1  -0.042356  0  -0.168411  -0.204034  0  3.904231  0
C  C152  1  0.30930480  0.63177924  0.99067460  1  0.351766  0  0.009672  0.171952  0  3.855279  0
C  C153  1  0.69069416  0.13177910  0.50931741  1  0.351306  0  0.009618  0.17159  0  3.855773  0
C  C154  1  0.69069825  0.36822965  0.00932491  1  0.351409  0  0.009566  0.171644  0  3.855544  0
C  C155  1  0.30930196  0.86821793  0.49068366  1  0.351327  0  0.00964  0.172003  0  3.855313  0
C  C156  1  0.34916965  0.71456815  0.05865997  1  0.01611  0  -0.169374  -0.200186  0  3.916403  0
C  C157  1  0.65082448  0.21456684  0.44133217  1  0.016269  0  -0.16931  -0.199952  0  3.916262  0
C  C158  1  0.65082898  0.28544296  0.94133855  1  0.016227  0  -0.169376  -0.200012  0  3.91619  0
C  C159  1  0.34917867  0.78543093  0.55866985  1  0.015879  0  -0.169309  -0.200075  0  3.916292  0
C  C160  1  0.30853704  0.81407777  0.01368363  1  -0.033236  0  -0.176376  -0.214942  0  3.93289  0
C  C161  1  0.69145520  0.31407718  0.48630858  1  -0.032858  0  -0.176437  -0.215016  0  3.932841  0
C  C162  1  0.69146147  0.18593186  0.98631176  1  -0.033151  0  -0.176408  -0.214825  0  3.932511  0
C  C163  1  0.30854715  0.68591985  0.51369513  1  -0.032779  0  -0.176433  -0.215033  0  3.932881  0
C  C164  1  0.35663852  0.45870458  0.97651852  1  1.812303  0  0.328831  0.626329  0  4.205763  0
C  C165  1  0.64336422  0.95870424  0.52347719  1  1.81248  0  0.328712  0.626255  0  4.205963  0
C  C166  1  0.64335939  0.54130208  0.02348358  1  1.812574  0  0.32884  0.626325  0  4.205663  0
C  C167  1  0.35663341  0.04129205  0.47651800  1  1.812751  0  0.32891  0.62644  0  4.205426  0
C  C168  1  0.37753437  0.27684014  0.98199961  1  0.377412  0  0.113243  0.237402  0  4.026378  0
C  C169  1  0.62246770  0.77683899  0.51799817  1  0.377686  0  0.113292  0.237503  0  4.026372  0
C  C170  1  0.62246795  0.72316727  0.01800347  1  0.376855  0  0.113221  0.237546  0  4.026303  0
C  C171  1  0.37753255  0.22315804  0.48199698  1  0.37748  0  0.113315  0.237584  0  4.02619  0
C  C172  1  0.32436415  0.26042809  0.89103430  1  0.528532  0  0.026313  -0.047076  0  3.917956  0
C  C173  1  0.67563549  0.76042826  0.60896409  1  0.528487  0  0.026304  -0.047178  0  3.917999  0
C  C174  1  0.67563643  0.73957635  0.10896901  1  0.528688  0  0.026374  -0.047112  0  3.917857  0
C  C175  1  0.32436393  0.23956950  0.39103212  1  0.528438  0  0.026305  -0.04722  0  3.91808  0
C  C176  1  0.34945640  0.08938252  0.90724551  1  0.470276  0  0.017368  0.026905  0  3.987023  0
C  C177  1  0.65053721  0.58938266  0.59275506  1  0.470373  0  0.017425  0.026899  0  3.987048  0
C  C178  1  0.65055217  0.91062340  0.09276084  1  0.46933  0  0.017474  0.026856  0  3.987016  0
C  C179  1  0.34946228  0.41061585  0.40724303  1  0.470131  0  0.017392  0.026849  0  3.987088  0
C  C180  1  0.40149083  0.09960620  0.99797388  1  -0.068001  0  -0.085746  -0.101131  0  4.006626  0
C  C181  1  0.59850619  0.59960503  0.50202687  1  -0.068005  0  -0.085758  -0.101136  0  4.006737  0
C  C182  1  0.59851600  0.90040120  0.00203270  1  -0.067452  0  -0.085753  -0.101079  0  4.006597  0
C  C183  1  0.40149328  0.40039200  0.49797059  1  -0.067975  0  -0.085697  -0.10103  0  4.006706  0
C  C184  1  0.41625830  0.19309321  0.03600753  1  0.004442  0  -0.073721  -0.139665  0  3.90329  0
C  C185  1  0.58374337  0.69309084  0.46399241  1  0.004436  0  -0.073733  -0.139719  0  3.903248  0
C  C186  1  0.58374760  0.80691419  0.96399759  1  0.00477  0  -0.073613  -0.139513  0  3.903254  0
C  C187  1  0.41625693  0.30690544  0.53600399  1  0.004445  0  -0.073809  -0.139786  0  3.903173  0
C  C188  1  0.68187676  0.37458053  0.25841182  1  -0.280754  0  -0.239785  -0.506328  0  3.764567  0
C  C189  1  0.31812230  0.87457579  0.24159155  1  -0.280883  0  -0.239889  -0.506515  0  3.7647  0
C  C190  1  0.31812816  0.62541724  0.74159060  1  -0.280721  0  -0.239884  -0.506519  0  3.764596  0
C  C191  1  0.68187273  0.12542272  0.75840430  1  -0.280887  0  -0.239847  -0.506538  0  3.764718  0
C  C192  1  0.55106389  0.53927964  0.26032756  1  -0.244007  0  -0.238202  -0.505789  0  3.780859  0
C  C193  1  0.44892784  0.03927464  0.23966879  1  -0.24403  0  -0.238156  -0.505614  0  3.780954  0
C  C194  1  0.44893845  0.46071294  0.73967615  1  -0.244041  0  -0.238196  -0.505829  0  3.781001  0
C  C195  1  0.55106351  0.96072313  0.76032250  1  -0.244204  0  -0.238351  -0.505899  0  3.780953  0
S  S196  1  0.54612856  0.40750676  0.27597997  1  1.162976  0  0.287196  0.670295  0  4.046379  0
S  S197  1  0.45386644  0.90750189  0.22401767  1  1.163163  0  0.287181  0.670276  0  4.04639  0
S  S198  1  0.45387550  0.59248508  0.72402288  1  1.16314  0  0.28719  0.670372  0  4.046274  0
S  S199  1  0.54612857  0.09249514  0.77597755  1  1.163301  0  0.287287  0.670449  0  4.046359  0
N  N200  1  0.14816020  0.29842889  0.07874361  1  -1.204036  0  -0.352722  -0.163336  0  3.674675  0
N  N201  1  0.85183886  0.79843369  0.42126188  1  -1.204053  0  -0.352749  -0.163363  0  3.674855  0
N  N202  1  0.85183748  0.70157110  0.92125284  1  -1.20397  0  -0.352858  -0.163437  0  3.67463  0
N  N203  1  0.14816271  0.20155963  0.57874415  1  -1.203937  0  -0.352716  -0.163241  0  3.674659  0
N  N204  1  0.09228577  0.07958730  0.93327780  1  -1.187241  0  -0.404775  -0.418939  0  3.568205  0
N  N205  1  0.90770799  0.57959079  0.56672400  1  -1.18753  0  -0.404692  -0.418851  0  3.568092  0
N  N206  1  0.90770472  0.92041640  0.06671392  1  -1.1876  0  -0.404762  -0.418998  0  3.568105  0
N  N207  1  0.09229624  0.42040402  0.43328325  1  -1.187652  0  -0.40476  -0.418895  0  3.568195  0
N  N208  1  0.13167873  0.91282180  0.93320035  1  -1.277606  0  -0.433163  -0.446554  0  3.518379  0
N  N209  1  0.86830864  0.41282435  0.56679294  1  -1.277499  0  -0.433136  -0.446741  0  3.518536  0
N  N210  1  0.86831960  0.08718412  0.06679063  1  -1.277169  0  -0.433183  -0.446678  0  3.518634  0
N  N211  1  0.13169214  0.58717045  0.43321541  1  -1.277363  0  -0.433224  -0.446826  0  3.51861  0
N  N212  1  0.34937896  0.53527098  0.02956302  1  -1.23906  0  -0.431618  -0.440689  0  3.492344  0
N  N213  1  0.65062061  0.03526955  0.47043133  1  -1.239138  0  -0.431524  -0.440588  0  3.492343  0
N  N214  1  0.65062328  0.46473790  0.97043818  1  -1.239277  0  -0.431576  -0.44068  0  3.4923  0
N  N215  1  0.34937710  0.96472822  0.52956574  1  -1.238808  0  -0.431671  -0.44089  0  3.492374  0
N  N216  1  0.38971779  0.36935776  0.02033941  1  -1.282768  0  -0.409808  -0.430534  0  3.563544  0
N  N217  1  0.61028631  0.86935543  0.47965759  1  -1.282899  0  -0.409816  -0.430428  0  3.563604  0
N  N218  1  0.61028011  0.63064891  0.97966269  1  -1.282468  0  -0.409886  -0.430698  0  3.563588  0
N  N219  1  0.38971132  0.13064086  0.52033759  1  -1.283181  0  -0.409887  -0.430635  0  3.563313  0
N  N220  1  0.31080723  0.16918203  0.85515758  1  -1.210363  0  -0.356817  -0.185994  0  3.711509  0
N  N221  1  0.68918903  0.66918286  0.64484210  1  -1.210338  0  -0.356816  -0.185925  0  3.711379  0
N  N222  1  0.68919693  0.83082167  0.14484778  1  -1.210649  0  -0.356872  -0.185893  0  3.711172  0
N  N223  1  0.31081130  0.33081565  0.35515493  1  -1.210513  0  -0.356834  -0.185938  0  3.711497  0
N  N224  1  0.20756935  0.57004443  0.23581323  1  0.829524  0  0.09022  0.711845  0  4.441667  0
N  N225  1  0.79243357  0.07004736  0.26418640  1  0.829682  0  0.090328  0.711991  0  4.441502  0
N  N226  1  0.79243814  0.42995556  0.76418790  1  0.829631  0  0.090132  0.711714  0  4.442042  0
N  N227  1  0.20757112  0.92995337  0.73581037  1  0.82943  0  0.090375  0.712228  0  4.44165  0
O  O228  1  0.16567995  0.99408757  0.06507953  1  -1.158951  0  -0.31742  -0.553689  0  2.142907  0
O  O229  1  0.83431767  0.49409665  0.43491850  1  -1.158682  0  -0.317409  -0.553633  0  2.142779  0
O  O230  1  0.83430265  0.00591242  0.93491168  1  -1.159024  0  -0.317403  -0.55366  0  2.142621  0
O  O231  1  0.16568748  0.50589593  0.56508957  1  -1.159014  0  -0.317278  -0.553496  0  2.142657  0
O  O232  1  0.33741495  0.46867205  0.89588569  1  -1.171093  0  -0.311046  -0.553636  0  2.176044  0
O  O233  1  0.66258946  0.96867293  0.60411043  1  -1.170889  0  -0.310993  -0.553637  0  2.176327  0
O  O234  1  0.66257946  0.53133313  0.10411624  1  -1.171181  0  -0.311034  -0.553581  0  2.175927  0
O  O235  1  0.33740643  0.03132187  0.39588499  1  -1.17112  0  -0.311068  -0.553631  0  2.175993  0
O  O236  1  0.22425400  0.53138846  0.16877913  1  -0.579442  0  -0.20206  -0.472762  0  2.045645  0
O  O237  1  0.77575017  0.03138957  0.33121996  1  -0.579533  0  -0.202105  -0.47279  0  2.045516  0
O  O238  1  0.77575603  0.46861820  0.83122007  1  -0.579523  0  -0.202004  -0.472685  0  2.045661  0
O  O239  1  0.22425893  0.96860894  0.66877779  1  -0.579199  0  -0.202033  -0.472839  0  2.045764  0
O  O240  1  0.28273815  0.62900216  0.28468497  1  -0.55541  0  -0.198065  -0.460511  0  1.942357  0
O  O241  1  0.71726334  0.12900499  0.21531587  1  -0.555429  0  -0.198079  -0.460569  0  1.9424  0
O  O242  1  0.71726588  0.37099932  0.71531725  1  -0.555277  0  -0.198042  -0.460508  0  1.942559  0
O  O243  1  0.28273793  0.87099500  0.78468262  1  -0.555434  0  -0.198043  -0.460581  0  1.942475  0
O  O244  1  0.11441748  0.54739555  0.25387042  1  -0.585731  0  -0.21104  -0.481352  0  1.948143  0
O  O245  1  0.88558655  0.04740188  0.24612934  1  -0.585822  0  -0.211074  -0.48136  0  1.948091  0
O  O246  1  0.88559261  0.45259555  0.74613004  1  -0.585863  0  -0.211018  -0.481248  0  1.948177  0
O  O247  1  0.11441806  0.95260330  0.75386554  1  -0.585852  0  -0.211211  -0.481549  0  1.948056  0
O  O248  1  0.44615080  0.36681694  0.19754654  1  -1.259437  0  -0.364517  -0.580364  0  2.268555  0
O  O249  1  0.55384801  0.86681363  0.30244864  1  -1.259504  0  -0.364519  -0.580328  0  2.268616  0
O  O250  1  0.55385676  0.63317415  0.80245647  1  -1.259576  0  -0.364557  -0.580416  0  2.268333  0
O  O251  1  0.44614700  0.13318562  0.69754658  1  -1.259628  0  -0.364607  -0.580495  0  2.268609  0
