# generated using pymatgen
data_SmH6C10N2O7
_symmetry_space_group_name_H-M   'P 1'
_cell_length_a   7.52213972
_cell_length_b   9.05506017
_cell_length_c   9.72525174
_cell_angle_alpha   118.23814690
_cell_angle_beta   92.26996141
_cell_angle_gamma   98.73773245
_symmetry_Int_Tables_number   1
_chemical_formula_structural   SmH6C10N2O7
_chemical_formula_sum   'Sm2 H12 C20 N4 O14'
_cell_volume   572.06472948
_cell_formula_units_Z   2
loop_
 _symmetry_equiv_pos_site_id
 _symmetry_equiv_pos_as_xyz
  1  'x, y, z'
loop_
 _atom_site_type_symbol
 _atom_site_label
 _atom_site_symmetry_multiplicity
 _atom_site_fract_x
 _atom_site_fract_y
 _atom_site_fract_z
 _atom_site_occupancy
 _atom_site_hle17_bader_spin_density
 _atom_site_hle17_ddec_charge
 _atom_site_hle17_ddec_spin_density
 _atom_site_hle17_ddec_sum_bond_order
 _atom_site_hle17_magmom
 _atom_site_hse06_10hf_bader_spin_density
 _atom_site_hse06_10hf_ddec_charge
 _atom_site_hse06_10hf_ddec_spin_density
 _atom_site_hse06_10hf_ddec_sum_bond_order
 _atom_site_hse06_10hf_magmom
 _atom_site_hse06_bader_spin_density
 _atom_site_hse06_ddec_charge
 _atom_site_hse06_ddec_spin_density
 _atom_site_hse06_ddec_sum_bond_order
 _atom_site_hse06_magmom
 _atom_site_pbe_bader_spin_density
 _atom_site_pbe_cm5_charge
 _atom_site_pbe_ddec_charge
 _atom_site_pbe_ddec_spin_density
 _atom_site_pbe_ddec_sum_bond_order
 _atom_site_pbe_magmom
Sm  Sm0  1  0.12606848  0.34733879  0.31863156  1  0  2.26584  0  1.628719  0  0  2.10051  0  2.100426  0  0  2.214548  0  1.92892  0  0  1.50696  2.06715  0  2.130975  0
Sm  Sm1  1  0.87392908  0.65265858  0.68136690  1  0  2.265821  0  1.628766  0  0  2.100474  0  2.100502  0  0  2.214532  0  1.92897  0  0  1.506968  2.067118  0  2.131049  0
H  H2  1  0.46201989  0.77957225  0.78753653  1  0  0.104609  0  0.927036  0  0  0.111371  0  0.992812  0  0  0.115118  0  0.987671  0  0  0.146705  0.107587  0  0.998698  0
H  H3  1  0.53798039  0.22043147  0.21246591  1  0  0.104617  0  0.927069  0  0  0.111404  0  0.992815  0  0  0.115151  0  0.987674  0  0  0.146683  0.10761  0  0.9987  0
H  H4  1  0.92259409  0.62256765  0.05597069  1  0  0.138925  0  0.948727  0  0  0.145718  0  1.011119  0  0  0.15025  0  1.006951  0  0  0.118032  0.142522  0  1.014191  0
H  H5  1  0.07740234  0.37742461  0.94402545  1  0  0.138841  0  0.94886  0  0  0.145653  0  1.011235  0  0  0.150189  0  1.007052  0  0  0.118042  0.142482  0  1.014274  0
H  H6  1  0.27445351  0.78914173  0.99964351  1  0  0.327564  0  0.916708  0  0  0.308812  0  0.97379  0  0  0.318664  0  0.965604  0  0  0.31791  0.302167  0  0.979041  0
H  H7  1  0.72555055  0.21086708  0.00036032  1  0  0.327606  0  0.916629  0  0  0.308834  0  0.973764  0  0  0.318686  0  0.965576  0  0  0.317908  0.302189  0  0.979015  0
H  H8  1  0.75596964  0.25556009  0.43000014  1  0  0.443922  0  0.85191  0  0  0.414484  0  0.912489  0  0  0.425153  0  0.897069  0  0  0.305422  0.406877  0  0.923715  0
H  H9  1  0.24402603  0.74443474  0.56999712  1  0  0.443906  0  0.851953  0  0  0.414461  0  0.912544  0  0  0.425132  0  0.897118  0  0  0.305417  0.406849  0  0.923776  0
H  H10  1  0.83500372  0.08274028  0.35833316  1  0  0.443914  0  0.805794  0  0  0.429377  0  0.851346  0  0  0.437017  0  0.840732  0  0  0.334074  0.424256  0  0.858557  0
H  H11  1  0.16499353  0.91725579  0.64166676  1  0  0.443922  0  0.805665  0  0  0.429381  0  0.851312  0  0  0.437021  0  0.840698  0  0  0.334099  0.424262  0  0.858519  0
H  H12  1  0.33479726  0.73792579  0.27307662  1  0  0.140331  0  0.938545  0  0  0.14922  0  0.99563  0  0  0.153878  0  0.992006  0  0  0.11795  0.14619  0  0.997971  0
H  H13  1  0.66520501  0.26208690  0.72692785  1  0  0.140317  0  0.938548  0  0  0.149183  0  0.995661  0  0  0.153833  0  0.992042  0  0  0.117968  0.146156  0  0.998008  0
C  C14  1  0.50908177  0.76013715  0.88368572  1  0  0.288101  0  3.650151  0  0  0.222323  0  3.94141  0  0  0.239786  0  3.952737  0  0  0.171971  0.210662  0  3.93814  0
C  C15  1  0.49092088  0.23986527  0.11631621  1  0  0.288042  0  3.65017  0  0  0.222284  0  3.941449  0  0  0.239747  0  3.952774  0  0  0.171999  0.210633  0  3.938166  0
C  C16  1  0.67081410  0.70225626  0.03449250  1  0  0.153104  0  3.818274  0  0  0.155251  0  4.067796  0  0  0.15732  0  4.093028  0  0  0.091765  0.154061  0  4.051867  0
C  C17  1  0.32918622  0.29774751  0.96550688  1  0  0.153113  0  3.818344  0  0  0.155253  0  4.067821  0  0  0.157321  0  4.093053  0  0  0.091787  0.154055  0  4.051905  0
C  C18  1  0.50662527  0.73649148  0.09876164  1  0  0.167654  0  3.795739  0  0  0.157061  0  4.043667  0  0  0.162628  0  4.064355  0  0  0.101483  0.153698  0  4.028879  0
C  C19  1  0.49337690  0.26351479  0.90124098  1  0  0.167554  0  3.795904  0  0  0.157112  0  4.043667  0  0  0.162679  0  4.064358  0  0  0.101454  0.153749  0  4.028881  0
C  C20  1  0.59322997  0.67278972  0.30164322  1  0  -0.071263  0  3.696232  0  0  -0.060908  0  3.938725  0  0  -0.065165  0  3.959648  0  0  -0.008719  -0.057588  0  3.923664  0
C  C21  1  0.40677002  0.32721273  0.69835864  1  0  -0.071369  0  3.696158  0  0  -0.061017  0  3.938728  0  0  -0.065254  0  3.959626  0  0  -0.008758  -0.057703  0  3.923674  0
C  C22  1  0.53618645  0.66655982  0.44593835  1  0  0.738059  0  3.819084  0  0  0.688976  0  4.113529  0  0  0.724835  0  4.103954  0  0  0.242638  0.664094  0  4.122935  0
C  C23  1  0.46381032  0.33344009  0.55406329  1  0  0.738126  0  3.818952  0  0  0.688983  0  4.11352  0  0  0.724837  0  4.103944  0  0  0.242689  0.664118  0  4.122903  0
C  C24  1  0.76201346  0.64116781  0.24020888  1  0  -0.092479  0  3.69875  0  0  -0.081922  0  3.943835  0  0  -0.089631  0  3.965704  0  0  -0.019466  -0.076325  0  3.928055  0
C  C25  1  0.23798435  0.35883081  0.75979221  1  0  -0.092408  0  3.69871  0  0  -0.081871  0  3.943848  0  0  -0.089583  0  3.965713  0  0  -0.019496  -0.076278  0  3.928082  0
C  C26  1  0.90153429  0.57159495  0.29446966  1  0  0.669837  0  3.888321  0  0  0.623283  0  4.181772  0  0  0.657505  0  4.180213  0  0  0.208158  0.599319  0  4.188232  0
C  C27  1  0.09846461  0.42840242  0.70552783  1  0  0.669748  0  3.888415  0  0  0.623213  0  4.181852  0  0  0.65743  0  4.180301  0  0  0.208117  0.59925  0  4.188317  0
C  C28  1  0.79846909  0.65510667  0.10598303  1  0  -0.109931  0  3.656606  0  0  -0.145559  0  3.914541  0  0  -0.143814  0  3.929732  0  0  -0.072931  -0.146681  0  3.90367  0
C  C29  1  0.20152979  0.34489068  0.89401548  1  0  -0.109854  0  3.656786  0  0  -0.145503  0  3.914744  0  0  -0.143755  0  3.929936  0  0  -0.072922  -0.146647  0  3.903872  0
C  C30  1  0.46534001  0.72034646  0.22972297  1  0  -0.148575  0  3.701243  0  0  -0.178432  0  3.954052  0  0  -0.180471  0  3.970699  0  0  -0.081271  -0.176928  0  3.942145  0
C  C31  1  0.53466300  0.27966364  0.77028242  1  0  -0.148507  0  3.701239  0  0  -0.178359  0  3.954011  0  0  -0.180399  0  3.970649  0  0  -0.081267  -0.176859  0  3.942115  0
C  C32  1  0.05165425  0.95553821  0.03473305  1  0  0.554062  0  3.936488  0  0  0.507602  0  4.239344  0  0  0.536916  0  4.236514  0  0  0.215053  0.48739  0  4.245034  0
C  C33  1  0.94835372  0.04446414  0.96526803  1  0  0.553906  0  3.93658  0  0  0.507364  0  4.239513  0  0  0.53668  0  4.236679  0  0  0.214942  0.487156  0  4.245199  0
N  N34  1  0.66766676  0.71744311  0.89827790  1  0  -0.546271  0  3.164732  0  0  -0.499625  0  3.451261  0  0  -0.526794  0  3.469167  0  0  -0.419341  -0.487265  0  3.441382  0
N  N35  1  0.33233112  0.28255558  0.10171808  1  0  -0.546279  0  3.164804  0  0  -0.499634  0  3.451326  0  0  -0.526801  0  3.469234  0  0  -0.419341  -0.487262  0  3.441417  0
N  N36  1  0.40912737  0.77435595  0.00081447  1  0  -0.328731  0  3.34871  0  0  -0.265593  0  3.583364  0  0  -0.283939  0  3.593684  0  0  -0.36863  -0.252725  0  3.57517  0
N  N37  1  0.59087407  0.22565293  0.99918723  1  0  -0.32865  0  3.348656  0  0  -0.265649  0  3.583422  0  0  -0.283992  0  3.59374  0  0  -0.368612  -0.252782  0  3.575223  0
O  O38  1  0.04783806  0.55466667  0.23338822  1  0  -0.657525  0  1.994749  0  0  -0.612001  0  2.23704  0  0  -0.641159  0  2.226476  0  0  -0.353283  -0.59612  0  2.243517  0
O  O39  1  0.95215412  0.44532438  0.76660619  1  0  -0.657532  0  1.994729  0  0  -0.612017  0  2.237029  0  0  -0.641177  0  2.226464  0  0  -0.353264  -0.596136  0  2.243508  0
O  O40  1  0.87113134  0.51642464  0.39432181  1  0  -0.830461  0  2.134524  0  0  -0.769456  0  2.39902  0  0  -0.809591  0  2.387309  0  0  -0.44519  -0.751445  0  2.406011  0
O  O41  1  0.12886353  0.48357272  0.60567964  1  0  -0.830355  0  2.134515  0  0  -0.769348  0  2.398992  0  0  -0.809484  0  2.387296  0  0  -0.445143  -0.751335  0  2.405986  0
O  O42  1  0.64873479  0.73148120  0.56900109  1  0  -0.713659  0  2.050238  0  0  -0.663438  0  2.305766  0  0  -0.696144  0  2.288945  0  0  -0.403926  -0.645948  0  2.316477  0
O  O43  1  0.35126379  0.26851485  0.43099888  1  0  -0.713679  0  2.050288  0  0  -0.663446  0  2.305863  0  0  -0.696147  0  2.289044  0  0  -0.403931  -0.645953  0  2.316561  0
O  O44  1  0.36828572  0.60824046  0.44120364  1  0  -0.75039  0  2.069141  0  0  -0.692229  0  2.317999  0  0  -0.725737  0  2.303652  0  0  -0.373259  -0.675182  0  2.327203  0
O  O45  1  0.63171293  0.39175567  0.55879020  1  0  -0.750422  0  2.069055  0  0  -0.692235  0  2.317939  0  0  -0.725749  0  2.303602  0  0  -0.373293  -0.675195  0  2.327136  0
O  O46  1  0.06893827  0.80398560  0.93850940  1  0  -0.664781  0  2.125202  0  0  -0.611137  0  2.366627  0  0  -0.643403  0  2.358291  0  0  -0.357806  -0.593246  0  2.370356  0
O  O47  1  0.93106963  0.19601036  0.06148778  1  0  -0.664703  0  2.125288  0  0  -0.611021  0  2.36673  0  0  -0.643285  0  2.358392  0  0  -0.357734  -0.593135  0  2.370467  0
O  O48  1  0.11243442  0.03677677  0.17850764  1  0  -0.627552  0  2.045315  0  0  -0.584394  0  2.288358  0  0  -0.613124  0  2.277892  0  0  -0.360696  -0.569398  0  2.294016  0
O  O49  1  0.88757187  0.96321793  0.82148892  1  0  -0.627515  0  2.045326  0  0  -0.584331  0  2.288399  0  0  -0.613072  0  2.277939  0  0  -0.360676  -0.56932  0  2.294029  0
O  O50  1  0.84363968  0.19225818  0.36114583  1  0  -0.894275  0  1.846033  0  0  -0.849235  0  2.025215  0  0  -0.874596  0  1.991772  0  0  -0.613604  -0.837074  0  2.044988  0
O  O51  1  0.15635777  0.80773276  0.63885180  1  0  -0.894272  0  1.845957  0  0  -0.849225  0  2.025235  0  0  -0.87459  0  1.991791  0  0  -0.613637  -0.837069  0  2.045015  0
