# generated using pymatgen
data_CdH13C14Br3N4
_symmetry_space_group_name_H-M   'P 1'
_cell_length_a   7.40634455
_cell_length_b   14.14752157
_cell_length_c   16.02571816
_cell_angle_alpha   90.00024608
_cell_angle_beta   94.09457988
_cell_angle_gamma   89.99998250
_symmetry_Int_Tables_number   1
_chemical_formula_structural   CdH13C14Br3N4
_chemical_formula_sum   'Cd4 H52 C56 Br12 N16'
_cell_volume   1674.91141434
_cell_formula_units_Z   4
loop_
 _symmetry_equiv_pos_site_id
 _symmetry_equiv_pos_as_xyz
  1  'x, y, z'
loop_
 _atom_site_type_symbol
 _atom_site_label
 _atom_site_symmetry_multiplicity
 _atom_site_fract_x
 _atom_site_fract_y
 _atom_site_fract_z
 _atom_site_occupancy
 _atom_site_hle17_bader_spin_density
 _atom_site_hle17_ddec_charge
 _atom_site_hle17_ddec_spin_density
 _atom_site_hle17_ddec_sum_bond_order
 _atom_site_hle17_magmom
 _atom_site_hse06_10hf_bader_spin_density
 _atom_site_hse06_10hf_ddec_charge
 _atom_site_hse06_10hf_ddec_spin_density
 _atom_site_hse06_10hf_ddec_sum_bond_order
 _atom_site_hse06_10hf_magmom
 _atom_site_hse06_bader_spin_density
 _atom_site_hse06_ddec_charge
 _atom_site_hse06_ddec_spin_density
 _atom_site_hse06_ddec_sum_bond_order
 _atom_site_hse06_magmom
 _atom_site_pbe_bader_spin_density
 _atom_site_pbe_cm5_charge
 _atom_site_pbe_ddec_charge
 _atom_site_pbe_ddec_spin_density
 _atom_site_pbe_ddec_sum_bond_order
 _atom_site_pbe_magmom
Cd  Cd0  1  0.25524081  0.49612145  0.55678155  1  0  0.897449  0  1.981226  0  0  0.738056  0  2.431912  0  0  0.786418  0  2.393348  0  0  0.547796  0.704251  0  2.457698  0
Cd  Cd1  1  0.74476043  0.99612442  0.94322037  1  0  0.897554  0  1.980942  0  0  0.738166  0  2.431621  0  0  0.786541  0  2.393033  0  0  0.547841  0.704326  0  2.457477  0
Cd  Cd2  1  0.74475959  0.50387302  0.44322238  1  0  0.897595  0  1.980897  0  0  0.738209  0  2.431578  0  0  0.786585  0  2.392988  0  0  0.547846  0.704362  0  2.457451  0
Cd  Cd3  1  0.25524003  0.00387571  0.05677919  1  0  0.897572  0  1.980976  0  0  0.738172  0  2.431662  0  0  0.786549  0  2.393073  0  0  0.547846  0.704356  0  2.45748  0
H  H4  1  0.70312821  0.26835955  0.96373770  1  0  0.106061  0  0.96913  0  0  0.112413  0  1.041528  0  0  0.115722  0  1.039265  0  0  0.090819  0.10994  0  1.043369  0
H  H5  1  0.29687437  0.76836202  0.53626404  1  0  0.106112  0  0.969054  0  0  0.112439  0  1.04148  0  0  0.11575  0  1.039214  0  0  0.090854  0.109968  0  1.043315  0
H  H6  1  0.29687761  0.73163917  0.03626580  1  0  0.106102  0  0.969062  0  0  0.112422  0  1.041495  0  0  0.115731  0  1.039232  0  0  0.090825  0.10995  0  1.043329  0
H  H7  1  0.70312878  0.23164235  0.46373687  1  0  0.106033  0  0.969127  0  0  0.11236  0  1.041568  0  0  0.11567  0  1.039303  0  0  0.090789  0.109887  0  1.043401  0
H  H8  1  0.71927934  0.52136079  0.11438600  1  0  0.106614  0  0.954896  0  0  0.11386  0  1.02271  0  0  0.116746  0  1.022154  0  0  0.098743  0.111806  0  1.02312  0
H  H9  1  0.28071079  0.02136438  0.38561655  1  0  0.106527  0  0.955017  0  0  0.113811  0  1.02278  0  0  0.116693  0  1.022233  0  0  0.098733  0.111758  0  1.023193  0
H  H10  1  0.28070483  0.47863933  0.88561611  1  0  0.10655  0  0.955009  0  0  0.113825  0  1.022767  0  0  0.116703  0  1.022234  0  0  0.098738  0.111769  0  1.023178  0
H  H11  1  0.71928696  0.97864070  0.61438354  1  0  0.106575  0  0.954836  0  0  0.113842  0  1.022614  0  0  0.11672  0  1.022076  0  0  0.098746  0.11179  0  1.023028  0
H  H12  1  0.80304068  0.53837193  0.85121883  1  0  0.096913  0  0.971729  0  0  0.106903  0  1.038943  0  0  0.109512  0  1.038255  0  0  0.095807  0.105005  0  1.03954  0
H  H13  1  0.19694562  0.03837154  0.64878396  1  0  0.096946  0  0.971783  0  0  0.106908  0  1.039011  0  0  0.109517  0  1.038324  0  0  0.095797  0.105013  0  1.0396  0
H  H14  1  0.19695162  0.46162749  0.14878357  1  0  0.096897  0  0.97172  0  0  0.10686  0  1.038973  0  0  0.109468  0  1.038288  0  0  0.095769  0.104963  0  1.039566  0
H  H15  1  0.80304808  0.96163212  0.35121537  1  0  0.096939  0  0.971769  0  0  0.106885  0  1.039037  0  0  0.109494  0  1.038351  0  0  0.095783  0.104988  0  1.03963  0
H  H16  1  0.86443728  0.38345345  0.77825382  1  0  0.090444  0  0.911498  0  0  0.107474  0  0.970301  0  0  0.108622  0  0.969223  0  0  0.115995  0.106534  0  0.971178  0
H  H17  1  0.13555987  0.88345402  0.72174941  1  0  0.090517  0  0.911375  0  0  0.107483  0  0.970257  0  0  0.108632  0  0.969178  0  0  0.115999  0.106547  0  0.971136  0
H  H18  1  0.13555906  0.61654668  0.22174997  1  0  0.090533  0  0.911395  0  0  0.107527  0  0.970241  0  0  0.108676  0  0.969162  0  0  0.116011  0.106588  0  0.971119  0
H  H19  1  0.86444058  0.11655035  0.27825078  1  0  0.090475  0  0.911486  0  0  0.107492  0  0.970314  0  0  0.108643  0  0.969233  0  0  0.116014  0.106555  0  0.971194  0
H  H20  1  0.79952070  0.27565659  0.82478349  1  0  0.089303  0  0.954112  0  0  0.100369  0  1.02137  0  0  0.100859  0  1.022261  0  0  0.110989  0.099921  0  1.02087  0
H  H21  1  0.20047378  0.77565905  0.67521674  1  0  0.08927  0  0.954193  0  0  0.100347  0  1.021437  0  0  0.100842  0  1.022321  0  0  0.11097  0.0999  0  1.020936  0
H  H22  1  0.20047566  0.72434071  0.17521905  1  0  0.08922  0  0.95425  0  0  0.100348  0  1.021457  0  0  0.100843  0  1.022343  0  0  0.110973  0.099902  0  1.020949  0
H  H23  1  0.79952129  0.22434532  0.32478138  1  0  0.089243  0  0.954202  0  0  0.100305  0  1.021464  0  0  0.100793  0  1.022362  0  0  0.110977  0.099859  0  1.020966  0
H  H24  1  0.41339646  0.27710639  0.84136724  1  0  0.114513  0  0.99219  0  0  0.118832  0  1.065331  0  0  0.122599  0  1.062463  0  0  0.104596  0.116068  0  1.067495  0
H  H25  1  0.58660075  0.77710517  0.65863122  1  0  0.114511  0  0.992219  0  0  0.118849  0  1.065332  0  0  0.122611  0  1.062476  0  0  0.1046  0.116086  0  1.067496  0
H  H26  1  0.58659586  0.72289445  0.15863391  1  0  0.114497  0  0.992138  0  0  0.11881  0  1.065298  0  0  0.122577  0  1.062429  0  0  0.104589  0.116047  0  1.067457  0
H  H27  1  0.41339840  0.22289496  0.34136518  1  0  0.114525  0  0.992113  0  0  0.118845  0  1.065263  0  0  0.122612  0  1.062394  0  0  0.104602  0.116081  0  1.067426  0
H  H28  1  0.15777539  0.33142727  0.71362620  1  0  0.09347  0  0.982289  0  0  0.101123  0  1.049868  0  0  0.103697  0  1.048434  0  0  0.102293  0.099179  0  1.051062  0
H  H29  1  0.84222321  0.83142875  0.78636939  1  0  0.093499  0  0.982234  0  0  0.101177  0  1.04978  0  0  0.103763  0  1.048334  0  0  0.102337  0.099235  0  1.050975  0
H  H30  1  0.84222511  0.66857074  0.28637025  1  0  0.093441  0  0.98219  0  0  0.101108  0  1.049762  0  0  0.10367  0  1.048341  0  0  0.102296  0.099166  0  1.050955  0
H  H31  1  0.15777596  0.16857138  0.21362514  1  0  0.093477  0  0.982239  0  0  0.101135  0  1.049809  0  0  0.103684  0  1.048403  0  0  0.102296  0.099192  0  1.051008  0
H  H32  1  0.66770706  0.43797368  0.65936594  1  0  0.087249  0  0.996818  0  0  0.08917  0  1.077536  0  0  0.092344  0  1.073424  0  0  0.109738  0.086761  0  1.080574  0
H  H33  1  0.33229147  0.93797692  0.84063567  1  0  0.087276  0  0.996656  0  0  0.089139  0  1.077438  0  0  0.092312  0  1.073328  0  0  0.109747  0.086731  0  1.080473  0
H  H34  1  0.33229468  0.56202433  0.34063929  1  0  0.087255  0  0.996697  0  0  0.089155  0  1.077421  0  0  0.092329  0  1.073309  0  0  0.109739  0.086745  0  1.080463  0
H  H35  1  0.66770631  0.06202816  0.15936131  1  0  0.087225  0  0.996835  0  0  0.08917  0  1.077533  0  0  0.092344  0  1.073421  0  0  0.109734  0.086764  0  1.080571  0
H  H36  1  0.69826130  0.25344671  0.10668932  1  0  0.094868  0  0.942636  0  0  0.107337  0  1.010381  0  0  0.108736  0  1.009066  0  0  0.103429  0.106206  0  1.011456  0
H  H37  1  0.30174782  0.75344669  0.39331228  1  0  0.094808  0  0.942641  0  0  0.107249  0  1.010401  0  0  0.108647  0  1.009094  0  0  0.103384  0.106117  0  1.011472  0
H  H38  1  0.30173778  0.74655342  0.89331207  1  0  0.094861  0  0.942656  0  0  0.107357  0  1.010374  0  0  0.108759  0  1.009057  0  0  0.103419  0.106222  0  1.011445  0
H  H39  1  0.69825800  0.24655344  0.60669122  1  0  0.094884  0  0.942614  0  0  0.107353  0  1.010354  0  0  0.108754  0  1.009039  0  0  0.103442  0.106219  0  1.011423  0
H  H40  1  0.51987322  0.32984816  0.13052793  1  0  0.082996  0  0.936309  0  0  0.094851  0  1.006375  0  0  0.095891  0  1.006018  0  0  0.107067  0.094039  0  1.006705  0
H  H41  1  0.48013045  0.82985293  0.36947689  1  0  0.082964  0  0.936351  0  0  0.094816  0  1.00642  0  0  0.095858  0  1.00606  0  0  0.107051  0.094004  0  1.006742  0
H  H42  1  0.48012446  0.67014844  0.86947715  1  0  0.082967  0  0.936424  0  0  0.094891  0  1.006427  0  0  0.095933  0  1.006068  0  0  0.107057  0.094076  0  1.006757  0
H  H43  1  0.51987268  0.17014791  0.63052590  1  0  0.082983  0  0.936303  0  0  0.094838  0  1.006375  0  0  0.095879  0  1.006016  0  0  0.107065  0.094023  0  1.006701  0
H  H44  1  0.03642071  0.31874671  0.17248569  1  0  0.108535  0  0.982835  0  0  0.112836  0  1.056453  0  0  0.116322  0  1.053952  0  0  0.111728  0.110292  0  1.058362  0
H  H45  1  0.96358716  0.81874200  0.32750801  1  0  0.108508  0  0.982874  0  0  0.112834  0  1.05645  0  0  0.116318  0  1.053952  0  0  0.111734  0.110288  0  1.058359  0
H  H46  1  0.96357979  0.68125201  0.82751076  1  0  0.108488  0  0.982807  0  0  0.112791  0  1.056431  0  0  0.116276  0  1.053935  0  0  0.111705  0.110247  0  1.058342  0
H  H47  1  0.03642013  0.18125035  0.67248681  1  0  0.10851  0  0.982776  0  0  0.11282  0  1.056374  0  0  0.116305  0  1.053877  0  0  0.111725  0.110277  0  1.05828  0
H  H48  1  0.10652452  0.39022464  0.33532490  1  0  0.10306  0  0.990251  0  0  0.106939  0  1.062112  0  0  0.110171  0  1.059797  0  0  0.096738  0.104543  0  1.063917  0
H  H49  1  0.89349555  0.89021703  0.16466825  1  0  0.10307  0  0.990424  0  0  0.106992  0  1.062221  0  0  0.110224  0  1.059903  0  0  0.096769  0.104596  0  1.064023  0
H  H50  1  0.89349088  0.60977549  0.66467083  1  0  0.103058  0  0.990417  0  0  0.106965  0  1.062221  0  0  0.110197  0  1.059904  0  0  0.096755  0.10457  0  1.064026  0
H  H51  1  0.10651988  0.10977108  0.83532498  1  0  0.103058  0  0.990245  0  0  0.106946  0  1.062094  0  0  0.110178  0  1.059778  0  0  0.096744  0.104552  0  1.063894  0
H  H52  1  0.54650474  0.40725922  0.26801502  1  0  0.090322  0  0.950911  0  0  0.09784  0  1.020255  0  0  0.100507  0  1.01691  0  0  0.124304  0.095856  0  1.022645  0
H  H53  1  0.45350841  0.90726333  0.23199043  1  0  0.090223  0  0.950872  0  0  0.097759  0  1.020218  0  0  0.100423  0  1.016876  0  0  0.124274  0.095778  0  1.022606  0
H  H54  1  0.45350378  0.59274020  0.73198920  1  0  0.090255  0  0.950858  0  0  0.097787  0  1.020204  0  0  0.100453  0  1.01686  0  0  0.124284  0.095805  0  1.022598  0
H  H55  1  0.54650283  0.09273892  0.76801389  1  0  0.090305  0  0.950917  0  0  0.097794  0  1.020289  0  0  0.100459  0  1.016948  0  0  0.124281  0.095816  0  1.022677  0
C  C56  1  0.75102552  0.39844365  0.89842541  1  0  0.090721  0  3.764877  0  0  0.113099  0  4.005318  0  0  0.112935  0  4.028352  0  0  -0.013638  0.113161  0  3.989701  0
C  C57  1  0.24896490  0.89844362  0.60157451  1  0  0.090691  0  3.765037  0  0  0.113162  0  4.005328  0  0  0.113002  0  4.028361  0  0  -0.013618  0.113216  0  3.989724  0
C  C58  1  0.24896948  0.60155506  0.10157708  1  0  0.090714  0  3.764976  0  0  0.113146  0  4.005342  0  0  0.112985  0  4.028379  0  0  -0.013629  0.113199  0  3.989729  0
C  C59  1  0.75102880  0.10155792  0.39842419  1  0  0.090405  0  3.765342  0  0  0.113028  0  4.005467  0  0  0.112866  0  4.028501  0  0  -0.013677  0.113083  0  3.989851  0
C  C60  1  0.71746335  0.34497581  0.96880401  1  0  -0.165261  0  3.717956  0  0  -0.198663  0  3.970052  0  0  -0.200984  0  3.989425  0  0  -0.095917  -0.197136  0  3.957281  0
C  C61  1  0.28252976  0.84497967  0.53119768  1  0  -0.165279  0  3.718017  0  0  -0.19867  0  3.970085  0  0  -0.200993  0  3.989456  0  0  -0.095975  -0.197139  0  3.957309  0
C  C62  1  0.28253436  0.65502220  0.03119858  1  0  -0.165239  0  3.717913  0  0  -0.198621  0  3.969997  0  0  -0.200942  0  3.989369  0  0  -0.095891  -0.197086  0  3.957215  0
C  C63  1  0.71746800  0.15502683  0.46880117  1  0  -0.165053  0  3.717906  0  0  -0.198504  0  3.969933  0  0  -0.200826  0  3.989306  0  0  -0.095837  -0.196969  0  3.957148  0
C  C64  1  0.70537994  0.38838469  0.04651131  1  0  0.093411  0  3.751823  0  0  0.115926  0  3.993648  0  0  0.11588  0  4.016806  0  0  -0.011026  0.115823  0  3.978114  0
C  C65  1  0.29461431  0.88838637  0.45348903  1  0  0.093405  0  3.751752  0  0  0.115883  0  3.993635  0  0  0.11584  0  4.016787  0  0  -0.011026  0.115785  0  3.9781  0
C  C66  1  0.29461507  0.61161615  0.95349118  1  0  0.093534  0  3.751699  0  0  0.116006  0  3.993606  0  0  0.115962  0  4.016762  0  0  -0.010998  0.115906  0  3.978067  0
C  C67  1  0.70538614  0.11161588  0.54651054  1  0  0.093334  0  3.751783  0  0  0.115823  0  3.993674  0  0  0.11578  0  4.01683  0  0  -0.011056  0.115724  0  3.978135  0
C  C68  1  0.72744273  0.48629161  0.05415629  1  0  -0.160365  0  3.719301  0  0  -0.192141  0  3.970382  0  0  -0.195377  0  3.991506  0  0  -0.098715  -0.189817  0  3.956084  0
C  C69  1  0.27254609  0.98629538  0.44584610  1  0  -0.160181  0  3.719199  0  0  -0.192  0  3.970327  0  0  -0.195245  0  3.991471  0  0  -0.098668  -0.189681  0  3.956041  0
C  C70  1  0.27254553  0.51370782  0.94584471  1  0  -0.160354  0  3.719203  0  0  -0.192152  0  3.970298  0  0  -0.1954  0  3.99144  0  0  -0.098723  -0.189827  0  3.956008  0
C  C71  1  0.72744896  0.01371041  0.55415265  1  0  -0.160289  0  3.719338  0  0  -0.192074  0  3.970448  0  0  -0.19532  0  3.991591  0  0  -0.098753  -0.189756  0  3.956161  0
C  C72  1  0.76096415  0.53903244  0.98337031  1  0  0.101457  0  3.744597  0  0  0.120308  0  4.009677  0  0  0.123387  0  4.032672  0  0  -0.019204  0.118101  0  3.994126  0
C  C73  1  0.23902622  0.03903423  0.51663200  1  0  0.101353  0  3.744464  0  0  0.120219  0  4.009514  0  0  0.123296  0  4.032507  0  0  -0.019237  0.118008  0  3.993973  0
C  C74  1  0.23902950  0.46096698  0.01663213  1  0  0.101507  0  3.744376  0  0  0.1204  0  4.009396  0  0  0.123478  0  4.03239  0  0  -0.019176  0.118187  0  3.993856  0
C  C75  1  0.76096881  0.96096944  0.48336863  1  0  0.101285  0  3.744551  0  0  0.120152  0  4.009632  0  0  0.12323  0  4.032625  0  0  -0.019211  0.117946  0  3.994083  0
C  C76  1  0.77284867  0.49639157  0.90552146  1  0  -0.17534  0  3.743087  0  0  -0.206928  0  3.993518  0  0  -0.21038  0  4.014797  0  0  -0.105158  -0.204509  0  3.979137  0
C  C77  1  0.22713631  0.99639433  0.59448114  1  0  -0.175372  0  3.742956  0  0  -0.20696  0  3.993337  0  0  -0.21041  0  4.014613  0  0  -0.105175  -0.204546  0  3.978968  0
C  C78  1  0.22714635  0.50360644  0.09448041  1  0  -0.175412  0  3.743054  0  0  -0.207015  0  3.993477  0  0  -0.210468  0  4.01476  0  0  -0.105203  -0.204601  0  3.979112  0
C  C79  1  0.77285468  0.00361145  0.40551747  1  0  -0.175177  0  3.743012  0  0  -0.206823  0  3.993376  0  0  -0.210275  0  4.014656  0  0  -0.105131  -0.20441  0  3.979008  0
C  C80  1  0.76239205  0.35011626  0.81507680  1  0  -0.040304  0  3.635784  0  0  -0.105447  0  3.879205  0  0  -0.100653  0  3.888672  0  0  -0.04601  -0.108499  0  3.872747  0
C  C81  1  0.23760243  0.85011875  0.68492309  1  0  -0.040292  0  3.635719  0  0  -0.10544  0  3.879131  0  0  -0.10065  0  3.888608  0  0  -0.045972  -0.108495  0  3.872681  0
C  C82  1  0.23760431  0.64988175  0.18492512  1  0  -0.040282  0  3.635858  0  0  -0.105486  0  3.87928  0  0  -0.100699  0  3.888762  0  0  -0.046002  -0.108539  0  3.872821  0
C  C83  1  0.76239400  0.14988491  0.31507384  1  0  -0.040171  0  3.635822  0  0  -0.105378  0  3.879181  0  0  -0.100586  0  3.88865  0  0  -0.045978  -0.108428  0  3.872727  0
C  C84  1  0.42601302  0.31833114  0.78491064  1  0  -0.076857  0  3.676582  0  0  -0.114477  0  3.933374  0  0  -0.113233  0  3.951313  0  0  -0.009813  -0.115167  0  3.921317  0
C  C85  1  0.57398284  0.81833090  0.71508730  1  0  -0.076791  0  3.676421  0  0  -0.114428  0  3.933215  0  0  -0.113183  0  3.951153  0  0  -0.009796  -0.115116  0  3.921162  0
C  C86  1  0.57398199  0.68166970  0.21509185  1  0  -0.076604  0  3.67641  0  0  -0.114213  0  3.93318  0  0  -0.112971  0  3.951124  0  0  -0.009711  -0.114898  0  3.921114  0
C  C87  1  0.42601497  0.18167064  0.28490718  1  0  -0.076727  0  3.676561  0  0  -0.114337  0  3.933318  0  0  -0.113097  0  3.951265  0  0  -0.009773  -0.115013  0  3.921248  0
C  C88  1  0.30187106  0.34546861  0.72142328  1  0  -0.009153  0  3.772349  0  0  -0.04117  0  4.036841  0  0  -0.038922  0  4.056474  0  0  -0.015484  -0.04259  0  4.023611  0
C  C89  1  0.69812752  0.84547078  0.77857423  1  0  -0.00922  0  3.772243  0  0  -0.041256  0  4.036768  0  0  -0.039017  0  4.056392  0  0  -0.015521  -0.042676  0  4.023541  0
C  C90  1  0.69812534  0.65453011  0.27857614  1  0  -0.009253  0  3.772421  0  0  -0.041286  0  4.036949  0  0  -0.039028  0  4.056589  0  0  -0.015506  -0.042712  0  4.02372  0
C  C91  1  0.30187299  0.15453218  0.22142159  1  0  -0.009242  0  3.772456  0  0  -0.041265  0  4.036963  0  0  -0.038997  0  4.056607  0  0  -0.015475  -0.04269  0  4.02374  0
C  C92  1  0.56118652  0.40281778  0.69082020  1  0  0.143635  0  3.682262  0  0  0.086077  0  3.947693  0  0  0.099176  0  3.960772  0  0  0.12692  0.077637  0  3.938691  0
C  C93  1  0.43882561  0.90281732  0.80917614  1  0  0.143713  0  3.682578  0  0  0.086245  0  3.947976  0  0  0.099344  0  3.961056  0  0  0.126964  0.077805  0  3.938967  0
C  C94  1  0.43882341  0.59718376  0.30917970  1  0  0.143722  0  3.682445  0  0  0.08622  0  3.947868  0  0  0.099319  0  3.960947  0  0  0.126997  0.077776  0  3.938866  0
C  C95  1  0.56118847  0.09718352  0.19081705  1  0  0.143651  0  3.682119  0  0  0.086065  0  3.947575  0  0  0.099163  0  3.960655  0  0  0.126915  0.077628  0  3.938572  0
C  C96  1  0.66500611  0.32729855  0.12014843  1  0  -0.042448  0  3.642463  0  0  -0.1084  0  3.885281  0  0  -0.104192  0  3.895404  0  0  -0.048977  -0.111035  0  3.878423  0
C  C97  1  0.33499625  0.82730199  0.37985259  1  0  -0.042384  0  3.642508  0  0  -0.108285  0  3.885297  0  0  -0.104079  0  3.895416  0  0  -0.048904  -0.11092  0  3.878429  0
C  C98  1  0.33499026  0.67270016  0.87985287  1  0  -0.042533  0  3.642693  0  0  -0.108515  0  3.885423  0  0  -0.104311  0  3.895546  0  0  -0.048986  -0.111148  0  3.878552  0
C  C99  1  0.66500691  0.17270026  0.62014769  1  0  -0.042388  0  3.642444  0  0  -0.108316  0  3.885224  0  0  -0.104112  0  3.895345  0  0  -0.048971  -0.110948  0  3.878354  0
C  C100  1  0.94860048  0.34845724  0.21703914  1  0  -0.081062  0  3.678376  0  0  -0.117207  0  3.933006  0  0  -0.116305  0  3.9513  0  0  -0.00708  -0.117686  0  3.920764  0
C  C101  1  0.05140734  0.84845318  0.28295904  1  0  -0.08107  0  3.678162  0  0  -0.117232  0  3.932823  0  0  -0.116328  0  3.951112  0  0  -0.007052  -0.117714  0  3.920575  0
C  C102  1  0.05140133  0.65154147  0.78296048  1  0  -0.080927  0  3.67816  0  0  -0.117087  0  3.932818  0  0  -0.116186  0  3.951111  0  0  -0.007049  -0.117569  0  3.920578  0
C  C103  1  0.94859992  0.15153917  0.71703890  1  0  -0.080901  0  3.678066  0  0  -0.117048  0  3.93272  0  0  -0.116147  0  3.951013  0  0  -0.007009  -0.117534  0  3.920478  0
C  C104  1  0.98014507  0.38417394  0.29681522  1  0  -0.003561  0  3.745838  0  0  -0.031999  0  4.005165  0  0  -0.029804  0  4.024156  0  0  -0.010622  -0.033459  0  3.992417  0
C  C105  1  0.01986147  0.88417303  0.20317743  1  0  -0.00347  0  3.745694  0  0  -0.03196  0  4.004989  0  0  -0.029758  0  4.023983  0  0  -0.010641  -0.033422  0  3.992249  0
C  C106  1  0.01986221  0.61582548  0.70318085  1  0  -0.003542  0  3.74596  0  0  -0.032003  0  4.005278  0  0  -0.029807  0  4.024268  0  0  -0.010631  -0.033464  0  3.992535  0
C  C107  1  0.98014314  0.11582215  0.79681542  1  0  -0.003555  0  3.745653  0  0  -0.031998  0  4.004991  0  0  -0.029805  0  4.023989  0  0  -0.010652  -0.033456  0  3.99224  0
C  C108  1  0.69033825  0.39444282  0.26520394  1  0  0.156573  0  3.678476  0  0  0.094954  0  3.947534  0  0  0.108814  0  3.960101  0  0  0.131321  0.086062  0  3.938703  0
C  C109  1  0.30968037  0.89444555  0.23479728  1  0  0.156883  0  3.678037  0  0  0.095206  0  3.947099  0  0  0.109077  0  3.959664  0  0  0.131453  0.086312  0  3.938279  0
C  C110  1  0.30967572  0.60555448  0.73479860  1  0  0.156896  0  3.678248  0  0  0.095241  0  3.947298  0  0  0.109104  0  3.959861  0  0  0.131466  0.086337  0  3.93848  0
C  C111  1  0.69032957  0.10555458  0.76520262  1  0  0.156782  0  3.678291  0  0  0.09519  0  3.947351  0  0  0.109053  0  3.959912  0  0  0.131429  0.086282  0  3.938543  0
Br  Br112  1  0.57731324  0.61017463  0.56161995  1  0  -0.553253  0  1.056569  0  0  -0.492717  0  1.367923  0  0  -0.513021  0  1.345822  0  0  -0.270485  -0.478043  0  1.382885  0
Br  Br113  1  0.42267996  0.11017209  0.93837274  1  0  -0.553231  0  1.056513  0  0  -0.492707  0  1.367906  0  0  -0.513016  0  1.345804  0  0  -0.270473  -0.478034  0  1.382876  0
Br  Br114  1  0.42267780  0.38982974  0.43837491  1  0  -0.553234  0  1.056604  0  0  -0.492727  0  1.368029  0  0  -0.513034  0  1.345929  0  0  -0.27046  -0.478053  0  1.382992  0
Br  Br115  1  0.57731518  0.88982451  0.06161915  1  0  -0.553277  0  1.056604  0  0  -0.492727  0  1.367959  0  0  -0.513035  0  1.345854  0  0  -0.270489  -0.478049  0  1.382918  0
Br  Br116  1  0.93793856  0.38691852  0.55713816  1  0  -0.532949  0  1.039014  0  0  -0.471463  0  1.351822  0  0  -0.491358  0  1.328837  0  0  -0.265982  -0.456959  0  1.367147  0
Br  Br117  1  0.06206265  0.88692726  0.94286523  1  0  -0.532898  0  1.03902  0  0  -0.471412  0  1.351842  0  0  -0.491305  0  1.328849  0  0  -0.26594  -0.456898  0  1.367153  0
Br  Br118  1  0.06205079  0.61307383  0.44288348  1  0  -0.532879  0  1.0391  0  0  -0.471392  0  1.351906  0  0  -0.491291  0  1.328927  0  0  -0.265949  -0.456869  0  1.367202  0
Br  Br119  1  0.93793915  0.11307711  0.05713501  1  0  -0.53294  0  1.039026  0  0  -0.471465  0  1.351854  0  0  -0.491359  0  1.32886  0  0  -0.265954  -0.456948  0  1.367169  0
Br  Br120  1  0.79178622  0.67247492  0.99285512  1  0  -0.047182  0  1.349856  0  0  -0.032236  0  1.619738  0  0  -0.037662  0  1.614789  0  0  0.055198  -0.028491  0  1.623388  0
Br  Br121  1  0.20820277  0.17247666  0.50714952  1  0  -0.047184  0  1.349851  0  0  -0.032236  0  1.619708  0  0  -0.03765  0  1.614748  0  0  0.055196  -0.028483  0  1.623368  0
Br  Br122  1  0.20820743  0.32752380  0.00714733  1  0  -0.047184  0  1.349805  0  0  -0.032239  0  1.619656  0  0  -0.037657  0  1.614701  0  0  0.055205  -0.028487  0  1.623317  0
Br  Br123  1  0.79179496  0.82752842  0.49285182  1  0  -0.047129  0  1.349941  0  0  -0.032178  0  1.619783  0  0  -0.037597  0  1.614833  0  0  0.055231  -0.028426  0  1.623436  0
N  N124  1  0.38785879  0.39779494  0.66329103  1  0  -0.371256  0  3.284439  0  0  -0.300111  0  3.559092  0  0  -0.320988  0  3.579824  0  0  -0.363612  -0.285894  0  3.544593  0
N  N125  1  0.61213709  0.89779670  0.83670597  1  0  -0.371329  0  3.284536  0  0  -0.300216  0  3.559176  0  0  -0.321097  0  3.579915  0  0  -0.363699  -0.285995  0  3.544671  0
N  N126  1  0.61214032  0.60220378  0.33670849  1  0  -0.37132  0  3.284579  0  0  -0.300208  0  3.559239  0  0  -0.321087  0  3.579972  0  0  -0.363721  -0.285985  0  3.544737  0
N  N127  1  0.38785666  0.10220625  0.16328837  1  0  -0.371262  0  3.284354  0  0  -0.300122  0  3.559014  0  0  -0.320998  0  3.579739  0  0  -0.363623  -0.285906  0  3.54452  0
N  N128  1  0.58999304  0.35526405  0.76426533  1  0  -0.060172  0  3.561643  0  0  0.035061  0  3.777047  0  0  0.020136  0  3.803689  0  0  -0.245428  0.044959  0  3.758839  0
N  N129  1  0.41000549  0.85526747  0.73573596  1  0  -0.060309  0  3.561774  0  0  0.034912  0  3.777188  0  0  0.019987  0  3.803829  0  0  -0.245468  0.04481  0  3.758982  0
N  N130  1  0.41000465  0.64473467  0.23573913  1  0  -0.060391  0  3.561809  0  0  0.034847  0  3.777227  0  0  0.019922  0  3.803871  0  0  -0.245483  0.044744  0  3.75902  0
N  N131  1  0.58999499  0.14473761  0.26426236  1  0  -0.060311  0  3.56158  0  0  0.034933  0  3.777023  0  0  0.020008  0  3.803664  0  0  -0.245518  0.044827  0  3.758818  0
N  N132  1  0.81754754  0.41242067  0.32596834  1  0  -0.371664  0  3.259542  0  0  -0.299641  0  3.533817  0  0  -0.32044  0  3.553735  0  0  -0.360385  -0.285484  0  3.51988  0
N  N133  1  0.18246977  0.91241888  0.17402917  1  0  -0.371856  0  3.259441  0  0  -0.299787  0  3.533737  0  0  -0.320605  0  3.553666  0  0  -0.360458  -0.285638  0  3.519817  0
N  N134  1  0.18246510  0.58757946  0.67403166  1  0  -0.371846  0  3.259643  0  0  -0.299813  0  3.533937  0  0  -0.320612  0  3.553857  0  0  -0.360492  -0.285653  0  3.520006  0
N  N135  1  0.81754290  0.08757771  0.82596834  1  0  -0.371842  0  3.259494  0  0  -0.299823  0  3.533788  0  0  -0.320622  0  3.553705  0  0  -0.360471  -0.285664  0  3.519865  0
N  N136  1  0.76384161  0.35554397  0.19812197  1  0  -0.056851  0  3.587303  0  0  0.039085  0  3.802556  0  0  0.02476  0  3.828515  0  0  -0.246018  0.048544  0  3.784798  0
N  N137  1  0.23616620  0.85554350  0.30187748  1  0  -0.056931  0  3.58709  0  0  0.039015  0  3.802338  0  0  0.024691  0  3.828295  0  0  -0.246056  0.048478  0  3.784575  0
N  N138  1  0.23616154  0.64445546  0.80187894  1  0  -0.056981  0  3.587246  0  0  0.038949  0  3.802533  0  0  0.024624  0  3.828492  0  0  -0.246003  0.048412  0  3.78477  0
N  N139  1  0.76384105  0.14445380  0.69812108  1  0  -0.057053  0  3.587253  0  0  0.038871  0  3.802524  0  0  0.024548  0  3.828479  0  0  -0.246049  0.048337  0  3.784763  0
