# generated using pymatgen
data_CdH4C6(N3O2)2
_symmetry_space_group_name_H-M   'P 1'
_cell_length_a   10.02810609
_cell_length_b   13.79346966
_cell_length_c   13.78640467
_cell_angle_alpha   82.24154225
_cell_angle_beta   68.67264621
_cell_angle_gamma   68.21140521
_symmetry_Int_Tables_number   1
_chemical_formula_structural   CdH4C6(N3O2)2
_chemical_formula_sum   'Cd6 H24 C36 N36 O24'
_cell_volume   1649.47000879
_cell_formula_units_Z   6
loop_
 _symmetry_equiv_pos_site_id
 _symmetry_equiv_pos_as_xyz
  1  'x, y, z'
loop_
 _atom_site_type_symbol
 _atom_site_label
 _atom_site_symmetry_multiplicity
 _atom_site_fract_x
 _atom_site_fract_y
 _atom_site_fract_z
 _atom_site_occupancy
 _atom_site_hle17_bader_spin_density
 _atom_site_hle17_ddec_charge
 _atom_site_hle17_ddec_spin_density
 _atom_site_hle17_ddec_sum_bond_order
 _atom_site_hle17_magmom
 _atom_site_hse06_10hf_bader_spin_density
 _atom_site_hse06_10hf_ddec_charge
 _atom_site_hse06_10hf_ddec_spin_density
 _atom_site_hse06_10hf_ddec_sum_bond_order
 _atom_site_hse06_10hf_magmom
 _atom_site_hse06_bader_spin_density
 _atom_site_hse06_ddec_charge
 _atom_site_hse06_ddec_spin_density
 _atom_site_hse06_ddec_sum_bond_order
 _atom_site_hse06_magmom
 _atom_site_pbe_bader_charge
 _atom_site_pbe_bader_spin_density
 _atom_site_pbe_cm5_charge
 _atom_site_pbe_ddec_charge
 _atom_site_pbe_ddec_spin_density
 _atom_site_pbe_ddec_sum_bond_order
 _atom_site_pbe_magmom
Cd  Cd0  1  0.99974306  0.00030535  0.99935214  1  0  1.037733  0  1.841264  0  0  0.810378  0  2.30851  0  0  0.861941  0  2.26401  0  1.249167  0  0.805932  0.773966  0  2.338834  0
Cd  Cd1  1  0.74904928  0.50043005  0.50068290  1  0  1.037159  0  1.841168  0  0  0.809897  0  2.308206  0  0  0.861459  0  2.26372  0  1.248332  0  0.805565  0.773478  0  2.338529  0
Cd  Cd2  1  0.37547778  0.11203832  0.38700994  1  0  1.040535  0  1.830453  0  0  0.814447  0  2.294705  0  0  0.866777  0  2.250088  0  1.249026  0  0.804786  0.776077  0  2.32597  0
Cd  Cd3  1  0.87604283  0.88636223  0.61256568  1  0  1.042899  0  1.823907  0  0  0.817093  0  2.287026  0  0  0.869517  0  2.24233  0  1.247855  0  0.805216  0.778636  0  2.318377  0
Cd  Cd4  1  0.51256478  0.61192259  0.11298383  1  0  1.041341  0  1.829416  0  0  0.815754  0  2.293208  0  0  0.868074  0  2.24858  0  1.249434  0  0.805125  0.777373  0  2.324492  0
Cd  Cd5  1  0.23864890  0.38624782  0.88735879  1  0  1.04379  0  1.822884  0  0  0.818166  0  2.285802  0  0  0.870601  0  2.241109  0  1.24804  0  0.805516  0.779707  0  2.317144  0
H  H6  1  0.88525178  0.21082874  0.16198681  1  0  0.103928  0  0.96306  0  0  0.105563  0  1.037555  0  0  0.108523  0  1.03556  0  0.149023  0  0.113603  0.103421  0  1.03899  0
H  H7  1  0.25995610  0.78854085  0.83772274  1  0  0.103444  0  0.967331  0  0  0.104986  0  1.041802  0  0  0.108025  0  1.039714  0  0.141987  0  0.113758  0.102804  0  1.043289  0
H  H8  1  0.90240631  0.83824594  0.21091115  1  0  0.104397  0  0.965411  0  0  0.106073  0  1.039508  0  0  0.109038  0  1.03752  0  0.159651  0  0.113932  0.103887  0  1.040978  0
H  H9  1  0.95254735  0.16248796  0.78877816  1  0  0.104614  0  0.963875  0  0  0.106079  0  1.038612  0  0  0.109092  0  1.036572  0  0.133992  0  0.1143  0.103909  0  1.040046  0
H  H10  1  0.86320884  0.33826738  0.28908418  1  0  0.103256  0  0.964049  0  0  0.104966  0  1.038496  0  0  0.107875  0  1.036599  0  0.151116  0  0.113155  0.102847  0  1.039874  0
H  H11  1  0.49142307  0.66269832  0.71118914  1  0  0.105016  0  0.965045  0  0  0.106644  0  1.039341  0  0  0.109604  0  1.037322  0  0.152724  0  0.11437  0.104492  0  1.040745  0
H  H12  1  0.84777442  0.28862726  0.66228505  1  0  0.104144  0  0.965866  0  0  0.105452  0  1.040494  0  0  0.108475  0  1.038427  0  0.157534  0  0.113767  0.103248  0  1.041984  0
H  H13  1  0.79706644  0.71094737  0.33810897  1  0  0.104783  0  0.96302  0  0  0.106273  0  1.037563  0  0  0.10924  0  1.03555  0  0.133087  0  0.114427  0.104117  0  1.039013  0
H  H14  1  0.60621605  0.26868241  0.32536357  1  0  0.113178  0  0.94449  0  0  0.117789  0  1.011157  0  0  0.121126  0  1.008568  0  0.125329  0  0.119549  0.115315  0  1.013192  0
H  H15  1  0.20141544  0.73034609  0.67521266  1  0  0.111707  0  0.947225  0  0  0.115927  0  1.014752  0  0  0.119266  0  1.012141  0  0.130494  0  0.118883  0.113421  0  1.016867  0
H  H16  1  0.12482786  0.67513207  0.26918740  1  0  0.11209  0  0.943825  0  0  0.11706  0  1.010536  0  0  0.120414  0  1.007877  0  0.130047  0  0.119282  0.114533  0  1.012658  0
H  H17  1  0.06851128  0.32501005  0.73078379  1  0  0.112681  0  0.943851  0  0  0.117682  0  1.010276  0  0  0.121034  0  1.007655  0  0.128128  0  0.119573  0.115219  0  1.012306  0
H  H18  1  0.14397650  0.17520313  0.23080403  1  0  0.112713  0  0.945252  0  0  0.117423  0  1.012034  0  0  0.120795  0  1.009388  0  0.127544  0  0.119344  0.114948  0  1.014078  0
H  H19  1  0.54941875  0.82521332  0.76916794  1  0  0.112493  0  0.94519  0  0  0.117334  0  1.011777  0  0  0.12069  0  1.009129  0  0.130728  0  0.119151  0.114814  0  1.013896  0
H  H20  1  0.62680386  0.23031450  0.82473595  1  0  0.112383  0  0.946398  0  0  0.116594  0  1.013972  0  0  0.119985  0  1.011313  0  0.127064  0  0.118838  0.11404  0  1.016134  0
H  H21  1  0.68166109  0.76866224  0.17461385  1  0  0.112619  0  0.942834  0  0  0.117296  0  1.009595  0  0  0.120653  0  1.007001  0  0.129909  0  0.119485  0.114826  0  1.011621  0
H  H22  1  0.34817587  0.21256172  0.61848519  1  0  0.108879  0  0.966494  0  0  0.11291  0  1.036051  0  0  0.115364  0  1.034787  0  0.140794  0  0.117636  0.111091  0  1.037111  0
H  H23  1  0.18055391  0.78821859  0.38130612  1  0  0.110023  0  0.965211  0  0  0.113882  0  1.034922  0  0  0.116349  0  1.033655  0  0.143744  0  0.118158  0.112009  0  1.036022  0
H  H24  1  0.43840290  0.38128483  0.21220531  1  0  0.109673  0  0.965447  0  0  0.113209  0  1.035521  0  0  0.115643  0  1.034287  0  0.140078  0  0.117625  0.111414  0  1.036536  0
H  H25  1  0.03160605  0.61868550  0.78837870  1  0  0.111148  0  0.964721  0  0  0.114323  0  1.03517  0  0  0.116755  0  1.033917  0  0.145352  0  0.117801  0.112505  0  1.036241  0
H  H26  1  0.40063007  0.88140466  0.28778846  1  0  0.109596  0  0.965876  0  0  0.113367  0  1.035698  0  0  0.115815  0  1.034464  0  0.144879  0  0.11767  0.1115  0  1.036792  0
H  H27  1  0.57000356  0.11867701  0.71154733  1  0  0.110475  0  0.966482  0  0  0.114134  0  1.036205  0  0  0.116619  0  1.034897  0  0.146012  0  0.118434  0.112254  0  1.037316  0
H  H28  1  0.31188089  0.28808710  0.11861679  1  0  0.10898  0  0.964815  0  0  0.112917  0  1.034542  0  0  0.11536  0  1.0333  0  0.139878  0  0.117339  0.11112  0  1.035545  0
H  H29  1  0.71671110  0.71253488  0.88146731  1  0  0.109423  0  0.965798  0  0  0.112976  0  1.035911  0  0  0.115413  0  1.034661  0  0.135076  0  0.117528  0.111152  0  1.036971  0
C  C30  1  0.66975624  0.08387511  0.18074205  1  0  0.30739  0  3.803944  0  0  0.258976  0  4.080209  0  0  0.263062  0  4.103922  0  1.387114  0  0.280205  0.255891  0  4.06436  0
C  C31  1  0.93401088  0.91654810  0.81904148  1  0  0.307539  0  3.808193  0  0  0.260151  0  4.08317  0  0  0.26429  0  4.106758  0  1.373969  0  0.280111  0.257027  0  4.067455  0
C  C32  1  0.24621245  0.81907504  0.08373435  1  0  0.303966  0  3.807632  0  0  0.255361  0  4.084191  0  0  0.259467  0  4.107872  0  1.369008  0  0.279282  0.252265  0  4.0684  0
C  C33  1  0.14946524  0.18070932  0.91648134  1  0  0.30897  0  3.804828  0  0  0.261199  0  4.080224  0  0  0.265387  0  4.103804  0  1.353939  0  0.28221  0.258065  0  4.064436  0
C  C34  1  0.07982187  0.31923441  0.41622905  1  0  0.30679  0  3.806548  0  0  0.259009  0  4.081769  0  0  0.263148  0  4.105419  0  1.367517  0  0.280268  0.255894  0  4.065959  0
C  C35  1  0.81608531  0.68081639  0.58350698  1  0  0.307425  0  3.806987  0  0  0.259237  0  4.083092  0  0  0.263435  0  4.106636  0  1.371073  0  0.279264  0.256091  0  4.067382  0
C  C36  1  0.50312999  0.41660925  0.68102160  1  0  0.304174  0  3.809904  0  0  0.256601  0  4.085183  0  0  0.260722  0  4.108814  0  1.398381  0  0.278629  0.253479  0  4.069449  0
C  C37  1  0.60049592  0.58391063  0.31922525  1  0  0.307  0  3.805164  0  0  0.258427  0  4.081727  0  0  0.262546  0  4.105414  0  1.362255  0  0.280199  0.255332  0  4.065878  0
C  C38  1  0.79404945  0.17918802  0.18462064  1  0  0.054017  0  3.656092  0  0  0.009681  0  3.933543  0  0  0.011742  0  3.952847  0  0.386311  0  0.01398  0.008375  0  3.920354  0
C  C39  1  0.15918579  0.82047996  0.81502350  1  0  0.053597  0  3.662109  0  0  0.009288  0  3.939406  0  0  0.011234  0  3.958712  0  0.426387  0  0.013198  0.008067  0  3.926218  0
C  C40  1  0.02578610  0.81551789  0.17921195  1  0  0.051944  0  3.661171  0  0  0.007466  0  3.938565  0  0  0.009471  0  3.957866  0  0.412973  0  0.013277  0.006243  0  3.925388  0
C  C41  1  0.02107491  0.18496826  0.82063154  1  0  0.052971  0  3.660611  0  0  0.008983  0  3.937733  0  0  0.010954  0  3.95706  0  0.384267  0  0.01318  0.007749  0  3.924551  0
C  C42  1  0.95485181  0.31554691  0.32081687  1  0  0.054597  0  3.659965  0  0  0.010034  0  3.937718  0  0  0.012068  0  3.957027  0  0.378507  0  0.014942  0.008748  0  3.924549  0
C  C43  1  0.59181131  0.68517797  0.67934510  1  0  0.051071  0  3.662435  0  0  0.00703  0  3.93953  0  0  0.009064  0  3.958905  0  0.364044  0  0.01254  0.005803  0  3.926307  0
C  C44  1  0.72431208  0.32051744  0.68496093  1  0  0.051876  0  3.660981  0  0  0.007885  0  3.938386  0  0  0.009852  0  3.957662  0  0.414427  0  0.013556  0.00667  0  3.925192  0
C  C45  1  0.72851134  0.67929103  0.31547747  1  0  0.052782  0  3.658868  0  0  0.008643  0  3.93617  0  0  0.010722  0  3.955453  0  0.387106  0  0.01287  0.007342  0  3.923006  0
C  C46  1  0.65285427  0.20906957  0.26598470  1  0  0.044344  0  3.660033  0  0  0.002282  0  3.938364  0  0  0.003851  0  3.957729  0  0.452681  0  0.014179  0.001155  0  3.925196  0
C  C47  1  0.12880680  0.79034305  0.73433144  1  0  0.049254  0  3.6575  0  0  0.007577  0  3.935506  0  0  0.00916  0  3.954948  0  0.407685  0  0.015846  0.006423  0  3.922372  0
C  C48  1  0.13768828  0.73434080  0.20938416  1  0  0.048736  0  3.656783  0  0  0.006255  0  3.934936  0  0  0.007867  0  3.95429  0  0.41435  0  0.015747  0.005116  0  3.921799  0
C  C49  1  0.08120256  0.26572802  0.79059092  1  0  0.046535  0  3.657351  0  0  0.004306  0  3.935396  0  0  0.005846  0  3.954859  0  0.453666  0  0.014797  0.003188  0  3.922178  0
C  C50  1  0.09697138  0.23439388  0.29063531  1  0  0.046392  0  3.661315  0  0  0.004112  0  3.939471  0  0  0.005703  0  3.95885  0  0.454987  0  0.014988  0.002962  0  3.926295  0
C  C51  1  0.62193171  0.76592038  0.70936002  1  0  0.048022  0  3.659034  0  0  0.00598  0  3.936899  0  0  0.007517  0  3.956355  0  0.462512  0  0.016094  0.004871  0  3.92373  0
C  C52  1  0.61328224  0.29030132  0.76562417  1  0  0.048121  0  3.656741  0  0  0.006266  0  3.934669  0  0  0.007799  0  3.954144  0  0.413963  0  0.015654  0.005169  0  3.921477  0
C  C53  1  0.66879561  0.70911888  0.23405423  1  0  0.04717  0  3.654751  0  0  0.005119  0  3.932997  0  0  0.006644  0  3.952401  0  0.454264  0  0.015254  0.004006  0  3.919816  0
C  C54  1  0.61701906  0.00784095  0.50823686  1  0  0.309128  0  3.804425  0  0  0.251637  0  4.077765  0  0  0.255126  0  4.101243  0  1.387729  0  0.278597  0.248624  0  4.062078  0
C  C55  1  0.13325942  0.99167797  0.49216339  1  0  0.309297  0  3.801368  0  0  0.252121  0  4.075024  0  0  0.255656  0  4.098447  0  1.385309  0  0.277971  0.249065  0  4.05939  0
C  C56  1  0.37529930  0.49163545  0.00786620  1  0  0.305334  0  3.798711  0  0  0.24823  0  4.074168  0  0  0.251737  0  4.097631  0  1.337255  0  0.277148  0.245201  0  4.05848  0
C  C57  1  0.87537246  0.50793146  0.99180909  1  0  0.308999  0  3.804753  0  0  0.252103  0  4.077869  0  0  0.255573  0  4.101384  0  1.369336  0  0.278678  0.249077  0  4.062191  0
C  C58  1  0.44892266  0.14283203  0.59603201  1  0  0.072672  0  3.631506  0  0  0.028463  0  3.903491  0  0  0.03068  0  3.922615  0  0.453803  0  0.022935  0.026853  0  3.89048  0
C  C59  1  0.18888150  0.85742962  0.40387143  1  0  0.067554  0  3.633447  0  0  0.023577  0  3.905723  0  0  0.025779  0  3.924856  0  0.429493  0  0.019881  0.022037  0  3.892651  0
C  C60  1  0.40770361  0.40367806  0.14267560  1  0  0.068005  0  3.633884  0  0  0.024431  0  3.906283  0  0  0.026626  0  3.925448  0  0.465282  0  0.020537  0.022831  0  3.893237  0
C  C61  1  0.95391262  0.59620807  0.85761641  1  0  0.069221  0  3.629849  0  0  0.025738  0  3.902144  0  0  0.027998  0  3.921227  0  0.417136  0  0.021884  0.024113  0  3.88913  0
C  C62  1  0.30049472  0.90374906  0.35736723  1  0  0.070476  0  3.632466  0  0  0.026739  0  3.90469  0  0  0.028929  0  3.923857  0  0.447411  0  0.022375  0.025197  0  3.891661  0
C  C63  1  0.56147607  0.09621231  0.64233688  1  0  0.069224  0  3.631385  0  0  0.025571  0  3.903431  0  0  0.027789  0  3.922495  0  0.440978  0  0.021535  0.024019  0  3.890403  0
C  C64  1  0.34266037  0.35734388  0.09613558  1  0  0.069675  0  3.632276  0  0  0.025997  0  3.904031  0  0  0.028217  0  3.923195  0  0.410267  0  0.021885  0.024389  0  3.89097  0
C  C65  1  0.79502694  0.64285068  0.90394307  1  0  0.072217  0  3.629458  0  0  0.028633  0  3.901444  0  0  0.030855  0  3.920552  0  0.477275  0  0.023182  0.027044  0  3.8884  0
N  N66  1  0.80361603  0.09914294  0.13186521  1  0  -0.409283  0  3.233047  0  0  -0.331421  0  3.512059  0  0  -0.349454  0  3.530102  0  -1.22274  0  -0.352651  -0.318854  0  3.499599  0
N  N67  1  0.03517893  0.90121184  0.86739816  1  0  -0.408904  0  3.235345  0  0  -0.33154  0  3.513909  0  0  -0.349542  0  3.531935  0  -1.206047  0  -0.352496  -0.319033  0  3.501515  0
N  N68  1  0.09641843  0.86790957  0.09885238  1  0  -0.408143  0  3.236034  0  0  -0.330286  0  3.515012  0  0  -0.348309  0  3.5331  0  -1.199992  0  -0.353214  -0.317757  0  3.502553  0
N  N69  1  0.06409560  0.13238496  0.90119356  1  0  -0.409698  0  3.233092  0  0  -0.332039  0  3.51167  0  0  -0.350101  0  3.529653  0  -1.183789  0  -0.353196  -0.319477  0  3.499262  0
N  N70  1  0.94512852  0.36799805  0.40112426  1  0  -0.40904  0  3.238082  0  0  -0.331435  0  3.516763  0  0  -0.349455  0  3.53482  0  -1.200464  0  -0.353494  -0.318884  0  3.504297  0
N  N71  1  0.71538741  0.63252149  0.59881890  1  0  -0.408634  0  3.234509  0  0  -0.330825  0  3.512999  0  0  -0.348893  0  3.530985  0  -1.207554  0  -0.352174  -0.318287  0  3.500623  0
N  N72  1  0.65263537  0.40130271  0.63265402  1  0  -0.407841  0  3.235684  0  0  -0.330455  0  3.514205  0  0  -0.348454  0  3.532242  0  -1.224116  0  -0.3524  -0.31793  0  3.501791  0
N  N73  1  0.68536112  0.59921860  0.36818462  1  0  -0.409208  0  3.234547  0  0  -0.331325  0  3.513465  0  0  -0.349381  0  3.531502  0  -1.188127  0  -0.352915  -0.318766  0  3.501025  0
N  N74  1  0.57479715  0.14827446  0.26211545  1  0  -0.423105  0  3.243802  0  0  -0.348348  0  3.524456  0  0  -0.36677  0  3.543526  0  -1.204753  0  -0.355104  -0.335281  0  3.511095  0
N  N75  1  0.98495677  0.85159035  0.73830504  1  0  -0.428114  0  3.245806  0  0  -0.353374  0  3.526883  0  0  -0.371918  0  3.54579  0  -1.198319  0  -0.357515  -0.340202  0  3.513662  0
N  N76  1  0.27705487  0.73801581  0.14851257  1  0  -0.425117  0  3.24762  0  0  -0.350153  0  3.529239  0  0  -0.368655  0  3.548216  0  -1.209304  0  -0.35825  -0.33702  0  3.515953  0
N  N77  1  0.16331589  0.26162085  0.85169534  1  0  -0.427131  0  3.240714  0  0  -0.352668  0  3.521456  0  0  -0.371169  0  3.540492  0  -1.19173  0  -0.357025  -0.339554  0  3.508133  0
N  N78  1  0.17548460  0.23813609  0.35148120  1  0  -0.424206  0  3.24834  0  0  -0.349379  0  3.529556  0  0  -0.367902  0  3.548559  0  -1.202266  0  -0.356886  -0.336259  0  3.516257  0
N  N79  1  0.76518220  0.76174469  0.64826106  1  0  -0.427203  0  3.242221  0  0  -0.352501  0  3.523113  0  0  -0.371008  0  3.542111  0  -1.199335  0  -0.35602  -0.339357  0  3.509821  0
N  N80  1  0.47338011  0.35157366  0.76169341  1  0  -0.426151  0  3.246473  0  0  -0.351243  0  3.527482  0  0  -0.369799  0  3.546456  0  -1.206638  0  -0.357657  -0.338069  0  3.51421  0
N  N81  1  0.58696816  0.64829396  0.23784717  1  0  -0.42535  0  3.242147  0  0  -0.350742  0  3.523144  0  0  -0.369167  0  3.54221  0  -1.194331  0  -0.356358  -0.337682  0  3.509803  0
N  N82  1  0.48516881  0.08612771  0.51125968  1  0  -0.41357  0  3.229178  0  0  -0.336943  0  3.511347  0  0  -0.354587  0  3.529348  0  -1.206262  0  -0.350986  -0.323902  0  3.498722  0
N  N83  1  0.08340034  0.91385653  0.48910941  1  0  -0.412486  0  3.225881  0  0  -0.335683  0  3.507727  0  0  -0.353403  0  3.525752  0  -1.203672  0  -0.349127  -0.322532  0  3.495021  0
N  N84  1  0.42811722  0.48856384  0.08602678  1  0  -0.411911  0  3.222528  0  0  -0.335298  0  3.504198  0  0  -0.352932  0  3.522252  0  -1.182844  0  -0.349247  -0.322231  0  3.491514  0
N  N85  1  0.00357699  0.51089378  0.91402617  1  0  -0.414175  0  3.230266  0  0  -0.337494  0  3.512228  0  0  -0.355189  0  3.530201  0  -1.200219  0  -0.350724  -0.324384  0  3.499593  0
N  N86  1  0.26424270  0.98862742  0.41402383  1  0  -0.413464  0  3.224315  0  0  -0.337179  0  3.506377  0  0  -0.354824  0  3.524417  0  -1.203394  0  -0.349966  -0.324118  0  3.493701  0
N  N87  1  0.66749267  0.01085994  0.58597227  1  0  -0.41302  0  3.229338  0  0  -0.336461  0  3.511943  0  0  -0.354154  0  3.529897  0  -1.214992  0  -0.350783  -0.323341  0  3.499287  0
N  N88  1  0.32243848  0.41378697  0.01088047  1  0  -0.411977  0  3.224385  0  0  -0.335211  0  3.506609  0  0  -0.352936  0  3.524648  0  -1.17187  0  -0.349292  -0.322084  0  3.493932  0
N  N89  1  0.74653814  0.58617740  0.98875356  1  0  -0.413872  0  3.229397  0  0  -0.337394  0  3.511167  0  0  -0.355041  0  3.529161  0  -1.196099  0  -0.350832  -0.324318  0  3.498506  0
N  N90  1  0.63381486  0.00423022  0.15244022  1  0  0.456638  0  3.941804  0  0  0.487632  0  4.238662  0  0  0.509511  0  4.245474  0  0.292578  0  0.043968  0.473028  0  4.233985  0
N  N91  1  0.78910870  0.99665624  0.84757535  1  0  0.457266  0  3.939678  0  0  0.487756  0  4.236655  0  0  0.509619  0  4.243432  0  0.298794  0  0.043904  0.473129  0  4.232054  0
N  N92  1  0.36195472  0.84749963  0.00413867  1  0  0.461656  0  3.940433  0  0  0.492727  0  4.236924  0  0  0.5146  0  4.243716  0  0.272775  0  0.047991  0.478082  0  4.232331  0
N  N93  1  0.21398441  0.15235625  0.99636046  1  0  0.456176  0  3.942903  0  0  0.486788  0  4.240068  0  0  0.508663  0  4.246836  0  0.273108  0  0.043255  0.472187  0  4.235388  0
N  N94  1  0.11587799  0.34764342  0.49587223  1  0  0.458088  0  3.941613  0  0  0.488797  0  4.238523  0  0  0.510662  0  4.245324  0  0.281128  0  0.044503  0.474196  0  4.233856  0
N  N95  1  0.96048998  0.65235894  0.50362319  1  0  0.455728  0  3.940837  0  0  0.486417  0  4.238003  0  0  0.508288  0  4.244768  0  0.294458  0  0.042458  0.471784  0  4.233404  0
N  N96  1  0.38669710  0.49662172  0.65247293  1  0  0.461047  0  3.941835  0  0  0.491805  0  4.238334  0  0  0.51367  0  4.245131  0  0.273943  0  0.047085  0.47717  0  4.233756  0
N  N97  1  0.53635835  0.50421988  0.34745232  1  0  0.455683  0  3.941775  0  0  0.486685  0  4.238723  0  0  0.508541  0  4.245561  0  0.268828  0  0.043582  0.472096  0  4.234013  0
N  N98  1  0.69492019  0.93017079  0.43080123  1  0  0.421784  0  3.976377  0  0  0.489366  0  4.220127  0  0  0.511447  0  4.22717  0  0.210432  0  0.043239  0.474661  0  4.215109  0
N  N99  1  0.05546745  0.06921582  0.56978200  1  0  0.422768  0  3.975676  0  0  0.48972  0  4.220046  0  0  0.511793  0  4.227041  0  0.230691  0  0.043237  0.475035  0  4.215064  0
N  N100  1  0.37506690  0.56925487  0.93028808  1  0  0.429349  0  3.968141  0  0  0.493628  0  4.216414  0  0  0.515699  0  4.223378  0  0.22548  0  0.045377  0.478942  0  4.211448  0
N  N101  1  0.87578948  0.43026419  0.06924394  1  0  0.422862  0  3.973689  0  0  0.489273  0  4.217984  0  0  0.511359  0  4.225047  0  0.216897  0  0.043155  0.474576  0  4.212979  0
O  O102  1  0.73820415  0.93527796  0.08979247  1  0  -0.385738  0  1.762024  0  0  -0.360094  0  1.976229  0  0  -0.372552  0  1.970204  0  -0.491574  0  -0.143118  -0.351551  0  1.980406  0
O  O103  1  0.76243694  0.06579088  0.90943898  1  0  -0.387557  0  1.762011  0  0  -0.360879  0  1.976016  0  0  -0.373469  0  1.96995  0  -0.498762  0  -0.143501  -0.35225  0  1.980284  0
O  O104  1  0.32614774  0.90957359  0.93493990  1  0  -0.388148  0  1.764317  0  0  -0.36156  0  1.978773  0  0  -0.37416  0  1.972722  0  -0.492806  0  -0.143958  -0.352919  0  1.983031  0
O  O105  1  0.17202447  0.09035505  0.06542997  1  0  -0.385548  0  1.760239  0  0  -0.360088  0  1.974218  0  0  -0.372483  0  1.968215  0  -0.48935  0  -0.142953  -0.351618  0  1.97843  0
O  O106  1  0.01084953  0.40969956  0.56507412  1  0  -0.387305  0  1.764463  0  0  -0.361117  0  1.979474  0  0  -0.373729  0  1.973415  0  -0.486544  0  -0.143403  -0.352476  0  1.983681  0
O  O107  1  0.98750645  0.59032711  0.43460351  1  0  -0.384905  0  1.760196  0  0  -0.359489  0  1.974251  0  0  -0.371881  0  1.968246  0  -0.494014  0  -0.142733  -0.350975  0  1.978428  0
O  O108  1  0.42172253  0.56582865  0.59065369  1  0  -0.387702  0  1.762117  0  0  -0.361701  0  1.976715  0  0  -0.37427  0  1.970621  0  -0.497126  0  -0.143897  -0.353057  0  1.980949  0
O  O109  1  0.57817267  0.43527112  0.41007438  1  0  -0.384993  0  1.762283  0  0  -0.35906  0  1.976064  0  0  -0.371501  0  1.97006  0  -0.491854  0  -0.14294  -0.350554  0  1.980265  0
O  O110  1  0.49940022  0.00547146  0.19290266  1  0  -0.377848  0  1.767855  0  0  -0.348916  0  1.980314  0  0  -0.360263  0  1.972542  0  -0.495224  0  -0.138309  -0.341058  0  1.985681  0
O  O111  1  0.69519084  0.99557445  0.80823888  1  0  -0.376602  0  1.762243  0  0  -0.348357  0  1.973922  0  0  -0.359509  0  1.966229  0  -0.497051  0  -0.137805  -0.340604  0  1.979274  0
O  O112  1  0.49539971  0.80782630  0.00576922  1  0  -0.378198  0  1.76534  0  0  -0.350159  0  1.977417  0  0  -0.361274  0  1.96966  0  -0.478991  0  -0.139649  -0.34243  0  1.982824  0
O  O113  1  0.30831038  0.19217399  0.99506552  1  0  -0.377882  0  1.766824  0  0  -0.349017  0  1.979492  0  0  -0.360388  0  1.971666  0  -0.483763  0  -0.138617  -0.341141  0  1.984882  0
O  O114  1  0.25092718  0.30796522  0.49428918  1  0  -0.377303  0  1.765939  0  0  -0.348816  0  1.977731  0  0  -0.359958  0  1.970034  0  -0.491846  0  -0.138251  -0.341089  0  1.983043  0
O  O115  1  0.05362711  0.69210471  0.50484649  1  0  -0.377067  0  1.764669  0  0  -0.348168  0  1.977083  0  0  -0.359526  0  1.969262  0  -0.49537  0  -0.137303  -0.340282  0  1.982519  0
O  O116  1  0.25353202  0.49535548  0.69175411  1  0  -0.378489  0  1.762786  0  0  -0.350158  0  1.974387  0  0  -0.361296  0  1.966659  0  -0.479621  0  -0.139238  -0.342423  0  1.979793  0
O  O117  1  0.44246032  0.50541296  0.30695017  1  0  -0.377185  0  1.767733  0  0  -0.348221  0  1.980385  0  0  -0.359578  0  1.972612  0  -0.482751  0  -0.137533  -0.340358  0  1.985737  0
O  O118  1  0.81982805  0.86243695  0.43143507  1  0  -0.393061  0  1.809456  0  0  -0.374774  0  2.017969  0  0  -0.389294  0  2.015271  0  -0.48721  0  -0.148282  -0.364546  0  2.019983  0
O  O119  1  0.11290126  0.13646947  0.56878374  1  0  -0.397109  0  1.803947  0  0  -0.378203  0  2.011539  0  0  -0.392643  0  2.008795  0  -0.498955  0  -0.150923  -0.367983  0  2.013442  0
O  O120  1  0.31858542  0.56851317  0.86273699  1  0  -0.396527  0  1.803781  0  0  -0.377398  0  2.013206  0  0  -0.391763  0  2.010423  0  -0.498076  0  -0.149603  -0.367244  0  2.015197  0
O  O121  1  0.75044709  0.43139402  0.13639556  1  0  -0.39657  0  1.808614  0  0  -0.3771  0  2.01724  0  0  -0.391653  0  2.014329  0  -0.504611  0  -0.150264  -0.366763  0  2.019187  0
O  O122  1  0.93140591  0.06844682  0.63728014  1  0  -0.393998  0  1.8061  0  0  -0.375693  0  2.014241  0  0  -0.390152  0  2.011628  0  -0.507377  0  -0.148317  -0.365528  0  2.016204  0
O  O123  1  0.63673933  0.93128931  0.36365038  1  0  -0.397143  0  1.809538  0  0  -0.377947  0  2.017412  0  0  -0.392543  0  2.014657  0  -0.499856  0  -0.15021  -0.367631  0  2.019382  0
O  O124  1  0.43133552  0.63657900  0.93139380  1  0  -0.398882  0  1.801998  0  0  -0.379282  0  2.01104  0  0  -0.393745  0  2.008278  0  -0.497602  0  -0.151419  -0.369103  0  2.013098  0
O  O125  1  0.00130842  0.36251047  0.06861087  1  0  -0.393265  0  1.807949  0  0  -0.3747  0  2.016992  0  0  -0.389217  0  2.014305  0  -0.488607  0  -0.14784  -0.364484  0  2.018969  0
