# generated using pymatgen
data_Ag2H2C7O6
_symmetry_space_group_name_H-M   'P 1'
_cell_length_a   3.94066703
_cell_length_b   8.51926065
_cell_length_c   11.69583637
_cell_angle_alpha   89.02969840
_cell_angle_beta   85.63293035
_cell_angle_gamma   76.49916234
_symmetry_Int_Tables_number   1
_chemical_formula_structural   Ag2H2C7O6
_chemical_formula_sum   'Ag4 H4 C14 O12'
_cell_volume   380.68873676
_cell_formula_units_Z   2
loop_
 _symmetry_equiv_pos_site_id
 _symmetry_equiv_pos_as_xyz
  1  'x, y, z'
loop_
 _atom_site_type_symbol
 _atom_site_label
 _atom_site_symmetry_multiplicity
 _atom_site_fract_x
 _atom_site_fract_y
 _atom_site_fract_z
 _atom_site_occupancy
 _atom_site_hle17_bader_spin_density
 _atom_site_hle17_ddec_charge
 _atom_site_hle17_ddec_spin_density
 _atom_site_hle17_ddec_sum_bond_order
 _atom_site_hle17_magmom
 _atom_site_hse06_10hf_bader_spin_density
 _atom_site_hse06_10hf_ddec_charge
 _atom_site_hse06_10hf_ddec_spin_density
 _atom_site_hse06_10hf_ddec_sum_bond_order
 _atom_site_hse06_10hf_magmom
 _atom_site_hse06_bader_spin_density
 _atom_site_hse06_ddec_charge
 _atom_site_hse06_ddec_spin_density
 _atom_site_hse06_ddec_sum_bond_order
 _atom_site_hse06_magmom
 _atom_site_pbe_bader_spin_density
 _atom_site_pbe_cm5_charge
 _atom_site_pbe_ddec_charge
 _atom_site_pbe_ddec_spin_density
 _atom_site_pbe_ddec_sum_bond_order
 _atom_site_pbe_magmom
Ag  Ag0  1  0.07670558  0.40442669  0.39436722  1  0  0.671402  0  1.259876  0  0  0.559342  0  1.70148  0  0  0.593252  0  1.641715  0  0  0.436813  0.535651  0  1.743376  0
Ag  Ag1  1  0.51714978  0.40555678  0.10598713  1  0  0.672573  0  1.260763  0  0  0.560748  0  1.702888  0  0  0.594514  0  1.643145  0  0  0.437494  0.537186  0  1.744744  0
Ag  Ag2  1  0.92330101  0.59557332  0.60563148  1  0  0.671422  0  1.25987  0  0  0.55936  0  1.701471  0  0  0.593271  0  1.641704  0  0  0.436837  0.53567  0  1.743375  0
Ag  Ag3  1  0.48285418  0.59444324  0.89401333  1  0  0.672586  0  1.260738  0  0  0.560776  0  1.702843  0  0  0.594544  0  1.643102  0  0  0.437502  0.537215  0  1.744706  0
H  H4  1  0.24417686  0.05536000  0.40668215  1  0  0.166379  0  0.955861  0  0  0.172268  0  1.018788  0  0  0.17753  0  1.015603  0  0  0.117619  0.168507  0  1.021244  0
H  H5  1  0.70246664  0.05573535  0.09228207  1  0  0.166543  0  0.956583  0  0  0.172041  0  1.019948  0  0  0.177422  0  1.016648  0  0  0.117388  0.168202  0  1.022461  0
H  H6  1  0.75583804  0.94463881  0.59331468  1  0  0.166415  0  0.955807  0  0  0.172296  0  1.018741  0  0  0.177557  0  1.015555  0  0  0.117641  0.168534  0  1.021195  0
H  H7  1  0.29754205  0.94427069  0.90771567  1  0  0.166433  0  0.956747  0  0  0.171998  0  1.02003  0  0  0.177377  0  1.016733  0  0  0.117374  0.168165  0  1.02254  0
C  C8  1  0.95676329  0.08888958  0.24942813  1  0  0.472046  0  3.802308  0  0  0.459534  0  4.054375  0  0  0.486524  0  4.057596  0  0  0.1271  0.441595  0  4.051472  0
C  C9  1  0.04323619  0.91110923  0.75057244  1  0  0.472181  0  3.802097  0  0  0.459586  0  4.054311  0  0  0.486561  0  4.057555  0  0  0.12714  0.441651  0  4.051409  0
C  C10  1  0.15087101  0.99595822  0.33769774  1  0  -0.254586  0  3.612211  0  0  -0.283436  0  3.861188  0  0  -0.295461  0  3.87712  0  0  -0.092521  -0.275835  0  3.850895  0
C  C11  1  0.85422101  0.99605604  0.16141582  1  0  -0.253294  0  3.608812  0  0  -0.282589  0  3.857389  0  0  -0.29471  0  3.873142  0  0  -0.092147  -0.274904  0  3.847227  0
C  C12  1  0.84912723  0.00404301  0.66230368  1  0  -0.254653  0  3.612309  0  0  -0.283445  0  3.861263  0  0  -0.295467  0  3.877197  0  0  -0.092511  -0.275841  0  3.850965  0
C  C13  1  0.14578352  0.00394276  0.83858550  1  0  -0.253262  0  3.608662  0  0  -0.282578  0  3.85731  0  0  -0.294707  0  3.873055  0  0  -0.092149  -0.274912  0  3.847141  0
C  C14  1  0.23130813  0.83199453  0.33309012  1  0  0.188092  0  3.6555  0  0  0.178093  0  3.916028  0  0  0.186866  0  3.9284  0  0  0.103131  0.172004  0  3.908062  0
C  C15  1  0.93523376  0.83206663  0.16649767  1  0  0.186019  0  3.656509  0  0  0.177672  0  3.914669  0  0  0.18656  0  3.926853  0  0  0.102632  0.171458  0  3.906872  0
C  C16  1  0.76868941  0.16800307  0.66691050  1  0  0.188124  0  3.655557  0  0  0.178141  0  3.916047  0  0  0.186921  0  3.928407  0  0  0.103155  0.17205  0  3.908087  0
C  C17  1  0.06476018  0.16793821  0.83350209  1  0  0.186046  0  3.656392  0  0  0.177643  0  3.91465  0  0  0.186571  0  3.926788  0  0  0.102606  0.171472  0  3.906803  0
C  C18  1  0.46579338  0.71745780  0.40896792  1  0  0.581555  0  3.979765  0  0  0.522886  0  4.280935  0  0  0.558116  0  4.273159  0  0  0.19265  0.498735  0  4.285492  0
C  C19  1  0.81416091  0.71762506  0.09096840  1  0  0.584673  0  3.977767  0  0  0.526213  0  4.277451  0  0  0.561464  0  4.269532  0  0  0.194202  0.502056  0  4.282122  0
C  C20  1  0.53420615  0.28254101  0.59103180  1  0  0.581673  0  3.979732  0  0  0.523003  0  4.280891  0  0  0.558231  0  4.273115  0  0  0.192724  0.498853  0  4.285449  0
C  C21  1  0.18583987  0.28237617  0.90903297  1  0  0.584494  0  3.977867  0  0  0.526047  0  4.277566  0  0  0.561284  0  4.269646  0  0  0.194107  0.501873  0  4.282242  0
O  O22  1  0.12336967  0.75070648  0.24992428  1  0  -0.185329  0  2.562707  0  0  -0.110405  0  2.781363  0  0  -0.130172  0  2.790551  0  0  -0.093752  -0.097226  0  2.775275  0
O  O23  1  0.87662149  0.24929354  0.75007816  1  0  -0.185365  0  2.562684  0  0  -0.110433  0  2.781355  0  0  -0.130211  0  2.790529  0  0  -0.093748  -0.097266  0  2.775263  0
O  O24  1  0.57135385  0.77817710  0.49363585  1  0  -0.590501  0  2.07647  0  0  -0.521221  0  2.34147  0  0  -0.552127  0  2.332322  0  0  -0.306659  -0.499505  0  2.347059  0
O  O25  1  0.64511127  0.77832675  0.00684597  1  0  -0.591001  0  2.078673  0  0  -0.522016  0  2.34312  0  0  -0.552912  0  2.334083  0  0  -0.306136  -0.500316  0  2.348629  0
O  O26  1  0.42864559  0.22181688  0.50636306  1  0  -0.590565  0  2.07633  0  0  -0.521309  0  2.34136  0  0  -0.552215  0  2.332215  0  0  -0.306721  -0.499589  0  2.346948  0
O  O27  1  0.35489391  0.22167085  0.99315449  1  0  -0.59096  0  2.078624  0  0  -0.521952  0  2.343046  0  0  -0.552846  0  2.334017  0  0  -0.306096  -0.500246  0  2.348558  0
O  O28  1  0.54556242  0.57062550  0.37691623  1  0  -0.629901  0  2.226107  0  0  -0.560853  0  2.530586  0  0  -0.590969  0  2.513557  0  0  -0.32094  -0.539717  0  2.541742  0
O  O29  1  0.88328084  0.57077176  0.12277769  1  0  -0.631656  0  2.228336  0  0  -0.563124  0  2.533935  0  0  -0.593284  0  2.516863  0  0  -0.322361  -0.541945  0  2.545079  0
O  O30  1  0.45443786  0.42937210  0.62308006  1  0  -0.629946  0  2.226229  0  0  -0.560901  0  2.530718  0  0  -0.591014  0  2.513686  0  0  -0.320959  -0.539771  0  2.541887  0
O  O31  1  0.11671462  0.42922947  0.87722892  1  0  -0.631558  0  2.228324  0  0  -0.563004  0  2.533866  0  0  -0.59318  0  2.516838  0  0  -0.322315  -0.541826  0  2.545022  0
O  O32  1  0.88097166  0.24250095  0.24924777  1  0  -0.553022  0  2.053357  0  0  -0.485177  0  2.327127  0  0  -0.512634  0  2.312783  0  0  -0.294533  -0.465975  0  2.336554  0
O  O33  1  0.11903417  0.75750028  0.75075435  1  0  -0.553057  0  2.053302  0  0  -0.485206  0  2.327145  0  0  -0.512656  0  2.312805  0  0  -0.294563  -0.466003  0  2.336574  0
