# generated using pymatgen
data_LiZnH3(C3O2)3
_symmetry_space_group_name_H-M   'P 1'
_cell_length_a   11.28743815
_cell_length_b   16.45371927
_cell_length_c   16.45371708
_cell_angle_alpha   90.00002872
_cell_angle_beta   89.99997208
_cell_angle_gamma   90.00002949
_symmetry_Int_Tables_number   1
_chemical_formula_structural   LiZnH3(C3O2)3
_chemical_formula_sum   'Li8 Zn8 H24 C72 O48'
_cell_volume   3055.78990666
_cell_formula_units_Z   8
loop_
 _symmetry_equiv_pos_site_id
 _symmetry_equiv_pos_as_xyz
  1  'x, y, z'
loop_
 _atom_site_type_symbol
 _atom_site_label
 _atom_site_symmetry_multiplicity
 _atom_site_fract_x
 _atom_site_fract_y
 _atom_site_fract_z
 _atom_site_occupancy
 _atom_site_pbe_bader_charge
 _atom_site_pbe_bader_spin_density
 _atom_site_pbe_cm5_charge
 _atom_site_pbe_ddec_charge
 _atom_site_pbe_ddec_spin_density
 _atom_site_pbe_ddec_sum_bond_order
 _atom_site_pbe_magmom
Li  Li0  1  0.37863588  0.09773854  0.32530335  1  0.870144  0  0.521953  0.826049  0  0.494145  0
Li  Li1  1  0.87863526  0.90226198  0.67469686  1  0.870144  0  0.521969  0.826051  0  0.49414  0
Li  Li2  1  0.12863755  0.17469441  0.59773669  1  0.870142  0  0.521954  0.826031  0  0.494182  0
Li  Li3  1  0.62863794  0.82530541  0.40226300  1  0.870141  0  0.521963  0.826032  0  0.494175  0
Li  Li4  1  0.37136225  0.40226312  0.82530534  1  0.870142  0  0.521963  0.826036  0  0.494167  0
Li  Li5  1  0.87136263  0.59773678  0.17469488  1  0.870142  0  0.52195  0.826031  0  0.494173  0
Li  Li6  1  0.62136429  0.32530348  0.09773899  1  0.870143  0  0.521951  0.826038  0  0.494169  0
Li  Li7  1  0.12136405  0.67469633  0.90226132  1  0.870144  0  0.521963  0.826052  0  0.494143  0
Zn  Zn8  1  0.15806679  0.17450840  0.41680188  1  1.325044  0  0.733266  0.955256  0  2.254818  0
Zn  Zn9  1  0.65806705  0.82549204  0.58319841  1  1.325039  0  0.733255  0.955234  0  2.254807  0
Zn  Zn10  1  0.90806944  0.08319732  0.67450825  1  1.325076  0  0.733266  0.955261  0  2.254764  0
Zn  Zn11  1  0.40806980  0.91680199  0.32549135  1  1.325069  0  0.733277  0.955278  0  2.254758  0
Zn  Zn12  1  0.59193128  0.32549148  0.91680255  1  1.325093  0  0.733292  0.955289  0  2.25473  0
Zn  Zn13  1  0.09193074  0.67450832  0.08319777  1  1.325066  0  0.733279  0.955272  0  2.254734  0
Zn  Zn14  1  0.84193339  0.41680200  0.17450886  1  1.325061  0  0.733273  0.955245  0  2.254811  0
Zn  Zn15  1  0.34193314  0.58319789  0.82549137  1  1.325067  0  0.733267  0.955236  0  2.254799  0
H  H16  1  0.91395226  0.25430689  0.37120661  1  0.165253  0  0.114194  0.125004  0  0.998756  0
H  H17  1  0.41395227  0.74569303  0.62879360  1  0.165254  0  0.114201  0.124997  0  0.998779  0
H  H18  1  0.66394672  0.12879672  0.75430425  1  0.165409  0  0.114165  0.125016  0  0.998845  0
H  H19  1  0.16394710  0.87120372  0.24569543  1  0.165422  0  0.114208  0.125078  0  0.998798  0
H  H20  1  0.83605309  0.24569558  0.87120367  1  0.165426  0  0.114175  0.12503  0  0.998791  0
H  H21  1  0.33605346  0.75430432  0.12879595  1  0.165431  0  0.114169  0.125011  0  0.998799  0
H  H22  1  0.08604969  0.37120673  0.25430553  1  0.165261  0  0.114202  0.125013  0  0.998756  0
H  H23  1  0.58604792  0.62879369  0.74569296  1  0.165253  0  0.114201  0.12499  0  0.998777  0
H  H24  1  0.62829665  0.13898698  0.24252203  1  0.117819  0  0.123797  0.121669  0  0.995678  0
H  H25  1  0.12829666  0.86101284  0.75747827  1  0.117771  0  0.123795  0.121654  0  0.995694  0
H  H26  1  0.37829297  0.25747940  0.63898388  1  0.117746  0  0.123801  0.12168  0  0.995723  0
H  H27  1  0.87829333  0.74252051  0.36101634  1  0.117761  0  0.123811  0.121698  0  0.995704  0
H  H28  1  0.12170685  0.36101585  0.74252043  1  0.11775  0  0.123797  0.121702  0  0.995672  0
H  H29  1  0.62170632  0.63898397  0.25747926  1  0.117758  0  0.123789  0.121671  0  0.995701  0
H  H30  1  0.37170352  0.24252156  0.13898744  1  0.117771  0  0.123794  0.121663  0  0.995674  0
H  H31  1  0.87170354  0.75747835  0.86101278  1  0.117755  0  0.123793  0.121677  0  0.995663  0
H  H32  1  0.77027827  0.02747732  0.45844948  1  0.10668  0  0.114756  0.119998  0  1.001994  0
H  H33  1  0.27027762  0.97252194  0.54155017  1  0.106682  0  0.114766  0.120009  0  1.001977  0
H  H34  1  0.52027909  0.04155071  0.52747709  1  0.106653  0  0.114776  0.120029  0  1.002043  0
H  H35  1  0.02027937  0.95844968  0.47252264  1  0.106646  0  0.114774  0.120012  0  1.002049  0
H  H36  1  0.97972082  0.47252276  0.95844903  1  0.106659  0  0.114776  0.120028  0  1.002048  0
H  H37  1  0.47972020  0.52747719  0.04155054  1  0.106646  0  0.114763  0.119998  0  1.002072  0
H  H38  1  0.22972279  0.45844959  0.02747776  1  0.106669  0  0.114773  0.120004  0  1.002053  0
H  H39  1  0.72972257  0.54155027  0.97252251  1  0.106674  0  0.114753  0.119991  0  1.001996  0
C  C40  1  0.92198765  0.14446975  0.49895583  1  1.557318  0  0.244378  0.642626  0  4.126308  0
C  C41  1  0.42198784  0.85553078  0.50104377  1  1.557364  0  0.244375  0.642638  0  4.126277  0
C  C42  1  0.67199016  0.00104564  0.64447068  1  1.557284  0  0.244351  0.642568  0  4.126315  0
C  C43  1  0.17199145  0.99895420  0.35553022  1  1.557246  0  0.244357  0.64265  0  4.126209  0
C  C44  1  0.82800963  0.35553096  0.99895477  1  1.557292  0  0.244323  0.642585  0  4.126431  0
C  C45  1  0.32800824  0.64446954  0.00104546  1  1.557207  0  0.244373  0.642673  0  4.126259  0
C  C46  1  0.07801252  0.49895654  0.14447020  1  1.55733  0  0.244393  0.642608  0  4.126381  0
C  C47  1  0.57801147  0.50104326  0.85553012  1  1.557345  0  0.244343  0.642604  0  4.126448  0
C  C48  1  0.76778540  0.27088606  0.24030613  1  1.56211  0  0.227216  0.619682  0  4.180411  0
C  C49  1  0.26778442  0.72911381  0.75969413  1  1.562122  0  0.227187  0.61963  0  4.180489  0
C  C50  1  0.51778073  0.25969658  0.77088172  1  1.561799  0  0.227179  0.619589  0  4.180643  0
C  C51  1  0.01778102  0.74030381  0.22911802  1  1.561757  0  0.227226  0.619693  0  4.180503  0
C  C52  1  0.98221916  0.22911816  0.74030374  1  1.561772  0  0.227194  0.619631  0  4.180608  0
C  C53  1  0.48221945  0.77088178  0.25969584  1  1.561773  0  0.227202  0.61964  0  4.180585  0
C  C54  1  0.23221478  0.24030626  0.27088592  1  1.562125  0  0.22718  0.619641  0  4.180505  0
C  C55  1  0.73221489  0.75969420  0.72911374  1  1.562123  0  0.227195  0.619609  0  4.18052  0
C  C56  1  0.61023755  0.00390448  0.34337277  1  1.56221  0  0.235806  0.633151  0  4.157543  0
C  C57  1  0.11023773  0.99609534  0.65662693  1  1.562215  0  0.235749  0.633064  0  4.157627  0
C  C58  1  0.36023663  0.15662192  0.50390192  1  1.562531  0  0.235755  0.633174  0  4.157563  0
C  C59  1  0.86023697  0.84337737  0.49609830  1  1.562316  0  0.235783  0.633186  0  4.157603  0
C  C60  1  0.13976322  0.49609780  0.84337792  1  1.562634  0  0.235726  0.633109  0  4.157593  0
C  C61  1  0.63976266  0.50390142  0.15662177  1  1.562534  0  0.235707  0.633079  0  4.157643  0
C  C62  1  0.38976262  0.34337289  0.00390431  1  1.562242  0  0.235795  0.633109  0  4.157609  0
C  C63  1  0.88976246  0.65662702  0.99609530  1  1.562234  0  0.235758  0.633081  0  4.157669  0
C  C64  1  0.84955849  0.14144852  0.42333098  1  -0.012115  0  -0.015859  -0.052116  0  3.995886  0
C  C65  1  0.34955862  0.85855138  0.57666924  1  -0.012651  0  -0.015845  -0.052076  0  3.995836  0
C  C66  1  0.59955835  0.07666743  0.64144647  1  -0.012048  0  -0.015784  -0.051974  0  3.99547  0
C  C67  1  0.09955780  0.92333238  0.35855385  1  -0.011968  0  -0.015809  -0.05203  0  3.995498  0
C  C68  1  0.90044151  0.35855337  0.92333294  1  -0.012061  0  -0.015794  -0.051995  0  3.995524  0
C  C69  1  0.40044183  0.64144655  0.07666727  1  -0.011957  0  -0.015805  -0.05206  0  3.995512  0
C  C70  1  0.15044169  0.42333231  0.14144775  1  -0.012081  0  -0.015838  -0.052126  0  3.995769  0
C  C71  1  0.65044157  0.57666873  0.85855132  1  -0.012104  0  -0.01588  -0.052165  0  3.995881  0
C  C72  1  0.85235013  0.20366179  0.36543284  1  -0.048459  0  -0.061799  -0.08456  0  3.886564  0
C  C73  1  0.35235018  0.79633811  0.63456739  1  -0.04849  0  -0.061811  -0.08458  0  3.886629  0
C  C74  1  0.60234374  0.13456803  0.70366221  1  -0.048775  0  -0.061844  -0.084715  0  3.886586  0
C  C75  1  0.10234408  0.86543299  0.29633749  1  -0.048804  0  -0.061887  -0.084747  0  3.886457  0
C  C76  1  0.89765611  0.29633763  0.86543294  1  -0.048799  0  -0.061861  -0.084737  0  3.886443  0
C  C77  1  0.39765644  0.70366229  0.13456727  1  -0.048807  0  -0.061857  -0.084693  0  3.886445  0
C  C78  1  0.14765270  0.36543417  0.20366286  1  -0.048709  0  -0.061872  -0.084622  0  3.886484  0
C  C79  1  0.64765002  0.63456687  0.79633804  1  -0.04846  0  -0.061798  -0.084525  0  3.886575  0
C  C80  1  0.77189877  0.20255259  0.30051135  1  -0.046858  0  -0.009467  -0.032112  0  3.950179  0
C  C81  1  0.27189877  0.79744728  0.69948830  1  -0.046832  0  -0.009462  -0.032097  0  3.950175  0
C  C82  1  0.52189327  0.19948830  0.70254881  1  -0.046339  0  -0.009397  -0.031998  0  3.950376  0
C  C83  1  0.02189444  0.80051149  0.29745153  1  -0.04633  0  -0.009359  -0.032027  0  3.950296  0
C  C84  1  0.97810485  0.29745105  0.80051082  1  -0.046331  0  -0.009371  -0.031984  0  3.950247  0
C  C85  1  0.47810514  0.70254889  0.19948876  1  -0.046335  0  -0.009409  -0.032076  0  3.95027  0
C  C86  1  0.22810140  0.30051209  0.20255244  1  -0.046604  0  -0.009406  -0.032066  0  3.950193  0
C  C87  1  0.72810142  0.69948838  0.79744722  1  -0.046852  0  -0.009458  -0.032077  0  3.950173  0
C  C88  1  0.69124537  0.13835493  0.29271250  1  0.030166  0  -0.052716  -0.083757  0  3.892601  0
C  C89  1  0.19124453  0.86164491  0.70728778  1  0.030205  0  -0.052722  -0.083744  0  3.892572  0
C  C90  1  0.44124258  0.20728833  0.63835300  1  0.030142  0  -0.052757  -0.083869  0  3.892832  0
C  C91  1  0.94124386  0.79271221  0.36164720  1  0.030162  0  -0.052769  -0.083873  0  3.892863  0
C  C92  1  0.05875632  0.36164732  0.79271154  1  0.030165  0  -0.052761  -0.083891  0  3.892804  0
C  C93  1  0.55875672  0.63835248  0.20728818  1  0.030164  0  -0.052726  -0.083795  0  3.892754  0
C  C94  1  0.30875480  0.29271202  0.13835478  1  0.0302  0  -0.052726  -0.083728  0  3.892583  0
C  C95  1  0.80875478  0.70728725  0.86164486  1  0.030247  0  -0.052708  -0.083772  0  3.8926  0
C  C96  1  0.69292242  0.07423631  0.34851264  1  -0.069246  0  -0.007985  -0.0395  0  3.984136  0
C  C97  1  0.19292255  0.92576353  0.65148703  1  -0.069252  0  -0.007968  -0.039462  0  3.984238  0
C  C98  1  0.44292144  0.15148755  0.57423434  1  -0.069364  0  -0.007906  -0.039323  0  3.984132  0
C  C99  1  0.94292183  0.84851299  0.42576585  1  -0.069354  0  -0.007902  -0.039309  0  3.984123  0
C  C100  1  0.05707835  0.42576597  0.84851232  1  -0.069365  0  -0.007907  -0.039315  0  3.984149  0
C  C101  1  0.55707785  0.57423383  0.15148740  1  -0.069354  0  -0.007901  -0.039331  0  3.98415  0
C  C102  1  0.30707776  0.34851277  0.07423676  1  -0.069247  0  -0.007971  -0.039507  0  3.984148  0
C  C103  1  0.80707765  0.65148712  0.92576348  1  -0.06926  0  -0.007941  -0.039429  0  3.984225  0
C  C104  1  0.77141673  0.07633678  0.41391487  1  0.015994  0  -0.059857  -0.07482  0  3.902652  0
C  C105  1  0.27141602  0.92366309  0.58608538  1  0.016542  0  -0.05986  -0.074845  0  3.902653  0
C  C106  1  0.52141487  0.08608533  0.57633414  1  0.015985  0  -0.059906  -0.074934  0  3.90269  0
C  C107  1  0.02141515  0.91391567  0.42366619  1  0.015953  0  -0.059908  -0.074927  0  3.9027  0
C  C108  1  0.97858504  0.42366571  0.91391501  1  0.015973  0  -0.059901  -0.074927  0  3.902699  0
C  C109  1  0.47858442  0.57633363  0.08608456  1  0.01596  0  -0.059909  -0.074891  0  3.902732  0
C  C110  1  0.22858433  0.41391499  0.07633601  1  0.01598  0  -0.059898  -0.074836  0  3.902699  0
C  C111  1  0.72858329  0.58608487  0.92366304  1  0.015996  0  -0.059874  -0.07484  0  3.902669  0
O  O112  1  0.02173910  0.18139255  0.50027909  1  -1.207289  0  -0.35966  -0.627007  0  2.342669  0
O  O113  1  0.52174031  0.81860845  0.49972124  1  -1.207284  0  -0.359671  -0.627011  0  2.34266  0
O  O114  1  0.77173769  0.99972078  0.68139083  1  -1.207322  0  -0.359664  -0.626999  0  2.342897  0
O  O115  1  0.27173825  0.00027848  0.31861064  1  -1.207311  0  -0.359672  -0.627062  0  2.342914  0
O  O116  1  0.72826192  0.31861137  0.00027892  1  -1.207286  0  -0.359653  -0.627023  0  2.342935  0
O  O117  1  0.22826162  0.68138909  0.99972135  1  -1.207315  0  -0.359651  -0.627029  0  2.342971  0
O  O118  1  0.97826019  0.50027860  0.18139302  1  -1.207303  0  -0.359694  -0.627034  0  2.342689  0
O  O119  1  0.47825988  0.49972135  0.81860717  1  -1.207312  0  -0.359634  -0.626978  0  2.342794  0
O  O120  1  0.87553952  0.10958768  0.56013046  1  -1.173605  0  -0.298668  -0.558982  0  2.389274  0
O  O121  1  0.37553978  0.89041162  0.43986976  1  -1.17364  0  -0.298669  -0.559006  0  2.389296  0
O  O122  1  0.62553712  0.93986922  0.60958822  1  -1.173574  0  -0.298636  -0.558935  0  2.389054  0
O  O123  1  0.12553678  0.06013060  0.39041208  1  -1.173612  0  -0.298627  -0.558941  0  2.388986  0
O  O124  1  0.87446516  0.39041281  0.06013044  1  -1.173603  0  -0.29863  -0.558944  0  2.389125  0
O  O125  1  0.37446308  0.60958770  0.93986917  1  -1.173579  0  -0.298646  -0.558972  0  2.389016  0
O  O126  1  0.12445977  0.56013055  0.10958812  1  -1.17361  0  -0.298658  -0.558924  0  2.389277  0
O  O127  1  0.62446041  0.43986927  0.89041218  1  -1.173612  0  -0.298678  -0.559001  0  2.389312  0
O  O128  1  0.84540444  0.32810354  0.25107026  1  -1.149504  0  -0.321382  -0.564015  0  2.301537  0
O  O129  1  0.34540431  0.67189636  0.74892936  1  -1.149496  0  -0.321372  -0.563989  0  2.301519  0
O  O130  1  0.59540063  0.24893491  0.82809977  1  -1.149278  0  -0.321389  -0.564041  0  2.301661  0
O  O131  1  0.09540096  0.75106490  0.17189993  1  -1.149273  0  -0.321401  -0.564083  0  2.301652  0
O  O132  1  0.90459922  0.17190008  0.75106483  1  -1.14933  0  -0.321398  -0.564062  0  2.301654  0
O  O133  1  0.40459867  0.82809983  0.24893477  1  -1.149337  0  -0.321389  -0.564035  0  2.301626  0
O  O134  1  0.15459484  0.25107040  0.32810401  1  -1.149567  0  -0.321391  -0.564045  0  2.301568  0
O  O135  1  0.65459499  0.74892943  0.67189628  1  -1.14957  0  -0.32139  -0.563998  0  2.301554  0
O  O136  1  0.69164059  0.26969117  0.18483174  1  -1.201069  0  -0.391139  -0.650439  0  2.160592  0
O  O137  1  0.19164046  0.73030868  0.81516854  1  -1.201087  0  -0.391122  -0.650418  0  2.160627  0
O  O138  1  0.44163150  0.31517217  0.76968566  1  -1.201163  0  -0.391129  -0.650398  0  2.160612  0
O  O139  1  0.94163103  0.68482776  0.23031454  1  -1.201143  0  -0.391151  -0.650425  0  2.160546  0
O  O140  1  0.05836827  0.23031407  0.68482767  1  -1.201176  0  -0.391133  -0.650415  0  2.160589  0
O  O141  1  0.55836868  0.76968573  0.31517204  1  -1.201147  0  -0.391129  -0.650399  0  2.160572  0
O  O142  1  0.30835958  0.18483128  0.26969103  1  -1.201091  0  -0.391119  -0.65041  0  2.160618  0
O  O143  1  0.80835974  0.81516860  0.73030921  1  -1.201102  0  -0.391131  -0.650426  0  2.16064  0
O  O144  1  0.50982772  0.01508490  0.30613074  1  -1.189593  0  -0.361746  -0.629863  0  2.281216  0
O  O145  1  0.00982698  0.98491488  0.69386899  1  -1.189598  0  -0.361718  -0.629806  0  2.281178  0
O  O146  1  0.25982235  0.19386698  0.51508605  1  -1.189817  0  -0.361773  -0.629925  0  2.281057  0
O  O147  1  0.75982179  0.80613289  0.48491421  1  -1.18958  0  -0.361777  -0.629931  0  2.281077  0
O  O148  1  0.24017751  0.48491432  0.80613282  1  -1.189819  0  -0.361771  -0.629899  0  2.281074  0
O  O149  1  0.74017782  0.51508554  0.19386684  1  -1.189802  0  -0.361755  -0.629878  0  2.281076  0
O  O150  1  0.49017245  0.30613088  0.01508534  1  -1.189622  0  -0.361722  -0.629794  0  2.281199  0
O  O151  1  0.99017234  0.69386907  0.98491484  1  -1.189617  0  -0.361727  -0.629832  0  2.281237  0
O  O152  1  0.63762409  0.93792371  0.37643118  1  -1.214992  0  -0.375097  -0.646238  0  2.208773  0
O  O153  1  0.13762448  0.06207551  0.62356851  1  -1.214986  0  -0.375098  -0.646243  0  2.208782  0
O  O154  1  0.38762283  0.12356920  0.43792654  1  -1.215018  0  -0.375052  -0.646242  0  2.208968  0
O  O155  1  0.88762138  0.87643071  0.56207306  1  -1.215038  0  -0.375097  -0.646265  0  2.209041  0
O  O156  1  0.11237704  0.56207377  0.87643005  1  -1.215149  0  -0.375033  -0.646204  0  2.208946  0
O  O157  1  0.61237734  0.43792605  0.12356965  1  -1.215063  0  -0.37503  -0.646194  0  2.208988  0
O  O158  1  0.36237610  0.37643130  0.93792427  1  -1.215017  0  -0.375096  -0.646242  0  2.208817  0
O  O159  1  0.86237570  0.62356860  0.06207595  1  -1.214986  0  -0.375103  -0.646252  0  2.208766  0
