# generated using pymatgen
data_ZnH12C15N5O6
_symmetry_space_group_name_H-M   'P 1'
_cell_length_a   11.38638148
_cell_length_b   11.84101410
_cell_length_c   17.99699736
_cell_angle_alpha   81.21338702
_cell_angle_beta   71.55737596
_cell_angle_gamma   61.19223227
_symmetry_Int_Tables_number   1
_chemical_formula_structural   ZnH12C15N5O6
_chemical_formula_sum   'Zn4 H48 C60 N20 O24'
_cell_volume   2016.97380118
_cell_formula_units_Z   4
loop_
 _symmetry_equiv_pos_site_id
 _symmetry_equiv_pos_as_xyz
  1  'x, y, z'
loop_
 _atom_site_type_symbol
 _atom_site_label
 _atom_site_symmetry_multiplicity
 _atom_site_fract_x
 _atom_site_fract_y
 _atom_site_fract_z
 _atom_site_occupancy
 _atom_site_pbe_bader_charge
 _atom_site_pbe_bader_spin_density
 _atom_site_pbe_cm5_charge
 _atom_site_pbe_ddec_charge
 _atom_site_pbe_ddec_spin_density
 _atom_site_pbe_ddec_sum_bond_order
 _atom_site_pbe_magmom
Zn  Zn0  1  0.22445762  0.03362201  0.67045020  1  1.272913  0  0.681293  0.68267  0  2.379448  0
Zn  Zn1  1  0.92898554  0.96644374  0.32951099  1  1.270734  0  0.681417  0.682498  0  2.378301  0
Zn  Zn2  1  0.14509828  0.53361928  0.82946997  1  1.270284  0  0.681703  0.682682  0  2.380433  0
Zn  Zn3  1  0.50838264  0.46641956  0.17053994  1  1.272362  0  0.681451  0.68265  0  2.379441  0
H  H4  1  0.36009214  0.05300324  0.78879704  1  0.135128  0  0.116527  0.085567  0  1.038837  0
H  H5  1  0.20242419  0.94675708  0.21128421  1  0.125533  0  0.116444  0.085704  0  1.039521  0
H  H6  1  0.39931065  0.55302981  0.71105043  1  0.123038  0  0.116456  0.085578  0  1.038974  0
H  H7  1  0.66382167  0.44669057  0.28887713  1  0.140954  0  0.116535  0.085545  0  1.038759  0
H  H8  1  0.57483559  0.05636484  0.78927428  1  0.088401  0  0.117345  0.130048  0  0.976798  0
H  H9  1  0.42112888  0.94319211  0.21083037  1  0.100847  0  0.117175  0.129748  0  0.978029  0
H  H10  1  0.61424495  0.55682052  0.71077281  1  0.096715  0  0.117011  0.12955  0  0.978007  0
H  H11  1  0.88233433  0.44284682  0.28915494  1  0.090132  0  0.116993  0.129828  0  0.976607  0
H  H12  1  0.70685631  0.02386341  0.53664422  1  0.160481  0  0.108785  0.129388  0  1.04646  0
H  H13  1  0.26772170  0.97626377  0.46341212  1  0.157349  0  0.108677  0.129149  0  1.047152  0
H  H14  1  0.49366653  0.52340371  0.96335939  1  0.15733  0  0.108713  0.129175  0  1.046368  0
H  H15  1  0.98084574  0.47636505  0.03658487  1  0.159437  0  0.108579  0.129119  0  1.046745  0
H  H16  1  0.48492643  0.01766588  0.54735360  1  0.140809  0  0.115543  0.089991  0  1.026414  0
H  H17  1  0.05030514  0.98232653  0.45272854  1  0.127211  0  0.115451  0.089887  0  1.026138  0
H  H18  1  0.28253384  0.51722237  0.95247030  1  0.118462  0  0.115613  0.089697  0  1.026658  0
H  H19  1  0.75272556  0.48236438  0.04743807  1  0.14434  0  0.115362  0.089682  0  1.027098  0
H  H20  1  0.04313293  0.90679576  0.75644420  1  0.15199  0  0.114186  0.086416  0  1.056533  0
H  H21  1  0.70622485  0.09354615  0.24366769  1  0.123224  0  0.113655  0.085785  0  1.057228  0
H  H22  1  0.04955690  0.40684846  0.74361158  1  0.126931  0  0.113746  0.085889  0  1.056905  0
H  H23  1  0.19998291  0.59347244  0.25621990  1  0.151441  0  0.113913  0.086287  0  1.056991  0
H  H24  1  0.82421605  0.90834291  0.76172854  1  0.078301  0  0.111718  0.120088  0  1.003414  0
H  H25  1  0.49413246  0.09190661  0.23839249  1  0.068214  0  0.111839  0.120624  0  1.002099  0
H  H26  1  0.83585914  0.40857809  0.73828124  1  0.083148  0  0.111834  0.120569  0  1.002487  0
H  H27  1  0.98263384  0.59172530  0.26161633  1  0.120576  0  0.111844  0.120379  0  1.00293  0
H  H28  1  0.79956290  0.16298515  0.56028868  1  0.127229  0  0.108914  0.122785  0  1.03533  0
H  H29  1  0.52357326  0.83697609  0.43966347  1  0.111247  0  0.108892  0.122388  0  1.034789  0
H  H30  1  0.60996753  0.66285486  0.93974984  1  0.125714  0  0.109052  0.122754  0  1.034793  0
H  H31  1  0.21309141  0.33714022  0.06029868  1  0.121801  0  0.108906  0.122688  0  1.034576  0
H  H32  1  0.02205071  0.15235940  0.56446620  1  0.082487  0  0.120999  0.093469  0  0.991114  0
H  H33  1  0.73960931  0.84760250  0.43550000  1  0.104312  0  0.12085  0.093478  0  0.99203  0
H  H34  1  0.83667207  0.65223811  0.93557567  1  0.117322  0  0.120798  0.093572  0  0.991939  0
H  H35  1  0.42503136  0.34777180  0.06439730  1  0.115768  0  0.120687  0.093393  0  0.992229  0
H  H36  1  0.32641867  0.82689823  0.79421032  1  0.122268  0  0.115395  0.08865  0  1.01521  0
H  H37  1  0.94816402  0.17286325  0.20565437  1  0.113436  0  0.115379  0.088664  0  1.015837  0
H  H38  1  0.37039220  0.32735165  0.70587703  1  0.130223  0  0.115427  0.088893  0  1.01552  0
H  H39  1  0.40348531  0.67256919  0.29431727  1  0.125576  0  0.115585  0.088634  0  1.016067  0
H  H40  1  0.26855750  0.81217746  0.94069131  1  0.112821  0  0.107828  0.117864  0  1.023213  0
H  H41  1  0.02162949  0.18764227  0.05918498  1  0.094872  0  0.107966  0.117891  0  1.024493  0
H  H42  1  0.45838833  0.31222300  0.55941370  1  0.096595  0  0.108142  0.118355  0  1.023214  0
H  H43  1  0.33002048  0.68744922  0.44076693  1  0.118046  0  0.108059  0.118394  0  1.023194  0
H  H44  1  0.92109190  0.19361289  0.94937522  1  0.14092  0  0.111206  0.123966  0  1.011142  0
H  H45  1  0.06380822  0.80669824  0.05058688  1  0.125543  0  0.11098  0.123912  0  1.011527  0
H  H46  1  0.11960702  0.69364353  0.55053192  1  0.113625  0  0.111381  0.124495  0  1.013317  0
H  H47  1  0.36344474  0.30650899  0.44947262  1  0.125686  0  0.11136  0.124595  0  1.01189  0
H  H48  1  0.99949914  0.19587463  0.80299813  1  0.124684  0  0.117251  0.088778  0  1.012871  0
H  H49  1  0.99862346  0.80433109  0.19694109  1  0.125209  0  0.117322  0.088959  0  1.012896  0
H  H50  1  0.05209790  0.69615434  0.69691538  1  0.124726  0  0.117328  0.08916  0  1.012515  0
H  H51  1  0.44519619  0.30405612  0.30309997  1  0.114075  0  0.117224  0.088833  0  1.012693  0
C  C52  1  0.44050918  0.04267998  0.73417624  1  0.457353  0  0.047076  0.103295  0  3.950436  0
C  C53  1  0.21785991  0.95712047  0.26589878  1  0.471031  0  0.047073  0.102655  0  3.952178  0
C  C54  1  0.42497451  0.54276211  0.76571245  1  0.476001  0  0.047401  0.103176  0  3.95146  0
C  C55  1  0.73383828  0.45700814  0.23421990  1  0.460909  0  0.047086  0.103543  0  3.949522  0
C  C56  1  0.56117941  0.04538021  0.73400270  1  -0.020873  0  -0.079717  -0.175641  0  3.937364  0
C  C57  1  0.34108690  0.95436162  0.26607781  1  -0.032369  0  -0.079319  -0.174614  0  3.939324  0
C  C58  1  0.54533603  0.54562509  0.76599177  1  -0.043173  0  -0.07921  -0.174438  0  3.938393  0
C  C59  1  0.85737330  0.45409714  0.23394236  1  -0.029896  0  -0.079295  -0.175387  0  3.935936  0
C  C60  1  0.66110495  0.03766947  0.66265176  1  -0.02097  0  0.016735  0.112758  0  3.970664  0
C  C61  1  0.36182750  0.96231561  0.33741508  1  -0.015121  0  0.017058  0.112891  0  3.969671  0
C  C62  1  0.57384095  0.53772271  0.83738523  1  0.003034  0  0.016815  0.112675  0  3.9702  0
C  C63  1  0.94928087  0.46219090  0.16256686  1  -0.021484  0  0.016514  0.112869  0  3.969766  0
C  C64  1  0.63301101  0.02912341  0.59373630  1  -0.01225  0  -0.080062  -0.1678  0  3.904002  0
C  C65  1  0.25624814  0.97091229  0.40633534  1  -0.04231  0  -0.079907  -0.167175  0  3.903437  0
C  C66  1  0.47689155  0.52888529  0.90625239  1  -0.04103  0  -0.080239  -0.167674  0  3.903978  0
C  C67  1  0.91241223  0.47091332  0.09369150  1  -0.011033  0  -0.079621  -0.167454  0  3.903942  0
C  C68  1  0.51039351  0.02542489  0.59918244  1  0.425361  0  0.044664  0.09503  0  3.935235  0
C  C69  1  0.13538440  0.97455064  0.40089277  1  0.465662  0  0.044869  0.094819  0  3.933487  0
C  C70  1  0.35981980  0.52514864  0.90069490  1  0.468801  0  0.044531  0.095098  0  3.935333  0
C  C71  1  0.78606552  0.47455315  0.09923867  1  0.426144  0  0.044997  0.095333  0  3.935991  0
C  C72  1  0.98637389  0.96380663  0.71430791  1  0.509722  0  0.045115  0.0956  0  3.947168  0
C  C73  1  0.66449379  0.03651979  0.28581180  1  0.493156  0  0.045265  0.096363  0  3.948538  0
C  C74  1  0.95071684  0.46376915  0.78578056  1  0.482321  0  0.045275  0.096088  0  3.948958  0
C  C75  1  0.20035251  0.53647455  0.21410524  1  0.507818  0  0.045275  0.095295  0  3.948524  0
C  C76  1  0.86269881  0.96484909  0.71678334  1  0.018536  0  -0.078058  -0.165343  0  3.926658  0
C  C77  1  0.54436979  0.03543086  0.28332420  1  0.038199  0  -0.077861  -0.166052  0  3.927915  0
C  C78  1  0.82950197  0.46490564  0.78327343  1  0.018965  0  -0.078227  -0.166428  0  3.927769  0
C  C79  1  0.07774296  0.53533494  0.21664371  1  -0.047357  0  -0.078003  -0.165287  0  3.925206  0
C  C80  1  0.79214023  0.03639221  0.66109146  1  -0.062765  0  0.016655  0.11005  0  3.964587  0
C  C81  1  0.48995699  0.96373508  0.33896938  1  -0.035199  0  0.016316  0.109034  0  3.966607  0
C  C82  1  0.70331261  0.53637702  0.83899469  1  -0.027279  0  0.016646  0.109993  0  3.966766  0
C  C83  1  0.07892071  0.46372530  0.16099038  1  -0.050275  0  0.016804  0.110062  0  3.963693  0
C  C84  1  0.85040755  0.10517390  0.60477005  1  -0.003805  0  -0.077903  -0.160456  0  3.905263  0
C  C85  1  0.56092197  0.89489420  0.39523980  1  -0.002547  0  -0.077793  -0.159136  0  3.904452  0
C  C86  1  0.70532578  0.60502527  0.89532013  1  -0.047494  0  -0.078244  -0.160347  0  3.906018  0
C  C87  1  0.20610063  0.39502942  0.10467990  1  0.012513  0  -0.078226  -0.160609  0  3.904167  0
C  C88  1  0.97384601  0.09997981  0.60707997  1  0.449195  0  0.04591  0.096853  0  3.931201  0
C  C89  1  0.68147160  0.90011343  0.39293307  1  0.455589  0  0.045945  0.095758  0  3.931729  0
C  C90  1  0.83108251  0.59982293  0.89300962  1  0.454161  0  0.046332  0.096432  0  3.933265  0
C  C91  1  0.32435131  0.40024630  0.10695544  1  0.420149  0  0.046341  0.096817  0  3.930596  0
C  C92  1  0.23870678  0.90615142  0.83114325  1  0.45369  0  0.045852  0.090366  0  3.939045  0
C  C93  1  0.97634822  0.09375188  0.16874707  1  0.484401  0  0.046132  0.090246  0  3.939676  0
C  C94  1  0.31939135  0.40646267  0.66890338  1  0.444534  0  0.046196  0.09024  0  3.939518  0
C  C95  1  0.39469721  0.59345762  0.33123990  1  0.452613  0  0.045621  0.090272  0  3.94107  0
C  C96  1  0.20481404  0.89794340  0.91225938  1  0.002836  0  -0.074234  -0.154204  0  3.904272  0
C  C97  1  0.01518677  0.10197132  0.08761933  1  -0.003426  0  -0.07439  -0.154252  0  3.906282  0
C  C98  1  0.36627282  0.39803816  0.58779414  1  0.028351  0  -0.075245  -0.155649  0  3.906718  0
C  C99  1  0.35208160  0.60175981  0.41235271  1  -0.004782  0  -0.074625  -0.155745  0  3.906337  0
C  C100  1  0.09043523  0.00270251  0.95683617  1  -0.053711  0  0.029145  0.128337  0  3.933333  0
C  C101  1  0.04998619  0.99736259  0.04305006  1  0.072789  0  0.029269  0.129419  0  3.933198  0
C  C102  1  0.29631282  0.50267962  0.54317174  1  -0.058471  0  0.029385  0.129046  0  3.935098  0
C  C103  1  0.34210671  0.49719673  0.45695859  1  0.069834  0  0.029579  0.130306  0  3.93308  0
C  C104  1  0.01448960  0.11210626  0.91725879  1  -0.019807  0  -0.068173  -0.138529  0  3.888549  0
C  C105  1  0.04377825  0.88808394  0.08268141  1  0.083648  0  -0.067463  -0.138847  0  3.889735  0
C  C106  1  0.18092437  0.61219804  0.58269620  1  0.127496  0  -0.068057  -0.13968  0  3.892965  0
C  C107  1  0.37562849  0.38787265  0.41737738  1  -0.0066  0  -0.068328  -0.140017  0  3.889945  0
C  C108  1  0.05570171  0.11274424  0.83602691  1  0.47975  0  0.052664  0.103263  0  3.91375  0
C  C109  1  0.00461761  0.88741376  0.16390566  1  0.347916  0  0.051529  0.102382  0  3.915026  0
C  C110  1  0.14115978  0.61295325  0.66392466  1  0.374552  0  0.052001  0.102512  0  3.914529  0
C  C111  1  0.41803197  0.38714748  0.33614001  1  0.456031  0  0.051677  0.102335  0  3.913239  0
N  N112  1  0.41545632  0.03120972  0.66819169  1  -1.233518  0  -0.322918  -0.229446  0  3.527406  0
N  N113  1  0.11527909  0.96871055  0.33187950  1  -1.236658  0  -0.322882  -0.228858  0  3.526003  0
N  N114  1  0.33395071  0.53110347  0.83164148  1  -1.239485  0  -0.323111  -0.229411  0  3.526803  0
N  N115  1  0.69706251  0.46867879  0.16828847  1  -1.234835  0  -0.323032  -0.229815  0  3.527539  0
N  N116  1  0.04116120  0.03071445  0.66086231  1  -1.242298  0  -0.32376  -0.231517  0  3.536732  0
N  N117  1  0.73301368  0.96950593  0.33919634  1  -1.248269  0  -0.323808  -0.231053  0  3.537447  0
N  N118  1  0.95211925  0.53057553  0.83924376  1  -1.224727  0  -0.323697  -0.230993  0  3.537463  0
N  N119  1  0.32217345  0.46957053  0.16069446  1  -1.249393  0  -0.323977  -0.231484  0  3.537575  0
N  N120  1  0.16603357  0.01208081  0.79324961  1  -1.265567  0  -0.328833  -0.234958  0  3.567958  0
N  N121  1  0.97170066  0.98794727  0.20666807  1  -1.251194  0  -0.328742  -0.234325  0  3.567137  0
N  N122  1  0.20895005  0.51241207  0.70672974  1  -1.283566  0  -0.328989  -0.233655  0  3.568253  0
N  N123  1  0.42815587  0.48760103  0.29335463  1  -1.256008  0  -0.328243  -0.233455  0  3.565995  0
N  N124  1  0.36722275  0.79780501  0.59414655  1  0.802566  0  0.097318  0.71202  0  4.40454  0
N  N125  1  0.75941445  0.20204444  0.40589635  1  0.785763  0  0.096942  0.713084  0  4.405698  0
N  N126  1  0.21170317  0.29790449  0.90590821  1  0.803146  0  0.096861  0.71234  0  4.406133  0
N  N127  1  0.41512336  0.70216462  0.09414712  1  0.791274  0  0.09707  0.711561  0  4.405371  0
N  N128  1  0.14336156  0.27898051  0.59518677  1  0.806385  0  0.095251  0.702586  0  4.430925  0
N  N129  1  0.01754444  0.72104871  0.40479640  1  0.801349  0  0.094666  0.702246  0  4.429929  0
N  N130  1  0.98861597  0.77888566  0.90478882  1  0.809025  0  0.094979  0.702777  0  4.431248  0
N  N131  1  0.67234356  0.22124148  0.09509676  1  0.804617  0  0.094138  0.701515  0  4.430895  0
O  O132  1  0.33690584  0.91551735  0.56953160  1  -0.607604  0  -0.202947  -0.463431  0  2.144382  0
O  O133  1  0.82203651  0.08433940  0.43060489  1  -0.594074  0  -0.202965  -0.464088  0  2.144231  0
O  O134  1  0.15658887  0.41563963  0.93047101  1  -0.608365  0  -0.202691  -0.463584  0  2.145362  0
O  O135  1  0.50249479  0.58446872  0.06950886  1  -0.596056  0  -0.202819  -0.463377  0  2.144527  0
O  O136  1  0.32954868  0.78065108  0.66713397  1  -0.536708  0  -0.18271  -0.448228  0  1.987624  0
O  O137  1  0.77796785  0.21909843  0.33286922  1  -0.534716  0  -0.182387  -0.448666  0  1.988019  0
O  O138  1  0.24739673  0.28068957  0.83291137  1  -0.534624  0  -0.182606  -0.448672  0  1.988114  0
O  O139  1  0.36038473  0.71921785  0.16714942  1  -0.538186  0  -0.182662  -0.448021  0  1.987582  0
O  O140  1  0.43070538  0.70868529  0.54555894  1  -0.479857  0  -0.177951  -0.411297  0  1.897371  0
O  O141  1  0.68496078  0.29127654  0.45440753  1  -0.478756  0  -0.177776  -0.411382  0  1.898341  0
O  O142  1  0.22640119  0.20881898  0.95455424  1  -0.482418  0  -0.177769  -0.411218  0  1.898822  0
O  O143  1  0.38937918  0.79140197  0.04558301  1  -0.478445  0  -0.177732  -0.411176  0  1.899278  0
O  O144  1  0.11693083  0.23413442  0.66673158  1  -0.628739  0  -0.222753  -0.482111  0  2.118964  0
O  O145  1  0.01837041  0.76595429  0.33321178  1  -0.624002  0  -0.222539  -0.481932  0  2.118601  0
O  O146  1  0.03385932  0.73397041  0.83326095  1  -0.626337  0  -0.222678  -0.482048  0  2.119292  0
O  O147  1  0.60156304  0.26604583  0.16668660  1  -0.625072  0  -0.222207  -0.48153  0  2.119586  0
O  O148  1  0.23277165  0.19902678  0.54148509  1  -0.536494  0  -0.194626  -0.452115  0  1.930853  0
O  O149  1  0.97337831  0.80085347  0.45854100  1  -0.535584  0  -0.194884  -0.452221  0  1.931322  0
O  O150  1  0.02391360  0.69898267  0.95860407  1  -0.539019  0  -0.195184  -0.452489  0  1.932023  0
O  O151  1  0.68140815  0.30117775  0.04130354  1  -0.537701  0  -0.195138  -0.452346  0  1.930009  0
O  O152  1  0.07956172  0.39641745  0.58419322  1  -0.466269  0  -0.16845  -0.394786  0  1.923011  0
O  O153  1  0.05960024  0.60369949  0.41578739  1  -0.465237  0  -0.168151  -0.394791  0  1.921787  0
O  O154  1  0.91406930  0.89637176  0.91562478  1  -0.467722  0  -0.168033  -0.394773  0  1.921882  0
O  O155  1  0.72587751  0.10383593  0.08416895  1  -0.466125  0  -0.167856  -0.39409  0  1.921941  0
