# generated using pymatgen
data_NdH20C18N7O12
_symmetry_space_group_name_H-M   'P 1'
_cell_length_a   11.08815727
_cell_length_b   10.86490984
_cell_length_c   14.05146890
_cell_angle_alpha   82.37498137
_cell_angle_beta   67.28302713
_cell_angle_gamma   64.59157226
_symmetry_Int_Tables_number   1
_chemical_formula_structural   NdH20C18N7O12
_chemical_formula_sum   'Nd2 H40 C36 N14 O24'
_cell_volume   1409.33836357
_cell_formula_units_Z   2
loop_
 _symmetry_equiv_pos_site_id
 _symmetry_equiv_pos_as_xyz
  1  'x, y, z'
loop_
 _atom_site_type_symbol
 _atom_site_label
 _atom_site_symmetry_multiplicity
 _atom_site_fract_x
 _atom_site_fract_y
 _atom_site_fract_z
 _atom_site_occupancy
 _atom_site_hle17_bader_spin_density
 _atom_site_hle17_ddec_charge
 _atom_site_hle17_ddec_spin_density
 _atom_site_hle17_ddec_sum_bond_order
 _atom_site_hle17_magmom
 _atom_site_hse06_10hf_bader_spin_density
 _atom_site_hse06_10hf_ddec_charge
 _atom_site_hse06_10hf_ddec_spin_density
 _atom_site_hse06_10hf_ddec_sum_bond_order
 _atom_site_hse06_10hf_magmom
 _atom_site_hse06_bader_spin_density
 _atom_site_hse06_ddec_charge
 _atom_site_hse06_ddec_spin_density
 _atom_site_hse06_ddec_sum_bond_order
 _atom_site_hse06_magmom
 _atom_site_pbe_bader_spin_density
 _atom_site_pbe_cm5_charge
 _atom_site_pbe_ddec_charge
 _atom_site_pbe_ddec_spin_density
 _atom_site_pbe_ddec_sum_bond_order
 _atom_site_pbe_magmom
Nd  Nd0  1  0.28077406  0.38745062  0.36687993  1  0  2.26748  0  1.686528  0  0  2.103469  0  2.168162  0  0  2.202041  0  2.017623  0  0  1.508147  2.06746  0  2.20557  0
Nd  Nd1  1  0.71922581  0.61255038  0.63312156  1  0  2.267408  0  1.686568  0  0  2.103385  0  2.168217  0  0  2.20196  0  2.017672  0  0  1.508103  2.067358  0  2.205653  0
H  H2  1  0.81639787  0.14951750  0.18787428  1  0  0.1158  0  0.970316  0  0  0.119157  0  1.044115  0  0  0.123983  0  1.039312  0  0  0.107777  0.115628  0  1.047671  0
H  H3  1  0.18360568  0.85047531  0.81212829  1  0  0.115779  0  0.970226  0  0  0.11914  0  1.044049  0  0  0.123965  0  1.039242  0  0  0.107779  0.115612  0  1.047604  0
H  H4  1  0.07129938  0.04270616  0.08434411  1  0  0.288118  0  0.911095  0  0  0.268606  0  0.971934  0  0  0.278211  0  0.964237  0  0  0.325751  0.261751  0  0.977555  0
H  H5  1  0.92870393  0.95729594  0.91565483  1  0  0.288078  0  0.911096  0  0  0.268604  0  0.971896  0  0  0.278191  0  0.964226  0  0  0.325751  0.261747  0  0.977516  0
H  H6  1  0.12535453  0.21223765  0.26833468  1  0  0.119118  0  0.976049  0  0  0.120402  0  1.054814  0  0  0.124285  0  1.051147  0  0  0.114143  0.117603  0  1.057396  0
H  H7  1  0.87464565  0.78775613  0.73166952  1  0  0.119094  0  0.976131  0  0  0.120391  0  1.054865  0  0  0.124283  0  1.051203  0  0  0.114156  0.117595  0  1.057449  0
H  H8  1  0.41063073  0.80241642  0.82335623  1  0  0.355091  0  0.900349  0  0  0.330115  0  0.968883  0  0  0.341051  0  0.959653  0  0  0.320462  0.322425  0  0.975477  0
H  H9  1  0.58936971  0.19758766  0.17664481  1  0  0.355039  0  0.900462  0  0  0.330171  0  0.968817  0  0  0.341106  0  0.959586  0  0  0.320462  0.322483  0  0.975409  0
H  H10  1  0.36884505  0.01578990  0.27098273  1  0  0.048018  0  0.97281  0  0  0.052443  0  1.050428  0  0  0.05416  0  1.045496  0  0  0.123525  0.050919  0  1.054064  0
H  H11  1  0.63115438  0.98421215  0.72901666  1  0  0.047989  0  0.972807  0  0  0.052413  0  1.05044  0  0  0.054125  0  1.045515  0  0  0.123523  0.050897  0  1.054067  0
H  H12  1  0.34730456  0.82626644  0.28289259  1  0  0.113231  0  0.954958  0  0  0.129734  0  1.023127  0  0  0.130016  0  1.023773  0  0  0.108997  0.129402  0  1.022757  0
H  H13  1  0.65269379  0.17373147  0.71710822  1  0  0.11321  0  0.95497  0  0  0.129728  0  1.023113  0  0  0.13001  0  1.023756  0  0  0.109  0.129393  0  1.022748  0
H  H14  1  0.18931126  0.81761168  0.38060229  1  0  0.107354  0  0.934889  0  0  0.125968  0  0.998424  0  0  0.127056  0  0.998152  0  0  0.104225  0.125096  0  0.998688  0
H  H15  1  0.81068720  0.18239035  0.61939739  1  0  0.107364  0  0.934888  0  0  0.125983  0  0.998415  0  0  0.12707  0  0.998143  0  0  0.104231  0.125111  0  0.998679  0
H  H16  1  0.35389411  0.74558205  0.40116504  1  0  0.112873  0  0.920312  0  0  0.135055  0  0.97782  0  0  0.135862  0  0.977592  0  0  0.111809  0.13432  0  0.978127  0
H  H17  1  0.64610521  0.25441586  0.59883619  1  0  0.112928  0  0.920324  0  0  0.135066  0  0.977875  0  0  0.135873  0  0.977649  0  0  0.111799  0.134335  0  0.978174  0
H  H18  1  0.23568548  0.96664861  0.56521986  1  0  0.098995  0  0.931599  0  0  0.121585  0  0.990761  0  0  0.121395  0  0.99181  0  0  0.104856  0.121629  0  0.990047  0
H  H19  1  0.76431676  0.03334937  0.43477907  1  0  0.099002  0  0.931592  0  0  0.121602  0  0.990742  0  0  0.121404  0  0.991799  0  0  0.104869  0.121647  0  0.990027  0
H  H20  1  0.10050627  0.93642300  0.54629626  1  0  0.09565  0  0.957424  0  0  0.116885  0  1.021538  0  0  0.116342  0  1.024092  0  0  0.104062  0.117154  0  1.019893  0
H  H21  1  0.89949310  0.06357699  0.45370333  1  0  0.095635  0  0.957495  0  0  0.116878  0  1.021598  0  0  0.116335  0  1.024153  0  0  0.104069  0.117148  0  1.019953  0
H  H22  1  0.09965086  0.10374346  0.53095827  1  0  0.109379  0  0.935941  0  0  0.129018  0  0.998428  0  0  0.13003  0  0.997324  0  0  0.111684  0.128216  0  0.999158  0
H  H23  1  0.90035091  0.89625554  0.46904142  1  0  0.109372  0  0.935948  0  0  0.129018  0  0.998425  0  0  0.130031  0  0.99732  0  0  0.111681  0.128213  0  0.99916  0
H  H24  1  0.68110449  0.75434625  0.96938034  1  0  0.344178  0  0.815713  0  0  0.334119  0  0.856444  0  0  0.342059  0  0.850778  0  0  0.350535  0.328524  0  0.860499  0
H  H25  1  0.31889836  0.24565688  0.03061793  1  0  0.344255  0  0.815626  0  0  0.334177  0  0.856355  0  0  0.342116  0  0.85069  0  0  0.350558  0.328582  0  0.860412  0
H  H26  1  0.67375983  0.40978975  0.45145186  1  0  0.13602  0  0.936286  0  0  0.140976  0  1.004913  0  0  0.145851  0  1.000381  0  0  0.121716  0.137304  0  1.008193  0
H  H27  1  0.32624332  0.59020617  0.54854840  1  0  0.136017  0  0.93628  0  0  0.140966  0  1.004913  0  0  0.145843  0  1.000377  0  0  0.121715  0.137295  0  1.008192  0
H  H28  1  0.04975189  0.33923380  0.64028571  1  0  0.061333  0  0.948101  0  0  0.068959  0  1.019788  0  0  0.070794  0  1.014803  0  0  0.137097  0.067405  0  1.023716  0
H  H29  1  0.95024265  0.66076617  0.35971106  1  0  0.061286  0  0.948098  0  0  0.068908  0  1.019786  0  0  0.070751  0  1.014803  0  0  0.137066  0.067354  0  1.023715  0
H  H30  1  0.42291421  0.16608001  0.60678471  1  0  0.120714  0  0.933475  0  0  0.140285  0  0.991172  0  0  0.142657  0  0.98941  0  0  0.116034  0.138537  0  0.99241  0
H  H31  1  0.57708083  0.83392094  0.39321610  1  0  0.120698  0  0.933512  0  0  0.140289  0  0.991208  0  0  0.142661  0  0.989447  0  0  0.116025  0.13854  0  0.992448  0
H  H32  1  0.39408366  0.01821632  0.66398768  1  0  0.109055  0  0.939119  0  0  0.127065  0  1.005183  0  0  0.128051  0  1.004856  0  0  0.105567  0.126245  0  1.005485  0
H  H33  1  0.60591373  0.98178161  0.33601056  1  0  0.109067  0  0.939107  0  0  0.127081  0  1.005179  0  0  0.128067  0  1.004852  0  0  0.105564  0.126258  0  1.005488  0
H  H34  1  0.37688037  0.14477128  0.74341583  1  0  0.105877  0  0.942767  0  0  0.126835  0  1.005412  0  0  0.12714  0  1.005327  0  0  0.104033  0.126489  0  1.005603  0
H  H35  1  0.62311221  0.85522860  0.25658509  1  0  0.105863  0  0.942807  0  0  0.126845  0  1.005426  0  0  0.127151  0  1.005339  0  0  0.104038  0.1265  0  1.005618  0
H  H36  1  0.99609024  0.23906592  0.78417372  1  0  0.118807  0  0.968491  0  0  0.132479  0  1.03919  0  0  0.134973  0  1.036724  0  0  0.107548  0.130556  0  1.040959  0
H  H37  1  0.00390615  0.76093002  0.21582003  1  0  0.118841  0  0.968449  0  0  0.132552  0  1.039107  0  0  0.135046  0  1.036645  0  0  0.107614  0.130631  0  1.040876  0
H  H38  1  0.12025515  0.18268512  0.84938223  1  0  0.101148  0  0.920957  0  0  0.120269  0  0.981267  0  0  0.120989  0  0.981301  0  0  0.102366  0.119645  0  0.981376  0
H  H39  1  0.87973924  0.81730868  0.15061516  1  0  0.101141  0  0.920925  0  0  0.120239  0  0.98128  0  0  0.120964  0  0.981308  0  0  0.102345  0.119612  0  0.981393  0
H  H40  1  0.12286660  0.06404079  0.77229475  1  0  0.086023  0  0.963589  0  0  0.103437  0  1.034964  0  0  0.10359  0  1.035688  0  0  0.094836  0.103269  0  1.034465  0
H  H41  1  0.87712934  0.93595617  0.22769904  1  0  0.086063  0  0.963633  0  0  0.103509  0  1.034955  0  0  0.103668  0  1.03567  0  0  0.094853  0.10334  0  1.034456  0
C  C42  1  0.93801492  0.37641600  0.43842114  1  0  0.721713  0  3.880689  0  0  0.671512  0  4.174817  0  0  0.707176  0  4.166844  0  0  0.23699  0.647211  0  4.182171  0
C  C43  1  0.06198587  0.62358295  0.56158098  1  0  0.721634  0  3.88065  0  0  0.671505  0  4.174745  0  0  0.707149  0  4.166806  0  0  0.237018  0.647203  0  4.182098  0
C  C44  1  0.84062395  0.19577953  0.23857887  1  0  -0.145969  0  3.680582  0  0  -0.181702  0  3.937584  0  0  -0.182371  0  3.955189  0  0  -0.079612  -0.181429  0  3.926063  0
C  C45  1  0.15937428  0.80421421  0.76142591  1  0  -0.145838  0  3.680342  0  0  -0.18162  0  3.937409  0  0  -0.182282  0  3.955007  0  0  -0.079591  -0.181345  0  3.925888  0
C  C46  1  0.01517479  0.22898568  0.28462891  1  0  -0.135816  0  3.674071  0  0  -0.174171  0  3.929328  0  0  -0.174339  0  3.94716  0  0  -0.076104  -0.174238  0  3.917425  0
C  C47  1  0.98483013  0.77100404  0.71537568  1  0  -0.135904  0  3.674392  0  0  -0.174212  0  3.929683  0  0  -0.174396  0  3.947531  0  0  -0.076197  -0.174283  0  3.917783  0
C  C48  1  0.90370104  0.31423287  0.36812592  1  0  -0.04847  0  3.73702  0  0  -0.019807  0  3.968578  0  0  -0.026991  0  3.989476  0  0  -0.006554  -0.015265  0  3.953943  0
C  C49  1  0.09630056  0.68575988  0.63187937  1  0  -0.04829  0  3.736973  0  0  -0.019797  0  3.968715  0  0  -0.026974  0  3.989623  0  0  -0.006498  -0.015253  0  3.954079  0
C  C50  1  0.98323480  0.16696735  0.22186685  1  0  0.187787  0  3.814597  0  0  0.180587  0  4.073239  0  0  0.183494  0  4.097717  0  0  0.093417  0.178589  0  4.056971  0
C  C51  1  0.01676583  0.83302537  0.77813945  1  0  0.187774  0  3.814621  0  0  0.180604  0  4.073254  0  0  0.183509  0  4.097733  0  0  0.093448  0.178604  0  4.056989  0
C  C52  1  0.32765491  0.93641216  0.05605138  1  0  -0.160403  0  3.747016  0  0  -0.156182  0  4.020333  0  0  -0.172955  0  4.036959  0  0  0.08581  -0.145702  0  4.009395  0
C  C53  1  0.67234329  0.06359911  0.94394753  1  0  -0.160254  0  3.746718  0  0  -0.156  0  4.020078  0  0  -0.17277  0  4.036703  0  0  0.085862  -0.14561  0  4.009239  0
C  C54  1  0.30837063  0.04691143  0.35338615  1  0  0.408078  0  3.804612  0  0  0.336543  0  4.094094  0  0  0.364346  0  4.096063  0  0  0.180693  0.318053  0  4.093438  0
C  C55  1  0.69162823  0.95308753  0.64661369  1  0  0.408163  0  3.804685  0  0  0.336613  0  4.094177  0  0  0.364421  0  4.096146  0  0  0.18073  0.31812  0  4.093516  0
C  C56  1  0.28778271  0.83048273  0.36616910  1  0  -0.17946  0  3.642507  0  0  -0.282108  0  3.894365  0  0  -0.278833  0  3.905316  0  0  -0.131013  -0.283997  0  3.886843  0
C  C57  1  0.71221621  0.16951830  0.63382911  1  0  -0.179516  0  3.642576  0  0  -0.282137  0  3.894417  0  0  -0.278859  0  3.905371  0  0  -0.13101  -0.284024  0  3.886895  0
C  C58  1  0.16726012  0.99391346  0.51951729  1  0  -0.165202  0  3.644629  0  0  -0.266173  0  3.890387  0  0  -0.261769  0  3.900752  0  0  -0.132423  -0.268722  0  3.882963  0
C  C59  1  0.83274165  0.00608554  0.48048168  1  0  -0.165193  0  3.644639  0  0  -0.266189  0  3.890404  0  0  -0.261777  0  3.900773  0  0  -0.132447  -0.268735  0  3.882982  0
C  C60  1  0.57691877  0.31198783  0.34346231  1  0  0.649745  0  3.918322  0  0  0.604339  0  4.206172  0  0  0.637504  0  4.202757  0  0  0.200435  0.581463  0  4.210948  0
C  C61  1  0.42308637  0.68801017  0.65653788  1  0  0.649664  0  3.918458  0  0  0.6043  0  4.206238  0  0  0.637465  0  4.202821  0  0  0.200363  0.581425  0  4.21101  0
C  C62  1  0.72977027  0.28384671  0.32115481  1  0  -0.043957  0  3.760306  0  0  -0.018256  0  3.995406  0  0  -0.02568  0  4.017882  0  0  -0.011632  -0.013554  0  3.979884  0
C  C63  1  0.27023225  0.71614403  0.67884826  1  0  -0.044071  0  3.760393  0  0  -0.018388  0  3.995514  0  0  -0.025812  0  4.017994  0  0  -0.011689  -0.013685  0  3.979989  0
C  C64  1  0.47307197  0.87859015  0.05779219  1  0  0.56333  0  3.861774  0  0  0.509863  0  4.16542  0  0  0.540815  0  4.164689  0  0  0.240973  0.48903  0  4.165553  0
C  C65  1  0.52692944  0.12141398  0.94220713  1  0  0.563316  0  3.862054  0  0  0.509813  0  4.1657  0  0  0.54077  0  4.164963  0  0  0.240993  0.489008  0  4.16583  0
C  C66  1  0.56013156  0.77026175  0.88626709  1  0  0.797026  0  3.805387  0  0  0.728857  0  4.105807  0  0  0.765738  0  4.100258  0  0  0.368355  0.703988  0  4.109753  0
C  C67  1  0.43987134  0.22974345  0.11373026  1  0  0.797239  0  3.805153  0  0  0.728983  0  4.105616  0  0  0.765863  0  4.100065  0  0  0.36839  0.704114  0  4.109566  0
C  C68  1  0.30242543  0.90125316  0.97071309  1  0  0.577719  0  3.804755  0  0  0.525942  0  4.095742  0  0  0.558177  0  4.093456  0  0  0.248895  0.504362  0  4.096747  0
C  C69  1  0.69757722  0.09876128  0.02928349  1  0  0.577819  0  3.804357  0  0  0.525869  0  4.095606  0  0  0.558098  0  4.093326  0  0  0.248796  0.50434  0  4.096584  0
C  C70  1  0.76083264  0.34206058  0.38677315  1  0  -0.056963  0  3.638052  0  0  -0.099987  0  3.889067  0  0  -0.097984  0  3.906163  0  0  -0.061149  -0.100096  0  3.876366  0
C  C71  1  0.23916794  0.65793012  0.61323121  1  0  -0.056921  0  3.638093  0  0  -0.099871  0  3.88912  0  0  -0.097862  0  3.906207  0  0  -0.061084  -0.09998  0  3.876416  0
C  C72  1  0.16640462  0.29254639  0.62214480  1  0  0.420458  0  3.776866  0  0  0.345101  0  4.064056  0  0  0.37446  0  4.064268  0  0  0.191752  0.325399  0  4.065045  0
C  C73  1  0.83359375  0.70745156  0.37785315  1  0  0.42065  0  3.776608  0  0  0.345293  0  4.063796  0  0  0.374642  0  4.064018  0  0  0.191828  0.32559  0  4.064786  0
C  C74  1  0.35996257  0.12823945  0.67488034  1  0  -0.178073  0  3.637116  0  0  -0.276167  0  3.878864  0  0  -0.272907  0  3.888317  0  0  -0.134028  -0.27804  0  3.872267  0
C  C75  1  0.64002766  0.87176348  0.32512101  1  0  -0.177998  0  3.636986  0  0  -0.276152  0  3.878752  0  0  -0.272891  0  3.888201  0  0  -0.134041  -0.278016  0  3.872136  0
C  C76  1  0.10553497  0.17051580  0.77872976  1  0  -0.177222  0  3.666505  0  0  -0.275802  0  3.91372  0  0  -0.272992  0  3.924646  0  0  -0.135596  -0.277236  0  3.90611  0
C  C77  1  0.89445902  0.82948113  0.22126461  1  0  -0.177297  0  3.666557  0  0  -0.275907  0  3.913756  0  0  -0.273105  0  3.924676  0  0  -0.135685  -0.277344  0  3.906142  0
N  N78  1  0.09274226  0.07382175  0.14082631  1  0  -0.16811  0  3.427181  0  0  -0.109205  0  3.664204  0  0  -0.125587  0  3.677802  0  0  -0.234135  -0.098572  0  3.655083  0
N  N79  1  0.90726042  0.92617516  0.85917614  1  0  -0.168155  0  3.427259  0  0  -0.109271  0  3.664266  0  0  -0.12564  0  3.677878  0  0  -0.234215  -0.098634  0  3.655145  0
N  N80  1  0.22545838  0.02173755  0.13449301  1  0  -0.042106  0  3.089315  0  0  -0.043885  0  3.371989  0  0  -0.030077  0  3.381719  0  0  -0.151825  -0.052196  0  3.365111  0
N  N81  1  0.77454435  0.97826142  0.86550923  1  0  -0.042053  0  3.089146  0  0  -0.043791  0  3.371782  0  0  -0.029985  0  3.381511  0  0  -0.151726  -0.052081  0  3.364931  0
N  N82  1  0.42196801  0.82119253  0.89033882  1  0  -0.523366  0  3.22481  0  0  -0.461315  0  3.460147  0  0  -0.488523  0  3.460665  0  0  -0.373209  -0.44297  0  3.459488  0
N  N83  1  0.57803397  0.17881468  0.10966076  1  0  -0.523594  0  3.224726  0  0  -0.461468  0  3.459968  0  0  -0.488671  0  3.460485  0  0  -0.37324  -0.443142  0  3.459318  0
N  N84  1  0.25330786  0.96125286  0.41000974  1  0  -0.090946  0  3.486115  0  0  0.012764  0  3.720311  0  0  -0.007765  0  3.745345  0  0  -0.280161  0.026683  0  3.70248  0
N  N85  1  0.74669202  0.03874815  0.58999032  1  0  -0.09097  0  3.486071  0  0  0.012741  0  3.720279  0  0  -0.007788  0  3.745308  0  0  -0.280171  0.02666  0  3.702448  0
N  N86  1  0.30018330  0.59480853  0.20232027  1  0  0.730319  0  4.121225  0  0  0.754942  0  4.423097  0  0  0.78388  0  4.431137  0  0  0.084738  0.735167  0  4.419597  0
N  N87  1  0.69982101  0.40519559  0.79768174  1  0  0.730267  0  4.121276  0  0  0.754868  0  4.423168  0  0  0.783807  0  4.431213  0  0  0.084667  0.735095  0  4.419668  0
N  N88  1  0.57815339  0.79366660  0.97262291  1  0  -0.519085  0  3.244151  0  0  -0.464545  0  3.488665  0  0  -0.488705  0  3.487146  0  0  -0.38319  -0.448038  0  3.488941  0
N  N89  1  0.42184946  0.20633653  0.02737536  1  0  -0.519169  0  3.244205  0  0  -0.464519  0  3.488657  0  0  -0.488684  0  3.487141  0  0  -0.383149  -0.448012  0  3.488921  0
N  N90  1  0.20885839  0.20166728  0.68934563  1  0  -0.084177  0  3.501616  0  0  0.022192  0  3.732337  0  0  0.00194  0  3.757293  0  0  -0.278  0.035785  0  3.714717  0
N  N91  1  0.79113753  0.79832961  0.31065244  1  0  -0.084327  0  3.501406  0  0  0.022053  0  3.732165  0  0  0.001799  0  3.757126  0  0  -0.277947  0.035648  0  3.714546  0
O  O92  1  0.85325478  0.39995794  0.53234480  1  0  -0.738152  0  2.025787  0  0  -0.691478  0  2.28777  0  0  -0.723339  0  2.274475  0  0  -0.399439  -0.673666  0  2.295129  0
O  O93  1  0.14674418  0.60004511  0.46765606  1  0  -0.738188  0  2.02576  0  0  -0.691512  0  2.287691  0  0  -0.723374  0  2.274423  0  0  -0.399473  -0.673702  0  2.29505  0
O  O94  1  0.04917366  0.40024166  0.39908569  1  0  -0.737097  0  2.070135  0  0  -0.686583  0  2.337346  0  0  -0.718879  0  2.321671  0  0  -0.403287  -0.669357  0  2.346623  0
O  O95  1  0.95082577  0.59976039  0.60091371  1  0  -0.737059  0  2.070212  0  0  -0.686575  0  2.337447  0  0  -0.718865  0  2.321785  0  0  -0.403293  -0.669345  0  2.346723  0
O  O96  1  0.29163312  0.15406050  0.39112182  1  0  -0.636313  0  2.130252  0  0  -0.584797  0  2.394032  0  0  -0.614365  0  2.386013  0  0  -0.377533  -0.568654  0  2.397681  0
O  O97  1  0.70836340  0.84594150  0.60887773  1  0  -0.636334  0  2.130411  0  0  -0.584815  0  2.394205  0  0  -0.614383  0  2.386185  0  0  -0.377546  -0.56867  0  2.397856  0
O  O98  1  0.55040042  0.23682317  0.29700091  1  0  -0.734683  0  2.038408  0  0  -0.681936  0  2.278992  0  0  -0.712109  0  2.268082  0  0  -0.379609  -0.663593  0  2.285533  0
O  O99  1  0.44960044  0.76317790  0.70299672  1  0  -0.734664  0  2.038497  0  0  -0.681871  0  2.279075  0  0  -0.712046  0  2.268165  0  0  -0.379567  -0.663529  0  2.285616  0
O  O100  1  0.50843740  0.90098834  0.12491778  1  0  -0.532104  0  1.939939  0  0  -0.503091  0  2.171187  0  0  -0.521867  0  2.163562  0  0  -0.287582  -0.490235  0  2.176182  0
O  O101  1  0.49156390  0.09901164  0.87508409  1  0  -0.532167  0  1.940114  0  0  -0.503161  0  2.171408  0  0  -0.521933  0  2.163767  0  0  -0.287655  -0.490304  0  2.176393  0
O  O102  1  0.18031641  0.94370330  0.96667749  1  0  -0.522317  0  1.888864  0  0  -0.481877  0  2.098236  0  0  -0.500963  0  2.089483  0  0  -0.278539  -0.468791  0  2.104023  0
O  O103  1  0.81968736  0.05631736  0.03331604  1  0  -0.522257  0  1.888681  0  0  -0.481858  0  2.098212  0  0  -0.500937  0  2.089468  0  0  -0.27846  -0.468775  0  2.103975  0
O  O104  1  0.47672838  0.40592342  0.40796080  1  0  -0.640905  0  1.953741  0  0  -0.59701  0  2.185552  0  0  -0.624206  0  2.174773  0  0  -0.35164  -0.581288  0  2.192196  0
O  O105  1  0.52327432  0.59407354  0.59203808  1  0  -0.640894  0  1.953725  0  0  -0.597017  0  2.185522  0  0  -0.624214  0  2.174742  0  0  -0.351615  -0.581292  0  2.192165  0
O  O106  1  0.66591569  0.70586840  0.80968386  1  0  -0.656772  0  1.992371  0  0  -0.616537  0  2.243872  0  0  -0.64356  0  2.230178  0  0  -0.327443  -0.601663  0  2.251067  0
O  O107  1  0.33408577  0.29413776  0.19031668  1  0  -0.656933  0  1.992269  0  0  -0.616661  0  2.24378  0  0  -0.643681  0  2.230076  0  0  -0.327515  -0.601786  0  2.250974  0
O  O108  1  0.18421081  0.57685130  0.25018015  1  0  -0.554682  0  1.797261  0  0  -0.537644  0  2.028105  0  0  -0.558893  0  2.01825  0  0  -0.240545  -0.525681  0  2.03408  0
O  O109  1  0.81579151  0.42315076  0.74982051  1  0  -0.554733  0  1.797389  0  0  -0.537636  0  2.02819  0  0  -0.558884  0  2.018333  0  0  -0.240558  -0.525674  0  2.034164  0
O  O110  1  0.30592261  0.68170208  0.13592771  1  0  -0.424068  0  1.72059  0  0  -0.421546  0  1.920344  0  0  -0.434633  0  1.914603  0  0  -0.179659  -0.411975  0  1.923933  0
O  O111  1  0.69408276  0.31830610  0.86407788  1  0  -0.424037  0  1.720616  0  0  -0.421531  0  1.920389  0  0  -0.434616  0  1.914647  0  0  -0.179634  -0.411952  0  1.923964  0
O  O112  1  0.40837715  0.51881991  0.22728930  1  0  -0.544406  0  1.742266  0  0  -0.531738  0  1.95723  0  0  -0.552168  0  1.948672  0  0  -0.241774  -0.520556  0  1.962097  0
O  O113  1  0.59162660  0.48118112  0.77271317  1  0  -0.544359  0  1.742204  0  0  -0.531681  0  1.957169  0  0  -0.552113  0  1.948612  0  0  -0.241717  -0.520497  0  1.962035  0
O  O114  1  0.25112824  0.32427185  0.54470539  1  0  -0.629525  0  2.127577  0  0  -0.575934  0  2.390561  0  0  -0.605579  0  2.379725  0  0  -0.381535  -0.559768  0  2.396174  0
O  O115  1  0.74886777  0.67572912  0.45529441  1  0  -0.629573  0  2.127417  0  0  -0.575979  0  2.390407  0  0  -0.605625  0  2.379577  0  0  -0.381583  -0.559813  0  2.396024  0
