# generated using pymatgen
data_CoH28(C13N5)2
_symmetry_space_group_name_H-M   'P 1'
_cell_length_a   6.81962207
_cell_length_b   10.34729071
_cell_length_c   10.38215383
_cell_angle_alpha   75.49499731
_cell_angle_beta   72.04203994
_cell_angle_gamma   72.73492579
_symmetry_Int_Tables_number   1
_chemical_formula_structural   CoH28(C13N5)2
_chemical_formula_sum   'Co1 H28 C26 N10'
_cell_volume   655.25202873
_cell_formula_units_Z   1
loop_
 _symmetry_equiv_pos_site_id
 _symmetry_equiv_pos_as_xyz
  1  'x, y, z'
loop_
 _atom_site_type_symbol
 _atom_site_label
 _atom_site_symmetry_multiplicity
 _atom_site_fract_x
 _atom_site_fract_y
 _atom_site_fract_z
 _atom_site_occupancy
 _atom_site_hle17_ddec_charge
 _atom_site_hle17_ddec_spin_density
 _atom_site_hle17_ddec_sum_bond_order
 _atom_site_hle17_magmom
 _atom_site_hse06_10hf_ddec_charge
 _atom_site_hse06_10hf_ddec_spin_density
 _atom_site_hse06_10hf_ddec_sum_bond_order
 _atom_site_hse06_10hf_magmom
 _atom_site_hse06_ddec_charge
 _atom_site_hse06_ddec_spin_density
 _atom_site_hse06_ddec_sum_bond_order
 _atom_site_hse06_magmom
 _atom_site_pbe_cm5_charge
 _atom_site_pbe_ddec_charge
 _atom_site_pbe_ddec_spin_density
 _atom_site_pbe_ddec_sum_bond_order
 _atom_site_pbe_magmom
Co  Co0  1  0.00000125  0.00000150  0.99999821  1  0.511936  1.101365  2.625092  0.935  0.4981  1.020555  3.040309  0.917  0.558837  1.032444  2.980978  0.94  0.663966  0.461862  0.993217  3.075757  0.875
H  H1  1  0.93586648  0.06298507  0.72484242  1  0.074911  -0.000151  0.984305  0.0  0.081432  -0.000128  1.05166  0.0  0.083244  -0.000101  1.049741  0.0  0.116769  0.079764  -0.000148  1.053631  0.0
H  H2  1  0.07429059  0.27440476  0.92500949  1  0.073394  -0.000161  0.985875  0.0  0.079708  -0.000153  1.053669  0.0  0.081532  -0.000118  1.051622  0.0  0.115899  0.078053  -0.000174  1.055662  0.0
H  H3  1  0.06413930  0.93701234  0.27514942  1  0.074894  -0.000148  0.984336  0.0  0.081409  -0.000128  1.051698  0.0  0.083217  -0.000101  1.049784  0.0  0.116754  0.079741  -0.000148  1.05367  0.0
H  H4  1  0.92570693  0.72559375  0.07498846  1  0.073366  -0.000165  0.985865  0.0  0.079644  -0.000153  1.053701  0.0  0.081466  -0.000118  1.05166  0.0  0.115888  0.077987  -0.000174  1.055697  0.0
H  H5  1  0.12092811  0.16212425  0.48846602  1  0.114601  -0.000284  0.956156  0.0  0.121002  1.6e-05  1.021192  0.0  0.124434  -4e-06  1.020026  0.0  0.105158  0.118311  7e-06  1.022472  0.0
H  H6  1  0.88904604  0.50983874  0.82862862  1  0.115514  -0.000321  0.9587  0.0  0.121713  2e-06  1.024296  0.0  0.12519  -1.4e-05  1.022955  0.0  0.10511  0.118812  -0.0  1.026012  0.0
H  H7  1  0.87908405  0.83787627  0.51153055  1  0.114584  -0.000283  0.956129  0.0  0.120963  1.6e-05  1.02119  0.0  0.124401  -4e-06  1.02002  0.0  0.105125  0.118269  7e-06  1.022468  0.0
H  H8  1  0.11095260  0.49016082  0.17137078  1  0.115481  -0.000323  0.95879  0.0  0.121683  2e-06  1.024384  0.0  0.125162  -1.5e-05  1.02304  0.0  0.105084  0.118786  0.0  1.026101  0.0
H  H9  1  0.64694374  0.12714917  0.65265117  1  0.106478  -0.000239  0.952312  0.0  0.118981  7e-06  1.008475  0.0  0.121508  -6e-06  1.008629  0.0  0.107001  0.117244  1.8e-05  1.008455  0.0
H  H10  1  0.34901098  0.34513429  0.89121709  1  0.10585  -0.000253  0.956464  0.0  0.117374  -3e-06  1.014417  0.0  0.119861  -1.5e-05  1.014556  0.0  0.10637  0.11558  1.1e-05  1.014577  0.0
H  H11  1  0.35306180  0.87285656  0.34735016  1  0.106462  -0.00024  0.952389  0.0  0.118969  7e-06  1.008544  0.0  0.121496  -6e-06  1.008696  0.0  0.106994  0.117229  1.8e-05  1.008525  0.0
H  H12  1  0.65098766  0.65486526  0.10878231  1  0.105844  -0.00026  0.956511  0.0  0.117372  -3e-06  1.014455  0.0  0.11986  -1.5e-05  1.014594  0.0  0.106369  0.115576  1.1e-05  1.014617  0.0
H  H13  1  0.44469474  0.03066526  0.87788351  1  0.074312  -0.000562  1.022109  0.0  0.078369  -0.000495  1.095378  0.0  0.080489  -0.000503  1.091977  0.0  0.113779  0.076686  -0.000416  1.098025  0.0
H  H14  1  0.55131761  0.12103232  0.98425214  1  0.073386  -0.00054  1.021152  0.0  0.078347  -0.000502  1.093388  0.0  0.080353  -0.00052  1.09013  0.0  0.113497  0.076693  -0.000411  1.096018  0.0
H  H15  1  0.55529999  0.96934052  0.12211987  1  0.074293  -0.000568  1.022221  0.0  0.078347  -0.000495  1.0955  0.0  0.080467  -0.000503  1.092096  0.0  0.113782  0.076661  -0.000416  1.098155  0.0
H  H16  1  0.44867787  0.87896315  0.01574891  1  0.073254  -0.000545  1.021338  0.0  0.078214  -0.000502  1.093595  0.0  0.080218  -0.00052  1.09034  0.0  0.113443  0.076558  -0.00041  1.096227  0.0
H  H17  1  0.52179420  0.15798249  0.33550192  1  0.084946  -0.000433  0.947809  0.0  0.10058  -0.000177  1.011219  0.0  0.101255  -0.000122  1.012895  0.0  0.094448  0.10025  -0.000224  1.009614  0.0
H  H18  1  0.48465372  0.66168166  0.84500912  1  0.0835  -0.00047  0.953573  0.0  0.099126  -0.000195  1.017802  0.0  0.09971  -0.00013  1.019582  0.0  0.094257  0.098828  -0.000249  1.016111  0.0
H  H19  1  0.47820528  0.84201910  0.66449584  1  0.084971  -0.000424  0.947761  0.0  0.100584  -0.000178  1.011209  0.0  0.101258  -0.000122  1.012885  0.0  0.094446  0.100252  -0.000223  1.009606  0.0
H  H20  1  0.51534250  0.33831587  0.15499318  1  0.083477  -0.000459  0.95353  0.0  0.099093  -0.000195  1.017776  0.0  0.099676  -0.00013  1.019556  0.0  0.094246  0.0988  -0.000248  1.01608  0.0
H  H21  1  0.68168326  0.20988816  0.40896608  1  0.083943  0.000214  0.939732  0.0  0.096947  0.000248  1.004187  0.0  0.098726  0.000192  1.003374  0.0  0.091258  0.095434  0.00033  1.005013  0.0
H  H22  1  0.32055245  0.58624376  0.79897700  1  0.083502  0.000206  0.935914  0.0  0.097365  0.000245  0.999684  0.0  0.09902  0.000188  0.999091  0.0  0.091615  0.095897  0.000325  1.000411  0.0
H  H23  1  0.31832196  0.79011033  0.59103138  1  0.083958  0.000217  0.939761  0.0  0.096996  0.000248  1.004176  0.0  0.098774  0.000192  1.003361  0.0  0.091275  0.095478  0.00033  1.005002  0.0
H  H24  1  0.67944467  0.41375579  0.20102173  1  0.083476  0.000216  0.935986  0.0  0.097359  0.000245  0.999728  0.0  0.099015  0.000189  0.999134  0.0  0.091627  0.095896  0.000325  1.000452  0.0
H  H25  1  0.23887277  0.37523323  0.37525632  1  0.068266  0.000149  0.9446  0.0  0.086187  0.000128  1.007105  0.0  0.087164  0.000101  1.007253  0.0  0.090536  0.085468  0.000135  1.006963  0.0
H  H26  1  0.76113336  0.62476636  0.62474839  1  0.06824  0.000149  0.944608  0.0  0.086122  0.000128  1.007129  0.0  0.0871  0.000101  1.007275  0.0  0.090536  0.085421  0.000135  1.006962  0.0
H  H27  1  0.41448827  0.43451252  0.42922277  1  0.059855  -7e-06  0.926063  0.0  0.081457  -1.8e-05  0.979394  0.0  0.082526  -1.2e-05  0.979436  0.0  0.086755  0.081104  -1e-05  0.978474  0.0
H  H28  1  0.58551728  0.56548495  0.57077584  1  0.059877  -7e-06  0.92601  0.0  0.081464  -1.8e-05  0.979331  0.0  0.082535  -1.2e-05  0.979371  0.0  0.086737  0.08111  -1e-05  0.978417  0.0
C  C29  1  0.09414548  0.07911394  0.70313468  1  0.115441  -0.013686  3.688304  -0.009  0.083818  -0.004981  3.944168  -0.003  0.094171  -0.004115  3.961203  -0.003  0.039611  0.075839  -0.005488  3.934972  -0.003
C  C30  1  0.91325763  0.29564061  0.91490526  1  0.116838  -0.014495  3.692508  -0.01  0.0856  -0.005263  3.947102  -0.003  0.096035  -0.004328  3.964176  -0.003  0.040085  0.077808  -0.005788  3.937311  -0.003
C  C31  1  0.90585592  0.92088662  0.29686298  1  0.115352  -0.013702  3.688522  -0.009  0.0837  -0.004977  3.944373  -0.003  0.094054  -0.004112  3.961412  -0.003  0.039589  0.075718  -0.005484  3.935211  -0.003
C  C32  1  0.08674494  0.70436098  0.08509192  1  0.116906  -0.014476  3.692403  -0.01  0.085651  -0.00526  3.946991  -0.003  0.096085  -0.004326  3.964069  -0.003  0.040146  0.077873  -0.005784  3.937169  -0.003
C  C33  1  0.19795166  0.13474016  0.57290002  1  -0.172798  0.003743  3.695667  0.005  -0.185648  0.000376  3.938372  0.001  -0.194986  0.000636  3.958471  0.001  -0.084585  -0.179549  0.000368  3.925417  0.001
C  C34  1  0.80948154  0.42529591  0.86062296  1  -0.172145  0.003986  3.693838  0.005  -0.184766  0.000405  3.93573  0.001  -0.194049  0.00067  3.95568  0.001  -0.084473  -0.178753  0.000388  3.923132  0.001
C  C35  1  0.80205406  0.86526139  0.42709463  1  -0.172715  0.003743  3.695704  0.005  -0.185558  0.000376  3.938385  0.001  -0.194902  0.000635  3.958486  0.001  -0.084536  -0.179454  0.000368  3.925415  0.001
C  C36  1  0.19051613  0.57469752  0.13938107  1  -0.172144  0.003987  3.693564  0.005  -0.184741  0.000404  3.935459  0.001  -0.194024  0.00067  3.955409  0.001  -0.084425  -0.178734  0.000388  3.922869  0.001
C  C37  1  0.40114186  0.15569360  0.54989050  1  0.165042  -0.013693  3.727549  -0.009  0.179334  -0.004994  3.96303  -0.003  0.187462  -0.003641  3.98344  -0.002  0.014311  0.173993  -0.006113  3.948781  -0.004
C  C38  1  0.60251893  0.44753866  0.84757002  1  0.163672  -0.014453  3.72532  -0.009  0.178638  -0.005255  3.959827  -0.003  0.186847  -0.003822  3.980032  -0.002  0.014448  0.173254  -0.006463  3.945662  -0.004
C  C39  1  0.59886629  0.84430493  0.45011121  1  0.164998  -0.013689  3.727508  -0.009  0.179348  -0.004991  3.96293  -0.003  0.187469  -0.003639  3.98335  -0.002  0.014292  0.174012  -0.006109  3.948669  -0.004
C  C40  1  0.39748481  0.55246394  0.15242667  1  0.163731  -0.014443  3.725417  -0.009  0.178612  -0.005251  3.960025  -0.003  0.186818  -0.00382  3.980233  -0.002  0.014376  0.173227  -0.006457  3.945864  -0.004
C  C41  1  0.48927429  0.11500011  0.66276424  1  -0.177641  0.003545  3.717113  0.005  -0.194779  0.000284  3.964289  0.001  -0.204429  0.000534  3.984903  0.001  -0.087899  -0.188595  0.000144  3.950322  0.001
C  C42  1  0.51072799  0.33491411  0.89518532  1  -0.176961  0.00373  3.718421  0.005  -0.193819  0.000305  3.966036  0.001  -0.203427  0.000564  3.986481  0.001  -0.087632  -0.187749  0.000165  3.952346  0.001
C  C43  1  0.51071648  0.88499953  0.33724147  1  -0.177558  0.003543  3.716813  0.005  -0.194714  0.000284  3.963968  0.001  -0.204367  0.000533  3.984582  0.001  -0.087854  -0.188529  0.000144  3.949993  0.001
C  C44  1  0.48927471  0.66507826  0.10481707  1  -0.177022  0.003737  3.718304  0.005  -0.193853  0.000304  3.965946  0.001  -0.203462  0.000564  3.986393  0.001  -0.087593  -0.187787  0.000164  3.952261  0.001
C  C45  1  0.37638998  0.05960520  0.79038604  1  0.115768  -0.013017  3.694042  -0.009  0.082602  -0.004998  3.956382  -0.003  0.093698  -0.00419  3.971497  -0.003  0.040701  0.074692  -0.005545  3.94761  -0.003
C  C46  1  0.62380896  0.20793082  0.94883650  1  0.117963  -0.013707  3.692128  -0.009  0.083851  -0.005269  3.953949  -0.003  0.095195  -0.004416  3.968846  -0.003  0.041599  0.075634  -0.005861  3.945587  -0.004
C  C47  1  0.62360819  0.94040045  0.20960612  1  0.115832  -0.012974  3.693774  -0.009  0.082613  -0.004997  3.956119  -0.003  0.09372  -0.004188  3.971221  -0.003  0.040793  0.074712  -0.005543  3.947365  -0.003
C  C48  1  0.37618942  0.79207386  0.05116068  1  0.118205  -0.01369  3.691764  -0.009  0.084027  -0.005269  3.953594  -0.003  0.095373  -0.004416  3.968488  -0.003  0.041666  0.075845  -0.005861  3.945161  -0.004
C  C49  1  0.51634264  0.21769228  0.41123715  1  -0.169811  0.000191  3.70648  0.001  -0.208588  6e-05  3.95347  0.0  -0.211056  9.5e-05  3.965386  0.0  -0.161185  -0.206538  8.5e-05  3.945094  0.0
C  C50  1  0.48680484  0.58534837  0.78705790  1  -0.167634  0.000191  3.704194  0.001  -0.208218  5.1e-05  3.953219  0.0  -0.210617  9e-05  3.965178  0.0  -0.162153  -0.206129  7.2e-05  3.944645  0.0
C  C51  1  0.48365661  0.78230526  0.58876650  1  -0.169779  0.000174  3.706516  0.001  -0.208608  6e-05  3.953476  0.0  -0.211073  9.5e-05  3.965392  0.0  -0.161187  -0.206562  8.4e-05  3.9451  0.0
C  C52  1  0.51319186  0.41465223  0.21294257  1  -0.167641  0.000167  3.70402  0.001  -0.20818  5.2e-05  3.953058  0.0  -0.210575  9e-05  3.965017  0.0  -0.162165  -0.206086  7.2e-05  3.944474  0.0
C  C53  1  0.40749131  0.36743535  0.36413264  1  -0.083371  -0.001191  3.670943  -0.001  -0.123382  -0.000346  3.927754  0.0  -0.124227  -0.000221  3.941008  0.0  -0.157613  -0.122822  -0.00059  3.918308  0.0
C  C54  1  0.59250335  0.63256633  0.63587180  1  -0.083465  -0.00119  3.671178  -0.001  -0.123373  -0.000346  3.927925  0.0  -0.124218  -0.00022  3.941183  0.0  -0.157626  -0.12283  -0.000589  3.918475  0.0
N  N55  1  0.80388695  0.91372891  0.91520320  1  -0.532944  0.005969  2.673188  0.018  -0.540914  0.005485  2.971349  0.013  -0.563837  -0.002961  2.979557  0.004  -0.276781  -0.522714  0.013553  2.964084  0.021
N  N56  1  0.19611396  0.08627684  0.08479901  1  -0.532917  0.005947  2.673536  0.018  -0.540912  0.00548  2.971759  0.013  -0.563825  -0.002963  2.979962  0.004  -0.276733  -0.522715  0.013546  2.964492  0.021
N  N57  1  0.87098743  0.83353068  0.83706220  1  0.364758  -0.008365  4.256125  -0.007  0.409531  0.002734  4.553913  0.005  0.425226  0.000792  4.585921  0.003  0.060914  0.398547  0.004129  4.530109  0.006
N  N58  1  0.12901128  0.16646886  0.16293527  1  0.364804  -0.008354  4.25611  -0.007  0.409552  0.002731  4.55394  0.005  0.425248  0.00079  4.585947  0.003  0.060927  0.398575  0.004127  4.530129  0.006
N  N59  1  0.93492870  0.75488388  0.76001540  1  -0.476312  0.044722  2.384298  0.064  -0.478928  0.027263  2.614547  0.038  -0.490644  0.024024  2.625438  0.034  -0.245064  -0.467735  0.033068  2.605344  0.045
N  N60  1  0.06506059  0.24511987  0.23998954  1  -0.476408  0.044726  2.383931  0.064  -0.478981  0.027265  2.614166  0.038  -0.49071  0.024025  2.625067  0.034  -0.245122  -0.46778  0.03307  2.604955  0.045
N  N61  1  0.17924104  0.04273475  0.81287968  1  -0.244093  -0.010187  3.363495  -0.005  -0.196229  -0.007216  3.643204  -0.005  -0.223105  -0.007169  3.662646  -0.005  -0.333465  -0.179401  -0.005561  3.63041  -0.003
N  N62  1  0.82466200  0.18594054  0.95738783  1  -0.244148  -0.011129  3.37286  -0.006  -0.195727  -0.007894  3.652205  -0.005  -0.22267  -0.007699  3.671663  -0.005  -0.335249  -0.178835  -0.00637  3.639343  -0.004
N  N63  1  0.82075700  0.95726178  0.18712542  1  -0.244105  -0.010198  3.363504  -0.005  -0.196126  -0.007219  3.643103  -0.005  -0.223008  -0.007172  3.662543  -0.005  -0.333539  -0.179336  -0.005564  3.630346  -0.003
N  N64  1  0.17533200  0.81405492  0.04261158  1  -0.244274  -0.011137  3.372932  -0.006  -0.195738  -0.007896  3.652182  -0.005  -0.222683  -0.0077  3.671644  -0.005  -0.335303  -0.17885  -0.006371  3.639318  -0.004
