# generated using pymatgen
data_ZnH12C13N6Cl2OF2
_symmetry_space_group_name_H-M   'P 1'
_cell_length_a   7.96266600
_cell_length_b   10.34535995
_cell_length_c   12.16003067
_cell_angle_alpha   100.18285362
_cell_angle_beta   105.51098913
_cell_angle_gamma   107.08141360
_symmetry_Int_Tables_number   1
_chemical_formula_structural   ZnH12C13N6Cl2OF2
_chemical_formula_sum   'Zn2 H24 C26 N12 Cl4 O2 F4'
_cell_volume   886.48057676
_cell_formula_units_Z   2
loop_
 _symmetry_equiv_pos_site_id
 _symmetry_equiv_pos_as_xyz
  1  'x, y, z'
loop_
 _atom_site_type_symbol
 _atom_site_label
 _atom_site_symmetry_multiplicity
 _atom_site_fract_x
 _atom_site_fract_y
 _atom_site_fract_z
 _atom_site_occupancy
 _atom_site_hle17_bader_spin_density
 _atom_site_hle17_ddec_charge
 _atom_site_hle17_ddec_spin_density
 _atom_site_hle17_ddec_sum_bond_order
 _atom_site_hle17_magmom
 _atom_site_hse06_10hf_bader_spin_density
 _atom_site_hse06_10hf_ddec_charge
 _atom_site_hse06_10hf_ddec_spin_density
 _atom_site_hse06_10hf_ddec_sum_bond_order
 _atom_site_hse06_10hf_magmom
 _atom_site_hse06_bader_spin_density
 _atom_site_hse06_ddec_charge
 _atom_site_hse06_ddec_spin_density
 _atom_site_hse06_ddec_sum_bond_order
 _atom_site_hse06_magmom
 _atom_site_pbe_bader_spin_density
 _atom_site_pbe_cm5_charge
 _atom_site_pbe_ddec_charge
 _atom_site_pbe_ddec_spin_density
 _atom_site_pbe_ddec_sum_bond_order
 _atom_site_pbe_magmom
Zn  Zn0  1  0.82151915  0.65884818  0.06297245  1  0  0.862037  0  2.126177  0  0  0.685409  0  2.624822  0  0  0.723115  0  2.579776  0  0  0.563299  0.659095  0  2.655865  0
Zn  Zn1  1  0.17848359  0.34114838  0.93702630  1  0  0.862074  0  2.126238  0  0  0.685379  0  2.624896  0  0  0.723092  0  2.579842  0  0  0.563268  0.659059  0  2.655945  0
H  H2  1  0.28887609  0.73690774  0.15160236  1  0  0.110171  0  0.950393  0  0  0.116803  0  1.016174  0  0  0.118787  0  1.014152  0  0  0.126756  0.115946  0  1.016509  0
H  H3  1  0.71112136  0.26309407  0.84839293  1  0  0.110106  0  0.950382  0  0  0.116793  0  1.016136  0  0  0.118779  0  1.014108  0  0  0.126727  0.115932  0  1.016469  0
H  H4  1  0.96804748  0.99679168  0.12955684  1  0  0.121235  0  0.915157  0  0  0.128805  0  0.978604  0  0  0.132129  0  0.973471  0  0  0.144947  0.126023  0  0.982161  0
H  H5  1  0.03194863  0.00321016  0.87044397  1  0  0.121281  0  0.915154  0  0  0.128814  0  0.978651  0  0  0.132139  0  0.973518  0  0  0.144956  0.126031  0  0.982208  0
H  H6  1  0.24433688  0.23851706  0.19121910  1  0  0.112344  0  0.957933  0  0  0.120566  0  1.029367  0  0  0.122724  0  1.026543  0  0  0.110457  0.119717  0  1.029423  0
H  H7  1  0.75566284  0.76148689  0.80878348  1  0  0.112374  0  0.957898  0  0  0.120604  0  1.029311  0  0  0.122759  0  1.026493  0  0  0.110467  0.119753  0  1.029367  0
H  H8  1  0.44082389  0.21858077  0.15916820  1  0  0.120942  0  0.942757  0  0  0.129776  0  1.0102  0  0  0.131994  0  1.007287  0  0  0.109596  0.128102  0  1.011685  0
H  H9  1  0.55917513  0.78141896  0.84083364  1  0  0.120929  0  0.94272  0  0  0.129755  0  1.010169  0  0  0.131971  0  1.007262  0  0  0.109593  0.128081  0  1.011651  0
H  H10  1  0.95102457  0.21958328  0.47360424  1  0  0.160669  0  0.936445  0  0  0.168423  0  0.998548  0  0  0.172623  0  0.995746  0  0  0.115421  0.165403  0  1.000681  0
H  H11  1  0.04896926  0.78041643  0.52639257  1  0  0.160614  0  0.936393  0  0  0.168379  0  0.998485  0  0  0.172581  0  0.995683  0  0  0.115414  0.165359  0  1.000619  0
H  H12  1  0.38388868  0.10062645  0.67832659  1  0  0.127363  0  0.970311  0  0  0.13202  0  1.038584  0  0  0.135786  0  1.036647  0  0  0.10656  0.129223  0  1.040328  0
H  H13  1  0.61610844  0.89937750  0.32167635  1  0  0.12735  0  0.970349  0  0  0.132011  0  1.038623  0  0  0.135776  0  1.036687  0  0  0.106553  0.129214  0  1.040366  0
H  H14  1  0.56171913  0.15431282  0.53941330  1  0  0.111219  0  0.94046  0  0  0.11896  0  1.000026  0  0  0.122551  0  0.997433  0  0  0.107637  0.11631  0  1.002082  0
H  H15  1  0.43828108  0.84569219  0.46059199  1  0  0.111228  0  0.940488  0  0  0.11897  0  1.000046  0  0  0.122567  0  0.997456  0  0  0.107626  0.116318  0  1.002106  0
H  H16  1  0.45017134  0.46021085  0.35788163  1  0  0.108212  0  0.918819  0  0  0.120991  0  0.981006  0  0  0.122389  0  0.980422  0  0  0.12003  0.11968  0  0.98197  0
H  H17  1  0.54983623  0.53979307  0.64211741  1  0  0.108216  0  0.918808  0  0  0.120969  0  0.981034  0  0  0.122365  0  0.980456  0  0  0.120031  0.119659  0  0.981995  0
H  H18  1  0.64149629  0.45590827  0.47277757  1  0  0.096725  0  0.914243  0  0  0.111449  0  0.974051  0  0  0.112128  0  0.974281  0  0  0.117364  0.110909  0  0.973986  0
H  H19  1  0.35850976  0.54409251  0.52722239  1  0  0.096705  0  0.91429  0  0  0.11144  0  0.974076  0  0  0.112121  0  0.974304  0  0  0.117375  0.110902  0  0.974009  0
H  H20  1  0.93730751  0.43683769  0.40804784  1  0  0.096475  0  0.955972  0  0  0.103574  0  1.025173  0  0  0.106108  0  1.021786  0  0  0.13324  0.101701  0  1.027641  0
H  H21  1  0.06270083  0.56316520  0.59195612  1  0  0.096515  0  0.955992  0  0  0.103606  0  1.025201  0  0  0.106137  0  1.021821  0  0  0.133266  0.101734  0  1.027663  0
H  H22  1  0.51598429  0.53032093  0.17796564  1  0  0.107792  0  1.007656  0  0  0.11233  0  1.080354  0  0  0.115341  0  1.07718  0  0  0.118462  0.109938  0  1.082824  0
H  H23  1  0.48401907  0.46967141  0.82202931  1  0  0.107729  0  1.007789  0  0  0.112345  0  1.080405  0  0  0.115375  0  1.077183  0  0  0.118474  0.109953  0  1.082877  0
H  H24  1  0.58121597  0.10926698  0.31607447  1  0  0.361963  0  0.904389  0  0  0.333011  0  0.99018  0  0  0.343538  0  0.977233  0  0  0.302794  0.325601  0  0.99929  0
H  H25  1  0.41878123  0.89073171  0.68392854  1  0  0.361967  0  0.904383  0  0  0.333006  0  0.990181  0  0  0.343532  0  0.977238  0  0  0.302831  0.325596  0  0.999287  0
C  C26  1  0.25133723  0.83033386  0.15770500  1  0  0.23737  0  3.632325  0  0  0.182541  0  3.908251  0  0  0.195611  0  3.916979  0  0  0.161796  0.174487  0  3.899072  0
C  C27  1  0.74866021  0.16966795  0.84229028  1  0  0.237544  0  3.632155  0  0  0.1826  0  3.908084  0  0  0.195675  0  3.916824  0  0  0.161837  0.174553  0  3.8989  0
C  C28  1  0.08459499  0.96015817  0.14390149  1  0  0.174736  0  3.624633  0  0  0.092131  0  3.890482  0  0  0.117235  0  3.905314  0  0  0.167368  0.082733  0  3.883086  0
C  C29  1  0.91540293  0.03984471  0.85609815  1  0  0.174775  0  3.624673  0  0  0.092178  0  3.890497  0  0  0.117257  0  3.905321  0  0  0.167355  0.082779  0  3.883105  0
C  C30  1  0.35353602  0.19388044  0.21448698  1  0  -0.145432  0  3.62003  0  0  -0.226611  0  3.869542  0  0  -0.215193  0  3.882386  0  0  -0.060182  -0.227437  0  3.862045  0
C  C31  1  0.64646320  0.80612245  0.78551536  1  0  -0.145458  0  3.620017  0  0  -0.226639  0  3.869578  0  0  -0.215249  0  3.882421  0  0  -0.060184  -0.227461  0  3.862074  0
C  C32  1  0.47410770  0.25413923  0.34720321  1  0  0.303205  0  3.585411  0  0  0.299102  0  3.84407  0  0  0.305873  0  3.853495  0  0  0.081023  0.294469  0  3.836542  0
C  C33  1  0.52589232  0.74586261  0.65279912  1  0  0.303267  0  3.585328  0  0  0.299116  0  3.844009  0  0  0.30591  0  3.853362  0  0  0.081027  0.294457  0  3.836557  0
C  C34  1  0.36073148  0.21876653  0.42928186  1  0  -0.141007  0  3.721087  0  0  -0.143082  0  3.978785  0  0  -0.148071  0  4.001751  0  0  -0.036635  -0.139637  0  3.962984  0
C  C35  1  0.63926463  0.78123531  0.57071895  1  0  -0.141108  0  3.721189  0  0  -0.143092  0  3.978781  0  0  -0.148078  0  4.001758  0  0  -0.036683  -0.13964  0  3.962968  0
C  C36  1  0.19053567  0.23822606  0.41641408  1  0  0.284627  0  3.771919  0  0  0.268998  0  4.057602  0  0  0.280507  0  4.0683  0  0  0.091662  0.260884  0  4.05065  0
C  C37  1  0.80945964  0.76177683  0.58358757  1  0  0.284704  0  3.771883  0  0  0.269031  0  4.057544  0  0  0.280533  0  4.068253  0  0  0.091696  0.260919  0  4.050588  0
C  C38  1  0.08561386  0.20651134  0.48927368  1  0  -0.309351  0  3.753558  0  0  -0.348679  0  4.019653  0  0  -0.355435  0  4.035041  0  0  -0.116859  -0.344132  0  4.009496  0
C  C39  1  0.91438055  0.79348417  0.51072508  1  0  -0.309353  0  3.75344  0  0  -0.348663  0  4.019548  0  0  -0.35541  0  4.034914  0  0  -0.116892  -0.344118  0  4.009395  0
C  C40  1  0.15894179  0.15520431  0.58171826  1  0  0.345143  0  3.801115  0  0  0.333663  0  4.083729  0  0  0.345896  0  4.094616  0  0  0.099982  0.32513  0  4.076505  0
C  C41  1  0.84105923  0.84479964  0.41828538  1  0  0.345205  0  3.801086  0  0  0.333683  0  4.083741  0  0  0.345918  0  4.094623  0  0  0.099998  0.325147  0  4.076522  0
C  C42  1  0.32962997  0.13706192  0.60253603  1  0  -0.198739  0  3.740794  0  0  -0.229074  0  4.003421  0  0  -0.235266  0  4.022884  0  0  -0.107466  -0.225096  0  3.990796  0
C  C43  1  0.67036394  0.86293253  0.39746084  1  0  -0.198797  0  3.740802  0  0  -0.229134  0  4.003463  0  0  -0.235324  0  4.022927  0  0  -0.107467  -0.225156  0  3.990839  0
C  C44  1  0.42795752  0.16837645  0.52542450  1  0  -0.035498  0  3.720763  0  0  -0.056123  0  3.977558  0  0  -0.054624  0  3.996519  0  0  -0.084368  -0.056996  0  3.964985  0
C  C45  1  0.57204060  0.83162960  0.47457810  1  0  -0.035448  0  3.720815  0  0  -0.056099  0  3.977567  0  0  -0.054616  0  3.996546  0  0  -0.084329  -0.056963  0  3.964977  0
C  C46  1  0.56064770  0.41593496  0.37743683  1  0  -0.078405  0  3.57709  0  0  -0.14541  0  3.825703  0  0  -0.142899  0  3.83744  0  0  -0.045694  -0.146964  0  3.817999  0
C  C47  1  0.43935755  0.58406686  0.62256313  1  0  -0.078409  0  3.577132  0  0  -0.145381  0  3.825706  0  0  -0.142875  0  3.837453  0  0  -0.045693  -0.146936  0  3.818001  0
C  C48  1  0.86910688  0.47706022  0.33990092  1  0  0.134544  0  3.675361  0  0  0.073622  0  3.961541  0  0  0.084393  0  3.972699  0  0  0.145246  0.066518  0  3.954144  0
C  C49  1  0.13089866  0.52293952  0.66010126  1  0  0.13454  0  3.675222  0  0  0.073632  0  3.961405  0  0  0.084402  0  3.972561  0  0  0.145262  0.066529  0  3.954009  0
C  C50  1  0.65058370  0.52304259  0.22117985  1  0  0.160093  0  3.624657  0  0  0.096235  0  3.881291  0  0  0.108754  0  3.895573  0  0  0.157919  0.088148  0  3.871741  0
C  C51  1  0.34941834  0.47694975  0.77881569  1  0  0.160315  0  3.624718  0  0  0.096362  0  3.88128  0  0  0.10889  0  3.895563  0  0  0.157975  0.088275  0  3.87173  0
N  N52  1  0.07130963  0.82567013  0.12643850  1  0  -0.374194  0  3.251804  0  0  -0.29422  0  3.550834  0  0  -0.314428  0  3.55708  0  0  -0.340658  -0.280552  0  3.543848  0
N  N53  1  0.92868909  0.17433170  0.87356277  1  0  -0.374325  0  3.251936  0  0  -0.294232  0  3.550872  0  0  -0.31446  0  3.557141  0  0  -0.340645  -0.280564  0  3.543885  0
N  N54  1  0.37433456  0.96115048  0.19344068  1  0  -0.284899  0  2.893068  0  0  -0.270315  0  3.148079  0  0  -0.271205  0  3.166546  0  0  -0.214974  -0.263158  0  3.139445  0
N  N55  1  0.62566497  0.03885030  0.80655976  1  0  -0.284975  0  2.893001  0  0  -0.270365  0  3.148055  0  0  -0.271284  0  3.166508  0  0  -0.215006  -0.263209  0  3.139417  0
N  N56  1  0.26569670  0.04200941  0.18321522  1  0  0.061637  0  3.577079  0  0  0.181359  0  3.762858  0  0  0.14001  0  3.827517  0  0  -0.135038  0.188281  0  3.7454  0
N  N57  1  0.73430202  0.95799243  0.81678688  1  0  0.061627  0  3.57711  0  0  0.181324  0  3.762891  0  0  0.140056  0  3.827458  0  0  -0.135044  0.188249  0  3.745427  0
N  N58  1  0.68565509  0.46601831  0.31338164  1  0  -0.080035  0  3.543557  0  0  0.015486  0  3.763139  0  0  -0.001164  0  3.78882  0  0  -0.236659  0.026422  0  3.745718  0
N  N59  1  0.31435075  0.53397931  0.68661864  1  0  -0.08011  0  3.543444  0  0  0.015376  0  3.763086  0  0  -0.001276  0  3.788768  0  0  -0.236736  0.026314  0  3.745665  0
N  N60  1  0.94449247  0.53785107  0.26976286  1  0  -0.192053  0  2.898591  0  0  -0.182479  0  3.181261  0  0  -0.187452  0  3.193131  0  0  -0.227371  -0.17931  0  3.173553  0
N  N61  1  0.05551337  0.46214656  0.73023824  1  0  -0.191921  0  2.898439  0  0  -0.182389  0  3.181068  0  0  -0.187359  0  3.192938  0  0  -0.227329  -0.179219  0  3.173361  0
N  N62  1  0.80442789  0.56559833  0.19436629  1  0  -0.242529  0  3.262274  0  0  -0.164488  0  3.561182  0  0  -0.181172  0  3.57408  0  0  -0.242666  -0.153444  0  3.552645  0
N  N63  1  0.19557876  0.43439823  0.80563233  1  0  -0.242828  0  3.26232  0  0  -0.164668  0  3.561157  0  0  -0.181364  0  3.574068  0  0  -0.242735  -0.153624  0  3.55262  0
Cl  Cl64  1  0.60769743  0.76472620  0.05387142  1  0  -0.594282  0  0.87379  0  0  -0.539973  0  1.132652  0  0  -0.554371  0  1.110713  0  0  -0.350568  -0.529707  0  1.147859  0
Cl  Cl65  1  0.39230199  0.23526616  0.94612859  1  0  -0.594263  0  0.873821  0  0  -0.539973  0  1.132728  0  0  -0.554374  0  1.110786  0  0  -0.350558  -0.529705  0  1.147935  0
Cl  Cl66  1  0.80829565  0.53525083  0.88907351  1  0  -0.554647  0  1.010966  0  0  -0.501653  0  1.300267  0  0  -0.516651  0  1.275738  0  0  -0.310162  -0.491394  0  1.316171  0
Cl  Cl67  1  0.19171091  0.46475098  0.11092505  1  0  -0.554643  0  1.010944  0  0  -0.501637  0  1.300263  0  0  -0.516631  0  1.275743  0  0  -0.310156  -0.491377  0  1.316169  0
O  O68  1  0.62652813  0.20506298  0.37039697  1  0  -0.566271  0  2.007838  0  0  -0.525462  0  2.230278  0  0  -0.540213  0  2.217807  0  0  -0.38906  -0.514851  0  2.238676  0
O  O69  1  0.37346727  0.79493466  0.62960556  1  0  -0.566283  0  2.00785  0  0  -0.525461  0  2.230324  0  0  -0.540219  0  2.217851  0  0  -0.389106  -0.514843  0  2.238727  0
F  F70  1  0.11950008  0.29313312  0.32769889  1  0  -0.197992  0  1.214337  0  0  -0.144448  0  1.383891  0  0  -0.154814  0  1.374488  0  0  -0.087702  -0.137026  0  1.390278  0
F  F71  1  0.88049845  0.70686555  0.67230024  1  0  -0.197979  0  1.214333  0  0  -0.144433  0  1.383894  0  0  -0.154798  0  1.374495  0  0  -0.087683  -0.13701  0  1.39028  0
F  F72  1  0.05737132  0.12078007  0.65306070  1  0  -0.203165  0  1.215893  0  0  -0.153224  0  1.382992  0  0  -0.164527  0  1.376531  0  0  -0.095495  -0.145006  0  1.387352  0
F  F73  1  0.94262400  0.87922281  0.34693930  1  0  -0.203165  0  1.215865  0  0  -0.153219  0  1.382972  0  0  -0.164522  0  1.37651  0  0  -0.095485  -0.145  0  1.387334  0
