# generated using pymatgen
data_ZnH7C7NO6
_symmetry_space_group_name_H-M   'P 1'
_cell_length_a   5.28950344
_cell_length_b   11.41718995
_cell_length_c   13.73039108
_cell_angle_alpha   90.00001641
_cell_angle_beta   93.35018097
_cell_angle_gamma   89.99965283
_symmetry_Int_Tables_number   1
_chemical_formula_structural   ZnH7C7NO6
_chemical_formula_sum   'Zn4 H28 C28 N4 O24'
_cell_volume   827.77861245
_cell_formula_units_Z   4
loop_
 _symmetry_equiv_pos_site_id
 _symmetry_equiv_pos_as_xyz
  1  'x, y, z'
loop_
 _atom_site_type_symbol
 _atom_site_label
 _atom_site_symmetry_multiplicity
 _atom_site_fract_x
 _atom_site_fract_y
 _atom_site_fract_z
 _atom_site_occupancy
 _atom_site_hle17_bader_spin_density
 _atom_site_hle17_ddec_charge
 _atom_site_hle17_ddec_spin_density
 _atom_site_hle17_ddec_sum_bond_order
 _atom_site_hle17_magmom
 _atom_site_hse06_10hf_bader_spin_density
 _atom_site_hse06_10hf_ddec_charge
 _atom_site_hse06_10hf_ddec_spin_density
 _atom_site_hse06_10hf_ddec_sum_bond_order
 _atom_site_hse06_10hf_magmom
 _atom_site_hse06_bader_spin_density
 _atom_site_hse06_ddec_charge
 _atom_site_hse06_ddec_spin_density
 _atom_site_hse06_ddec_sum_bond_order
 _atom_site_hse06_magmom
 _atom_site_pbe_bader_spin_density
 _atom_site_pbe_cm5_charge
 _atom_site_pbe_ddec_charge
 _atom_site_pbe_ddec_spin_density
 _atom_site_pbe_ddec_sum_bond_order
 _atom_site_pbe_magmom
Zn  Zn0  1  0.07688220  0.63621868  0.96740151  1  0  1.129657  0  1.727129  0  0  0.963209  0  2.162832  0  0  1.008967  0  2.108285  0  0  0.677302  0.931109  0  2.200316  0
Zn  Zn1  1  0.42310925  0.13622478  0.53259995  1  0  1.129692  0  1.727019  0  0  0.963291  0  2.162719  0  0  1.009043  0  2.108168  0  0  0.677311  0.931183  0  2.200211  0
Zn  Zn2  1  0.92310850  0.36377835  0.03259969  1  0  1.129635  0  1.727084  0  0  0.963212  0  2.162793  0  0  1.008973  0  2.108241  0  0  0.677296  0.931115  0  2.200284  0
Zn  Zn3  1  0.57688718  0.86377926  0.46739921  1  0  1.129685  0  1.727065  0  0  0.963234  0  2.162799  0  0  1.008991  0  2.108247  0  0  0.677274  0.931126  0  2.200289  0
H  H4  1  0.90520446  0.53887400  0.13717505  1  0  0.415247  0  0.9028  0  0  0.379465  0  0.974504  0  0  0.391985  0  0.95669  0  0  0.288958  0.370712  0  0.986934  0
H  H5  1  0.59478443  0.03887047  0.36282572  1  0  0.415248  0  0.902792  0  0  0.379449  0  0.974524  0  0  0.391972  0  0.956699  0  0  0.288941  0.370699  0  0.98695  0
H  H6  1  0.09478626  0.46111952  0.86282542  1  0  0.41529  0  0.902716  0  0  0.379461  0  0.974493  0  0  0.391983  0  0.956673  0  0  0.288959  0.370708  0  0.986924  0
H  H7  1  0.40521765  0.96112831  0.63717504  1  0  0.415363  0  0.902615  0  0  0.379491  0  0.974456  0  0  0.392014  0  0.956632  0  0  0.288962  0.37074  0  0.98688  0
H  H8  1  0.64750479  0.56881865  0.06903671  1  0  0.43993  0  0.857329  0  0  0.406022  0  0.923256  0  0  0.418309  0  0.905712  0  0  0.29569  0.397364  0  0.935594  0
H  H9  1  0.85248566  0.06881884  0.43095974  1  0  0.439968  0  0.85729  0  0  0.406054  0  0.923221  0  0  0.418357  0  0.905656  0  0  0.295703  0.397371  0  0.935589  0
H  H10  1  0.35248593  0.43117575  0.93096376  1  0  0.439965  0  0.85729  0  0  0.406038  0  0.923236  0  0  0.418346  0  0.905666  0  0  0.295707  0.397356  0  0.935602  0
H  H11  1  0.14751650  0.93117906  0.56903738  1  0  0.440043  0  0.857188  0  0  0.406081  0  0.923186  0  0  0.418375  0  0.905631  0  0  0.295705  0.397397  0  0.935555  0
H  H12  1  0.91091919  0.05539338  0.21203651  1  0  0.120334  0  0.94641  0  0  0.129022  0  1.005895  0  0  0.133018  0  1.002634  0  0  0.114935  0.126042  0  1.008408  0
H  H13  1  0.58908660  0.55540037  0.28796033  1  0  0.12033  0  0.94633  0  0  0.128992  0  1.005852  0  0  0.13299  0  1.002589  0  0  0.114912  0.126011  0  1.008361  0
H  H14  1  0.08909992  0.94460627  0.78796541  1  0  0.12034  0  0.946379  0  0  0.129062  0  1.005843  0  0  0.133058  0  1.002584  0  0  0.114967  0.12608  0  1.008353  0
H  H15  1  0.41091362  0.44460979  0.71203893  1  0  0.12035  0  0.946448  0  0  0.129038  0  1.005915  0  0  0.133031  0  1.002658  0  0  0.11495  0.126057  0  1.008428  0
H  H16  1  0.61773586  0.02154654  0.06735192  1  0  0.10376  0  0.959572  0  0  0.113006  0  1.023979  0  0  0.11582  0  1.022842  0  0  0.109903  0.111013  0  1.024885  0
H  H17  1  0.88226087  0.52154842  0.43264832  1  0  0.103718  0  0.959595  0  0  0.112972  0  1.024  0  0  0.115786  0  1.022862  0  0  0.10989  0.110979  0  1.024903  0
H  H18  1  0.38228322  0.97845486  0.93265147  1  0  0.103711  0  0.959624  0  0  0.11297  0  1.024036  0  0  0.115785  0  1.022902  0  0  0.109875  0.110977  0  1.024938  0
H  H19  1  0.11773173  0.47845211  0.56735293  1  0  0.103731  0  0.959591  0  0  0.112976  0  1.024014  0  0  0.115789  0  1.02288  0  0  0.109879  0.110984  0  1.02492  0
H  H20  1  0.68457777  0.84315323  0.96164074  1  0  0.088569  0  0.934692  0  0  0.098074  0  0.997935  0  0  0.101219  0  0.994758  0  0  0.120921  0.095685  0  1.000425  0
H  H21  1  0.81541809  0.34315785  0.53836125  1  0  0.088556  0  0.934685  0  0  0.098067  0  0.997936  0  0  0.101213  0  0.994759  0  0  0.120932  0.09568  0  1.000424  0
H  H22  1  0.31542237  0.15684555  0.03836216  1  0  0.088648  0  0.934821  0  0  0.098142  0  0.998081  0  0  0.10129  0  0.994897  0  0  0.120966  0.095755  0  1.00057  0
H  H23  1  0.18457834  0.65684005  0.46163792  1  0  0.088643  0  0.93479  0  0  0.098136  0  0.99805  0  0  0.101284  0  0.994867  0  0  0.120962  0.095748  0  1.000541  0
H  H24  1  0.22584476  0.73900033  0.80795049  1  0  0.444267  0  0.852474  0  0  0.413188  0  0.916191  0  0  0.423479  0  0.901273  0  0  0.298942  0.405932  0  0.926706  0
H  H25  1  0.27416041  0.23899807  0.69204991  1  0  0.44437  0  0.85235  0  0  0.413199  0  0.916194  0  0  0.423491  0  0.901273  0  0  0.298944  0.405945  0  0.926704  0
H  H26  1  0.77415735  0.26100370  0.19204882  1  0  0.444228  0  0.85253  0  0  0.413142  0  0.916262  0  0  0.423435  0  0.901339  0  0  0.298917  0.405885  0  0.926777  0
H  H27  1  0.72583035  0.76100158  0.30794838  1  0  0.444334  0  0.852387  0  0  0.413152  0  0.916248  0  0  0.423444  0  0.901327  0  0  0.298917  0.405899  0  0.926758  0
H  H28  1  0.48228553  0.69159780  0.86339163  1  0  0.424652  0  0.877644  0  0  0.391002  0  0.945651  0  0  0.402034  0  0.929717  0  0  0.288326  0.383238  0  0.95685  0
H  H29  1  0.01771651  0.19160320  0.63660939  1  0  0.424704  0  0.877587  0  0  0.391072  0  0.945573  0  0  0.402103  0  0.929639  0  0  0.288355  0.383304  0  0.95678  0
H  H30  1  0.51771649  0.30840185  0.13661205  1  0  0.424671  0  0.87761  0  0  0.391019  0  0.945634  0  0  0.402052  0  0.929695  0  0  0.288332  0.383256  0  0.956834  0
H  H31  1  0.98227615  0.80839645  0.36338895  1  0  0.424657  0  0.877659  0  0  0.391027  0  0.945637  0  0  0.402061  0  0.929701  0  0  0.288332  0.383263  0  0.956838  0
C  C32  1  0.15725671  0.80351889  0.12580360  1  0  0.081221  0  3.694891  0  0  0.074853  0  3.936437  0  0  0.077196  0  3.954862  0  0  0.115765  0.073138  0  3.924247  0
C  C33  1  0.34273615  0.30352173  0.37420071  1  0  0.081234  0  3.694969  0  0  0.074936  0  3.936438  0  0  0.077276  0  3.954866  0  0  0.115855  0.073222  0  3.924255  0
C  C34  1  0.84275859  0.19648427  0.87419896  1  0  0.081376  0  3.694731  0  0  0.075007  0  3.93629  0  0  0.077349  0  3.954716  0  0  0.115786  0.073287  0  3.924107  0
C  C35  1  0.65725265  0.69648406  0.62580117  1  0  0.081399  0  3.694944  0  0  0.075064  0  3.936448  0  0  0.077404  0  3.954881  0  0  0.115837  0.073354  0  3.92426  0
C  C36  1  0.12910603  0.89884273  0.18860699  1  0  -0.089568  0  3.684135  0  0  -0.072068  0  3.921461  0  0  -0.079588  0  3.940306  0  0  0.005013  -0.067497  0  3.909257  0
C  C37  1  0.37088363  0.39884637  0.31139510  1  0  -0.089456  0  3.683895  0  0  -0.072012  0  3.921241  0  0  -0.07953  0  3.940086  0  0  0.00503  -0.067451  0  3.909055  0
C  C38  1  0.87090359  0.10115867  0.81139543  1  0  -0.089646  0  3.684052  0  0  -0.072121  0  3.9214  0  0  -0.079642  0  3.940246  0  0  0.005026  -0.067542  0  3.909186  0
C  C39  1  0.62911095  0.60115766  0.68860183  1  0  -0.089595  0  3.684192  0  0  -0.072219  0  3.921588  0  0  -0.079746  0  3.940442  0  0  0.004989  -0.067664  0  3.909403  0
C  C40  1  0.93389286  0.97886139  0.16596484  1  0  0.001637  0  3.637969  0  0  -0.027746  0  3.889563  0  0  -0.023362  0  3.903762  0  0  -0.054463  -0.030478  0  3.880161  0
C  C41  1  0.56610690  0.47886406  0.33403277  1  0  0.001506  0  3.637788  0  0  -0.027821  0  3.889376  0  0  -0.023438  0  3.903573  0  0  -0.054479  -0.030547  0  3.879968  0
C  C42  1  0.06611865  0.02114089  0.83403835  1  0  0.001677  0  3.638022  0  0  -0.027764  0  3.889685  0  0  -0.023383  0  3.903889  0  0  -0.054505  -0.030496  0  3.880275  0
C  C43  1  0.43389337  0.52114085  0.66596358  1  0  0.001586  0  3.638017  0  0  -0.027737  0  3.889576  0  0  -0.023356  0  3.903786  0  0  -0.054475  -0.030464  0  3.880176  0
C  C44  1  0.77078192  0.96010829  0.08451223  1  0  -0.088784  0  3.71295  0  0  -0.109272  0  3.979749  0  0  -0.114226  0  3.999866  0  0  -0.075051  -0.106187  0  3.966304  0
C  C45  1  0.72921432  0.46011230  0.41548528  1  0  -0.088611  0  3.712714  0  0  -0.109126  0  3.979519  0  0  -0.114075  0  3.99963  0  0  -0.074963  -0.106039  0  3.966068  0
C  C46  1  0.22923723  0.03989574  0.91548752  1  0  -0.088728  0  3.713073  0  0  -0.109253  0  3.97994  0  0  -0.114212  0  4.00006  0  0  -0.075016  -0.106168  0  3.966495  0
C  C47  1  0.27076501  0.53989698  0.58451636  1  0  -0.088745  0  3.712937  0  0  -0.109264  0  3.979731  0  0  -0.114221  0  3.999851  0  0  -0.075089  -0.10618  0  3.966287  0
C  C48  1  0.80747569  0.86249053  0.02630165  1  0  0.132852  0  3.687951  0  0  0.097119  0  3.950256  0  0  0.103716  0  3.967124  0  0  0.050845  0.092743  0  3.938902  0
C  C49  1  0.69253135  0.36249551  0.47369900  1  0  0.132988  0  3.687317  0  0  0.097243  0  3.949687  0  0  0.103842  0  3.966546  0  0  0.050896  0.092867  0  3.938337  0
C  C50  1  0.19254533  0.13751087  0.97369960  1  0  0.132884  0  3.687667  0  0  0.097182  0  3.949999  0  0  0.103785  0  3.966852  0  0  0.0509  0.092802  0  3.938657  0
C  C51  1  0.30745558  0.63751202  0.52630137  1  0  0.132852  0  3.687524  0  0  0.097151  0  3.949841  0  0  0.103752  0  3.966696  0  0  0.050899  0.092771  0  3.938495  0
C  C52  1  0.37512164  0.71750883  0.13860715  1  0  0.630043  0  3.908436  0  0  0.570301  0  4.217699  0  0  0.603373  0  4.210287  0  0  0.21637  0.547934  0  4.222011  0
C  C53  1  0.12487614  0.21751135  0.36140162  1  0  0.629976  0  3.908571  0  0  0.570241  0  4.217803  0  0  0.603313  0  4.210397  0  0  0.216409  0.547877  0  4.222117  0
C  C54  1  0.62488223  0.28249257  0.86139876  1  0  0.629994  0  3.908435  0  0  0.570249  0  4.217707  0  0  0.603318  0  4.210303  0  0  0.216454  0.547884  0  4.222022  0
C  C55  1  0.87513906  0.78248392  0.63860603  1  0  0.6301  0  3.908593  0  0  0.570389  0  4.217725  0  0  0.60346  0  4.210321  0  0  0.216445  0.548022  0  4.222038  0
C  C56  1  0.30472471  0.92539370  0.27616311  1  0  0.682982  0  3.874742  0  0  0.619507  0  4.185163  0  0  0.656071  0  4.174144  0  0  0.223235  0.594577  0  4.192135  0
C  C57  1  0.19526272  0.42539515  0.22383675  1  0  0.682821  0  3.874768  0  0  0.619362  0  4.18519  0  0  0.655928  0  4.174164  0  0  0.223151  0.594437  0  4.192162  0
C  C58  1  0.69528872  0.07460770  0.72383868  1  0  0.683008  0  3.87469  0  0  0.619506  0  4.185128  0  0  0.65607  0  4.174112  0  0  0.223211  0.594571  0  4.192103  0
C  C59  1  0.80473380  0.57459924  0.77615804  1  0  0.682976  0  3.874642  0  0  0.619568  0  4.18491  0  0  0.656138  0  4.173896  0  0  0.223329  0.594641  0  4.191881  0
N  N60  1  0.99736129  0.78710484  0.04671395  1  0  -0.334923  0  3.31079  0  0  -0.263224  0  3.579133  0  0  -0.280207  0  3.595427  0  0  -0.319439  -0.251689  0  3.568085  0
N  N61  1  0.50264300  0.28710856  0.45328806  1  0  -0.335124  0  3.310458  0  0  -0.263454  0  3.578837  0  0  -0.280435  0  3.595127  0  0  -0.319574  -0.251918  0  3.567793  0
N  N62  1  0.00265405  0.21289744  0.95328716  1  0  -0.33516  0  3.310422  0  0  -0.263484  0  3.578828  0  0  -0.280466  0  3.595111  0  0  -0.319583  -0.251951  0  3.567795  0
N  N63  1  0.49735336  0.71289635  0.54671474  1  0  -0.335054  0  3.310371  0  0  -0.263409  0  3.578789  0  0  -0.280391  0  3.595076  0  0  -0.319531  -0.251875  0  3.567744  0
O  O64  1  0.37750797  0.63415994  0.07534239  1  0  -0.636942  0  2.090872  0  0  -0.556088  0  2.332751  0  0  -0.585277  0  2.322016  0  0  -0.30891  -0.535842  0  2.339616  0
O  O65  1  0.12248169  0.13416248  0.42465813  1  0  -0.636929  0  2.090946  0  0  -0.55604  0  2.332784  0  0  -0.585229  0  2.322044  0  0  -0.30892  -0.535784  0  2.339649  0
O  O66  1  0.62248464  0.36583971  0.92465814  1  0  -0.63698  0  2.091056  0  0  -0.556083  0  2.332906  0  0  -0.585278  0  2.322171  0  0  -0.308929  -0.535829  0  2.339771  0
O  O67  1  0.87752430  0.86583017  0.57533691  1  0  -0.637142  0  2.09084  0  0  -0.556126  0  2.332549  0  0  -0.585318  0  2.321811  0  0  -0.308901  -0.535871  0  2.339414  0
O  O68  1  0.54099711  0.73271814  0.20584562  1  0  -0.595744  0  2.015077  0  0  -0.544677  0  2.24614  0  0  -0.568523  0  2.239109  0  0  -0.299694  -0.528032  0  2.250473  0
O  O69  1  0.95898905  0.23271892  0.29415444  1  0  -0.595668  0  2.014894  0  0  -0.544712  0  2.246049  0  0  -0.568563  0  2.239022  0  0  -0.299743  -0.528055  0  2.250369  0
O  O70  1  0.45899742  0.26727538  0.79415422  1  0  -0.595707  0  2.014839  0  0  -0.544655  0  2.245911  0  0  -0.56851  0  2.238885  0  0  -0.299737  -0.527995  0  2.250216  0
O  O71  1  0.04102464  0.76727723  0.70583497  1  0  -0.59574  0  2.015318  0  0  -0.544798  0  2.246417  0  0  -0.568649  0  2.239385  0  0  -0.299801  -0.52815  0  2.250744  0
O  O72  1  0.27928783  0.86664724  0.35512548  1  0  -0.656818  0  2.03617  0  0  -0.576592  0  2.280735  0  0  -0.605954  0  2.266716  0  0  -0.309969  -0.556137  0  2.289862  0
O  O73  1  0.22070046  0.36665036  0.14487364  1  0  -0.656812  0  2.036357  0  0  -0.576531  0  2.280841  0  0  -0.605904  0  2.266846  0  0  -0.309936  -0.556083  0  2.289971  0
O  O74  1  0.72071809  0.13334803  0.64487319  1  0  -0.656885  0  2.036312  0  0  -0.576663  0  2.280897  0  0  -0.60602  0  2.266867  0  0  -0.310015  -0.556206  0  2.290027  0
O  O75  1  0.77929217  0.63333790  0.85512615  1  0  -0.6569  0  2.036389  0  0  -0.57658  0  2.280813  0  0  -0.605917  0  2.26673  0  0  -0.310029  -0.556144  0  2.289974  0
O  O76  1  0.45216460  0.01043545  0.26617084  1  0  -0.581426  0  1.985396  0  0  -0.526887  0  2.208929  0  0  -0.552708  0  2.199859  0  0  -0.294924  -0.508783  0  2.214618  0
O  O77  1  0.04781922  0.51044166  0.23383020  1  0  -0.581364  0  1.985283  0  0  -0.526849  0  2.208809  0  0  -0.552677  0  2.199753  0  0  -0.294915  -0.50874  0  2.214495  0
O  O78  1  0.54785068  0.98955982  0.73383317  1  0  -0.581427  0  1.985209  0  0  -0.526831  0  2.20877  0  0  -0.55265  0  2.199694  0  0  -0.294873  -0.508727  0  2.214458  0
O  O79  1  0.95216219  0.48955098  0.76616203  1  0  -0.581444  0  1.985271  0  0  -0.526931  0  2.208801  0  0  -0.552737  0  2.199688  0  0  -0.294967  -0.508825  0  2.21449  0
O  O80  1  0.82671177  0.53806567  0.06670104  1  0  -0.865094  0  2.019791  0  0  -0.789886  0  2.262889  0  0  -0.815651  0  2.223484  0  0  -0.563206  -0.771666  0  2.289936  0
O  O81  1  0.67327718  0.03806282  0.43329755  1  0  -0.865131  0  2.019772  0  0  -0.789925  0  2.262914  0  0  -0.815694  0  2.223478  0  0  -0.563203  -0.771688  0  2.290008  0
O  O82  1  0.17327898  0.46193836  0.93329798  1  0  -0.865164  0  2.019786  0  0  -0.78993  0  2.262972  0  0  -0.815716  0  2.223542  0  0  -0.563235  -0.771685  0  2.290055  0
O  O83  1  0.32672299  0.96193859  0.56670389  1  0  -0.865277  0  2.019601  0  0  -0.790018  0  2.262902  0  0  -0.815786  0  2.223493  0  0  -0.563236  -0.771774  0  2.289989  0
O  O84  1  0.31190818  0.72583236  0.87304704  1  0  -0.845803  0  1.879893  0  0  -0.788282  0  2.089853  0  0  -0.809652  0  2.055571  0  0  -0.58051  -0.77313  0  2.113425  0
O  O85  1  0.18809905  0.22583645  0.62695413  1  0  -0.845962  0  1.879714  0  0  -0.788367  0  2.089767  0  0  -0.809733  0  2.055487  0  0  -0.580561  -0.773221  0  2.113354  0
O  O86  1  0.68809581  0.27416904  0.12695304  1  0  -0.845781  0  1.879896  0  0  -0.788239  0  2.089806  0  0  -0.809611  0  2.055543  0  0  -0.58051  -0.773093  0  2.113397  0
O  O87  1  0.81189358  0.77416671  0.37304566  1  0  -0.845874  0  1.87979  0  0  -0.788277  0  2.089867  0  0  -0.809652  0  2.055607  0  0  -0.58052  -0.773131  0  2.113453  0
