# generated using pymatgen
data_CoP2H9C3NO7
_symmetry_space_group_name_H-M   'P 1'
_cell_length_a   5.45975765
_cell_length_b   8.58040950
_cell_length_c   8.46228312
_cell_angle_alpha   92.08256146
_cell_angle_beta   89.41719820
_cell_angle_gamma   96.09951482
_symmetry_Int_Tables_number   1
_chemical_formula_structural   CoP2H9C3NO7
_chemical_formula_sum   'Co2 P4 H18 C6 N2 O14'
_cell_volume   393.91963915
_cell_formula_units_Z   2
loop_
 _symmetry_equiv_pos_site_id
 _symmetry_equiv_pos_as_xyz
  1  'x, y, z'
loop_
 _atom_site_type_symbol
 _atom_site_label
 _atom_site_symmetry_multiplicity
 _atom_site_fract_x
 _atom_site_fract_y
 _atom_site_fract_z
 _atom_site_occupancy
 _atom_site_hle17_ddec_charge
 _atom_site_hle17_ddec_spin_density
 _atom_site_hle17_ddec_sum_bond_order
 _atom_site_hle17_magmom
 _atom_site_hse06_10hf_ddec_charge
 _atom_site_hse06_10hf_ddec_spin_density
 _atom_site_hse06_10hf_ddec_sum_bond_order
 _atom_site_hse06_10hf_magmom
 _atom_site_hse06_ddec_charge
 _atom_site_hse06_ddec_spin_density
 _atom_site_hse06_ddec_sum_bond_order
 _atom_site_hse06_magmom
 _atom_site_pbe_cm5_charge
 _atom_site_pbe_ddec_charge
 _atom_site_pbe_ddec_spin_density
 _atom_site_pbe_ddec_sum_bond_order
 _atom_site_pbe_magmom
Co  Co0  1  0.83847825  0.90415926  0.13373187  1  1.196185  -2.837205  1.760384  -2.615  1.167721  -2.843744  2.14658  -2.684  1.242225  -2.889971  2.078222  -2.752  0.663083  1.102223  -2.793354  2.200837  -2.615
Co  Co1  1  0.16152726  0.09584072  0.86626832  1  1.196226  2.837209  1.760293  2.615  1.167754  2.843743  2.14648  2.684  1.242275  2.889969  2.078126  2.752  0.663109  1.102273  2.793355  2.200735  2.615
P  P2  1  0.28971601  0.87461789  0.33626814  1  1.449834  -0.004085  4.725421  -0.002  1.292686  -0.005932  5.22884  -0.004  1.342782  -0.004457  5.192759  -0.003  0.366764  1.256809  -0.007606  5.252415  -0.005
P  P3  1  0.71028608  0.12538217  0.66373062  1  1.449835  0.004088  4.725383  0.002  1.292704  0.005933  5.228793  0.004  1.342795  0.004463  5.19272  0.003  0.366786  1.256825  0.007606  5.252376  0.005
P  P4  1  0.30444780  0.75073722  0.00105949  1  1.435023  -0.000692  4.85601  0.0  1.276975  -0.001745  5.361206  -0.001  1.329419  -0.001218  5.326345  -0.001  0.343241  1.237797  -0.002307  5.385794  -0.001
P  P5  1  0.69555562  0.24926046  0.99893928  1  1.434926  0.00069  4.856033  0.0  1.27693  0.001746  5.361176  0.001  1.329375  0.001227  5.326302  0.001  0.343198  1.237731  0.002307  5.385802  0.001
H  H6  1  0.26239879  0.25739712  0.19500500  1  0.343467  -7.8e-05  0.864587  0.0  0.323834  -7.5e-05  0.924196  0.0  0.331811  -0.0001  0.918281  0.0  0.312915  0.318158  -4.1e-05  0.928469  0.0
H  H7  1  0.73760472  0.74260403  0.80499748  1  0.343476  7.9e-05  0.864561  0.0  0.323821  7.5e-05  0.924194  0.0  0.331797  0.000101  0.918278  0.0  0.312891  0.318158  4.1e-05  0.928437  0.0
H  H8  1  0.09832000  0.21041049  0.35774980  1  0.346709  9.9e-05  0.842073  0.0  0.326815  0.000123  0.89971  0.0  0.334292  0.000133  0.893958  0.0  0.321204  0.322785  9.6e-05  0.902379  0.0
H  H9  1  0.90167302  0.78958974  0.64224836  1  0.346723  -9.7e-05  0.842045  0.0  0.326788  -0.000123  0.899738  0.0  0.334266  -0.000134  0.893987  0.0  0.321191  0.32275  -9.6e-05  0.902407  0.0
H  H10  1  0.34863660  0.90036356  0.59127121  1  0.442184  -9.4e-05  0.850324  0.0  0.411215  -0.000177  0.918265  0.0  0.422724  -0.000177  0.901585  0.0  0.311496  0.402549  -0.00018  0.931187  0.0
H  H11  1  0.65136730  0.09963646  0.40872768  1  0.442173  9.4e-05  0.850322  0.0  0.41121  0.000177  0.918262  0.0  0.42272  0.000178  0.90158  0.0  0.311504  0.402545  0.00018  0.931183  0.0
H  H12  1  0.00650217  0.66943331  0.77501383  1  0.336402  -1.3e-05  0.905673  0.0  0.313465  -1.3e-05  0.96813  0.0  0.322126  -1.1e-05  0.961973  0.0  0.307063  0.307225  -1.7e-05  0.972899  0.0
H  H13  1  0.99349872  0.33056568  0.22498005  1  0.336394  1.3e-05  0.905743  0.0  0.313463  1.3e-05  0.968195  0.0  0.322125  1e-05  0.962037  0.0  0.307074  0.307229  1.7e-05  0.97296  0.0
H  H14  1  0.55901914  0.61788040  0.28507617  1  0.102351  0.000168  0.959646  0.0  0.115336  0.00011  1.028535  0.0  0.116225  0.000141  1.028242  0.0  0.107419  0.113389  5.8e-05  1.029799  0.0
H  H15  1  0.44097922  0.38211954  0.71493305  1  0.102371  -0.000169  0.959619  0.0  0.115323  -0.000109  1.028523  0.0  0.116214  -0.000141  1.02823  0.0  0.107425  0.113378  -5.8e-05  1.02979  0.0
H  H16  1  0.41615410  0.49838016  0.13572467  1  0.104042  -1.7e-05  0.961721  0.0  0.116565  -2.2e-05  1.027297  0.0  0.118572  -2.6e-05  1.026359  0.0  0.10811  0.114129  -1.5e-05  1.028596  0.0
H  H17  1  0.58385215  0.50161971  0.86428151  1  0.104104  1.6e-05  0.961651  0.0  0.116595  2.2e-05  1.027243  0.0  0.118602  2.5e-05  1.026305  0.0  0.108116  0.114159  1.5e-05  1.02854  0.0
H  H18  1  0.44047757  0.39958056  0.42463942  1  0.069842  3.5e-05  0.94859  0.0  0.08534  3.5e-05  1.012989  0.0  0.085845  2e-05  1.013324  0.0  0.111876  0.084816  6.9e-05  1.012833  0.0
H  H19  1  0.55950229  0.60042199  0.57537339  1  0.069911  -3.4e-05  0.94849  0.0  0.085449  -3.6e-05  1.012831  0.0  0.085953  -2e-05  1.013161  0.0  0.111881  0.084923  -6.9e-05  1.01268  0.0
H  H20  1  0.16260639  0.48708837  0.45597197  1  0.068915  -1.3e-05  0.937265  0.0  0.083615  -7e-06  1.00068  0.0  0.084694  -8e-06  1.00002  0.0  0.108191  0.082825  -1.9e-05  1.000961  0.0
H  H21  1  0.83736942  0.51291456  0.54402274  1  0.068935  1.3e-05  0.937361  0.0  0.083618  8e-06  1.000783  0.0  0.084694  9e-06  1.000121  0.0  0.108215  0.082829  1.9e-05  1.001064  0.0
H  H22  1  0.90217964  0.56548668  0.15217930  1  0.412578  -5e-06  0.870449  0.0  0.384741  -8e-05  0.94395  0.0  0.395817  -2e-05  0.932095  0.0  0.305227  0.37679  -7.7e-05  0.952408  0.0
H  H23  1  0.09782109  0.43451460  0.84781823  1  0.41268  5e-06  0.87032  0.0  0.384799  8e-05  0.943881  0.0  0.395874  1.9e-05  0.932026  0.0  0.305249  0.376847  7.7e-05  0.952342  0.0
C  C24  1  0.22563750  0.69715777  0.20773794  1  -0.229982  0.004055  3.662343  0.005  -0.193973  0.002455  3.917139  0.003  -0.203271  0.001988  3.930182  0.002  0.050666  -0.186679  0.002418  3.906131  0.003
C  C25  1  0.77436413  0.30284110  0.79226194  1  -0.229896  -0.004054  3.662341  -0.005  -0.193929  -0.002454  3.91713  -0.003  -0.203217  -0.001995  3.930155  -0.002  0.050626  -0.186637  -0.002418  3.906132  -0.003
C  C26  1  0.37829703  0.56293906  0.24603959  1  -0.176488  0.000153  3.668664  0.0  -0.224057  0.000133  3.920264  0.0  -0.224664  0.000188  3.933487  0.0  -0.165351  -0.223166  7.7e-05  3.911188  0.0
C  C27  1  0.62170219  0.43706095  0.75396493  1  -0.176669  -0.000153  3.668696  0.0  -0.224135  -0.000133  3.920177  0.0  -0.22475  -0.000183  3.933399  0.0  -0.165376  -0.223235  -7.7e-05  3.911087  0.0
C  C28  1  0.28369748  0.44129987  0.36561683  1  0.103584  0.00023  3.526734  0.0  0.041226  0.000162  3.792284  0.0  0.046181  0.00011  3.801226  0.0  -0.059603  0.038293  0.000194  3.785641  0.0
C  C29  1  0.71629131  0.55870153  0.63438584  1  0.103515  -0.000229  3.526771  0.0  0.041144  -0.000162  3.792231  0.0  0.046118  -0.000114  3.801152  0.0  -0.059616  0.0382  -0.000194  3.785588  0.0
N  N30  1  0.15139210  0.30135694  0.28417633  1  -0.50698  0.000134  3.173419  0.0  -0.453168  0.000135  3.38429  0.0  -0.46883  0.000113  3.381771  0.0  -0.62045  -0.443182  0.000166  3.385486  0.0
N  N31  1  0.84860413  0.69864319  0.71582442  1  -0.506965  -0.000139  3.173342  0.0  -0.453119  -0.000134  3.384244  0.0  -0.468795  -0.000113  3.381746  0.0  -0.620399  -0.443116  -0.000166  3.385406  0.0
O  O32  1  0.07636826  0.97308385  0.31379518  1  -0.823554  -0.036575  2.014542  -0.058  -0.768581  -0.027881  2.30036  -0.039  -0.802758  -0.022067  2.281282  -0.03  -0.364821  -0.741826  -0.033145  2.312849  -0.047
O  O33  1  0.92363544  0.02691616  0.68620488  1  -0.823566  0.036575  2.014553  0.058  -0.768589  0.027879  2.300385  0.039  -0.802768  0.022064  2.281315  0.03  -0.364816  -0.741833  0.033145  2.312882  0.047
O  O34  1  0.28796732  0.81162387  0.51147791  1  -0.729941  -0.002491  1.969279  -0.004  -0.65406  -0.002283  2.190316  -0.004  -0.674874  -0.001626  2.166341  -0.003  -0.383773  -0.639512  -0.003045  2.207545  -0.005
O  O35  1  0.71203658  0.18837615  0.48852098  1  -0.729948  0.00249  1.969301  0.004  -0.654071  0.002283  2.190323  0.004  -0.674896  0.001626  2.166366  0.003  -0.383804  -0.639519  0.003045  2.207548  0.005
O  O36  1  0.54630247  0.95616791  0.29877308  1  -0.855088  -0.019502  2.051076  -0.034  -0.789851  -0.017235  2.326012  -0.026  -0.819566  -0.014331  2.301622  -0.021  -0.356398  -0.767115  -0.019862  2.344591  -0.03
O  O37  1  0.45370140  0.04383096  0.70122457  1  -0.855086  0.0195  2.05107  0.034  -0.789855  0.017233  2.326008  0.026  -0.819569  0.014329  2.301625  0.021  -0.356381  -0.767121  0.019862  2.344595  0.03
O  O38  1  0.15043795  0.88971765  0.97590981  1  -0.870649  0.008855  2.178324  0.012  -0.821567  0.006024  2.501757  0.007  -0.862869  0.004174  2.478961  0.004  -0.366607  -0.786694  0.008256  2.516178  0.011
O  O39  1  0.84956753  0.11028117  0.02408914  1  -0.870602  -0.008854  2.178263  -0.012  -0.821541  -0.006024  2.501731  -0.007  -0.86284  -0.004176  2.478917  -0.004  -0.366584  -0.786658  -0.008254  2.516139  -0.011
O  O40  1  0.58530132  0.78775654  0.98740871  1  -0.835033  -0.03578  2.060507  -0.057  -0.775526  -0.027146  2.352073  -0.038  -0.809732  -0.021834  2.330253  -0.029  -0.36263  -0.747876  -0.032067  2.366943  -0.046
O  O41  1  0.41470557  0.21224337  0.01259395  1  -0.834932  0.035777  2.060486  0.057  -0.775502  0.027144  2.352093  0.038  -0.809708  0.021834  2.330287  0.029  -0.362597  -0.747833  0.032066  2.366954  0.046
O  O42  1  0.21028370  0.61090078  0.89366111  1  -0.821025  -0.002086  1.977136  -0.004  -0.736662  -0.001353  2.21253  -0.003  -0.763911  -0.001009  2.197145  -0.002  -0.36867  -0.715869  -0.001353  2.223626  -0.002
O  O43  1  0.78972834  0.38910034  0.10633481  1  -0.821033  0.002085  1.977149  0.004  -0.736683  0.001353  2.212497  0.003  -0.763936  0.001011  2.197114  0.002  -0.368711  -0.715891  0.001353  2.223592  0.002
O  O44  1  0.96027585  0.66464656  0.21519258  1  -0.562411  -0.016181  2.173028  -0.027  -0.522087  -0.016342  2.417391  -0.026  -0.542237  -0.013436  2.406896  -0.021  -0.368969  -0.505892  -0.01942  2.424204  -0.03
O  O45  1  0.03972421  0.33535352  0.78480724  1  -0.562536  0.016182  2.172972  0.027  -0.522179  0.01634  2.417402  0.026  -0.54233  0.013435  2.406906  0.021  -0.368963  -0.505983  0.019419  2.424219  0.03
