# generated using pymatgen
data_MnH6C12(NO2)2
_symmetry_space_group_name_H-M   'P 1'
_cell_length_a   9.01381657
_cell_length_b   9.06345091
_cell_length_c   9.52413812
_cell_angle_alpha   115.62316127
_cell_angle_beta   115.45679659
_cell_angle_gamma   95.27092823
_symmetry_Int_Tables_number   1
_chemical_formula_structural   MnH6C12(NO2)2
_chemical_formula_sum   'Mn2 H12 C24 N4 O8'
_cell_volume   595.44806909
_cell_formula_units_Z   2
loop_
 _symmetry_equiv_pos_site_id
 _symmetry_equiv_pos_as_xyz
  1  'x, y, z'
loop_
 _atom_site_type_symbol
 _atom_site_label
 _atom_site_symmetry_multiplicity
 _atom_site_fract_x
 _atom_site_fract_y
 _atom_site_fract_z
 _atom_site_occupancy
 _atom_site_hle17_ddec_charge
 _atom_site_hle17_ddec_spin_density
 _atom_site_hle17_ddec_sum_bond_order
 _atom_site_hle17_magmom
 _atom_site_hse06_10hf_ddec_charge
 _atom_site_hse06_10hf_ddec_spin_density
 _atom_site_hse06_10hf_ddec_sum_bond_order
 _atom_site_hse06_10hf_magmom
 _atom_site_hse06_ddec_charge
 _atom_site_hse06_ddec_spin_density
 _atom_site_hse06_ddec_sum_bond_order
 _atom_site_hse06_magmom
 _atom_site_pbe_cm5_charge
 _atom_site_pbe_ddec_charge
 _atom_site_pbe_ddec_spin_density
 _atom_site_pbe_ddec_sum_bond_order
 _atom_site_pbe_magmom
Mn  Mn0  1  0.71644147  0.96645971  0.93289110  1  1.152037  -4.7862  1.81986  -4.671  0.982734  -4.695898  2.337309  -4.511  1.037111  -4.751139  2.265285  -4.588  0.613969  0.944555  -4.627479  2.390432  -4.421
Mn  Mn1  1  0.28357626  0.03356125  0.06715197  1  1.151922  -4.786176  1.820287  -4.671  0.98276  -4.695827  2.337605  -4.511  1.037119  -4.751104  2.265588  -4.588  0.614019  0.944625  -4.627368  2.390659  -4.421
H  H2  1  0.40674366  0.72312995  0.22453226  1  0.118237  8.8e-05  0.940162  0.0  0.129169  -5.7e-05  0.996778  0.0  0.133121  3.9e-05  0.994607  0.0  0.113915  0.126217  -0.000167  0.998568  0.0
H  H3  1  0.68217727  0.49819864  0.77557096  1  0.118342  8.9e-05  0.93935  0.0  0.12913  -6.1e-05  0.996179  0.0  0.133071  3.6e-05  0.994029  0.0  0.11393  0.12618  -0.00017  0.997974  0.0
H  H4  1  0.59326537  0.27684947  0.77544384  1  0.118293  9.2e-05  0.940201  0.0  0.129148  -5.7e-05  0.996929  0.0  0.133095  3.9e-05  0.994759  0.0  0.113897  0.126195  -0.000167  0.998715  0.0
H  H5  1  0.31778832  0.50179684  0.22440797  1  0.118352  7.5e-05  0.939374  0.0  0.129193  -6e-05  0.99613  0.0  0.133135  3.7e-05  0.993975  0.0  0.113977  0.126241  -0.00017  0.997934  0.0
H  H6  1  0.90804014  0.11629883  0.52448900  1  0.115437  -2.3e-05  0.932792  0.0  0.126202  -0.000168  0.989999  0.0  0.12974  -8.9e-05  0.988787  0.0  0.113409  0.123561  -0.000259  0.991249  0.0
H  H7  1  0.88316052  0.59186466  0.47578918  1  0.115104  -2.1e-05  0.932496  0.0  0.1257  -0.000168  0.989968  0.0  0.129296  -8.8e-05  0.988656  0.0  0.113395  0.123029  -0.000258  0.991283  0.0
H  H8  1  0.09198149  0.88369869  0.47551754  1  0.115428  -2.9e-05  0.932903  0.0  0.126197  -0.000168  0.990094  0.0  0.129725  -8.9e-05  0.98888  0.0  0.113439  0.123557  -0.000259  0.991351  0.0
H  H9  1  0.11683222  0.40814485  0.52422436  1  0.115102  -2.9e-05  0.932399  0.0  0.125674  -0.000168  0.989918  0.0  0.12927  -8.8e-05  0.988606  0.0  0.11337  0.122998  -0.000258  0.991231  0.0
H  H10  1  0.94939186  0.12960905  0.80913527  1  0.098432  0.00032  0.97434  0.0  0.105135  -3.9e-05  1.035625  -0.001  0.108948  0.000155  1.032183  0.0  0.120615  0.102205  -0.000246  1.038344  -0.001
H  H11  1  0.63982028  0.32047599  0.19107554  1  0.098231  0.000313  0.974859  0.0  0.105079  -4.8e-05  1.03589  -0.001  0.108911  0.000147  1.032434  0.0  0.120703  0.102136  -0.000255  1.038611  -0.001
H  H12  1  0.05057924  0.87040202  0.19085866  1  0.098357  0.000321  0.97431  0.0  0.105097  -3.8e-05  1.035572  -0.001  0.108909  0.000155  1.03213  0.0  0.120604  0.102168  -0.000245  1.038298  -0.001
H  H13  1  0.36020531  0.67950846  0.80891983  1  0.098245  0.000314  0.975027  0.0  0.105101  -4.8e-05  1.036016  -0.001  0.108923  0.000146  1.032562  0.0  0.120721  0.102158  -0.000255  1.038737  -0.001
C  C14  1  0.56765736  0.81716594  0.51339250  1  0.167935  -0.000723  3.795447  -0.001  0.165102  -0.003703  4.041785  -0.003  0.170624  -0.002382  4.063606  -0.002  0.118385  0.161069  -0.005724  4.027678  -0.004
C  C15  1  0.55398559  0.30349784  0.48665929  1  0.168579  -0.000723  3.793653  -0.001  0.166917  -0.003735  4.038907  -0.003  0.172224  -0.002411  4.060983  -0.002  0.119754  0.163013  -0.005756  4.024681  -0.004
C  C16  1  0.43233782  0.18282268  0.48660495  1  0.168015  -0.000732  3.795301  -0.001  0.165176  -0.003713  4.041684  -0.003  0.170699  -0.002393  4.063506  -0.002  0.118417  0.161147  -0.005735  4.027572  -0.004
C  C17  1  0.44600935  0.69651826  0.51333687  1  0.16843  -0.000785  3.79421  -0.001  0.166744  -0.003727  4.039513  -0.003  0.17205  -0.002409  4.061593  -0.002  0.119632  0.162843  -0.005747  4.025278  -0.004
C  C18  1  0.53064990  0.80956125  0.35172597  1  -0.152723  -0.000763  3.694781  -0.001  -0.182204  -0.001754  3.941444  -0.001  -0.188097  -0.000751  3.961665  -0.001  -0.077341  -0.178405  -0.003102  3.928753  -0.002
C  C19  1  0.67881266  0.45753663  0.64841848  1  -0.15384  -0.000821  3.694131  -0.001  -0.18332  -0.001743  3.940898  -0.001  -0.189166  -0.000732  3.961192  -0.001  -0.077984  -0.179559  -0.003099  3.928167  -0.002
C  C20  1  0.46935702  0.19042599  0.64826513  1  -0.152809  -0.000776  3.69495  -0.001  -0.182201  -0.001742  3.941676  -0.001  -0.188094  -0.000738  3.961898  -0.001  -0.077289  -0.178399  -0.003093  3.928968  -0.002
C  C21  1  0.32116869  0.54247567  0.35157588  1  -0.153772  -0.0007  3.694213  -0.001  -0.183323  -0.001746  3.940975  -0.001  -0.189177  -0.000737  3.961288  -0.001  -0.078034  -0.179556  -0.003105  3.928246  -0.002
C  C22  1  0.65176934  0.91800720  0.35277714  1  8.7e-05  -0.000682  3.739533  -0.001  0.017435  -0.003416  3.978707  -0.003  0.016716  -0.001872  3.996449  -0.002  0.003789  0.016999  -0.006236  3.967887  -0.004
C  C23  1  0.79884055  0.56505617  0.64743136  1  0.00117  -0.000613  3.738827  -0.001  0.017928  -0.003449  3.978645  -0.003  0.01722  -0.001906  3.99639  -0.002  0.003768  0.017485  -0.006274  3.967819  -0.004
C  C24  1  0.34821748  0.08198941  0.64720136  1  0.000241  -0.000697  3.739666  -0.001  0.017473  -0.00343  3.978942  -0.003  0.016758  -0.001889  3.996684  -0.002  0.003746  0.01704  -0.006248  3.968106  -0.004
C  C25  1  0.20115412  0.43493119  0.35255276  1  0.000939  -0.000723  3.738743  -0.001  0.017726  -0.003443  3.978553  -0.003  0.017011  -0.001897  3.9963  -0.002  0.003713  0.017269  -0.006265  3.96774  -0.004
C  C26  1  0.80796017  0.03227176  0.51830851  1  -0.11858  -0.001471  3.69006  -0.002  -0.144086  -0.00281  3.945658  -0.002  -0.14847  -0.001359  3.963681  -0.001  -0.075558  -0.141828  -0.00538  3.934891  -0.004
C  C27  1  0.78933406  0.51393589  0.48193085  1  -0.117587  -0.001503  3.687222  -0.002  -0.14273  -0.002791  3.942915  -0.002  -0.147146  -0.001336  3.960862  -0.001  -0.075306  -0.140455  -0.005363  3.93221  -0.004
C  C28  1  0.19205016  0.96772845  0.48170406  1  -0.118557  -0.001405  3.690522  -0.001  -0.144026  -0.002806  3.946151  -0.002  -0.148396  -0.001342  3.964159  -0.001  -0.07557  -0.141763  -0.005369  3.935384  -0.004
C  C29  1  0.21066954  0.48606961  0.51808224  1  -0.117447  -0.001417  3.686693  -0.002  -0.142605  -0.002799  3.942388  -0.002  -0.14702  -0.001339  3.960337  -0.001  -0.075242  -0.140324  -0.005369  3.931676  -0.004
C  C30  1  0.83119135  0.04006789  0.67619993  1  0.141714  -0.000795  3.662087  -0.001  0.11141  -0.003682  3.922407  -0.003  0.118602  -0.002481  3.936516  -0.002  0.054561  0.106144  -0.00513  3.914055  -0.004
C  C31  1  0.65457765  0.36380858  0.32397060  1  0.140573  -0.000827  3.662949  -0.001  0.110291  -0.003749  3.923209  -0.003  0.117486  -0.002541  3.937331  -0.002  0.054229  0.105031  -0.005203  3.914852  -0.004
C  C32  1  0.16880565  0.95992594  0.32379832  1  0.141839  -0.000853  3.661431  -0.001  0.111527  -0.003691  3.921786  -0.003  0.118728  -0.002496  3.935892  -0.002  0.054619  0.106256  -0.005145  3.913445  -0.004
C  C33  1  0.34542255  0.63619437  0.67603167  1  0.140401  -0.000866  3.663361  -0.001  0.110152  -0.003734  3.923583  -0.003  0.117356  -0.002535  3.937708  -0.002  0.054103  0.1049  -0.005191  3.915217  -0.004
C  C34  1  0.60599324  0.91094883  0.17784424  1  0.657716  -0.013505  3.894044  -0.013  0.600902  -0.022333  4.194074  -0.019  0.636754  -0.016297  4.185518  -0.015  0.224324  0.576014  -0.028867  4.198458  -0.024
C  C35  1  0.92807207  0.73301080  0.82237085  1  0.656526  -0.013579  3.896104  -0.013  0.600076  -0.022395  4.195834  -0.02  0.635918  -0.016342  4.187255  -0.015  0.224637  0.575191  -0.028951  4.200224  -0.024
C  C36  1  0.39400057  0.08905676  0.82216706  1  0.657537  -0.013525  3.893556  -0.013  0.600801  -0.022321  4.193539  -0.019  0.636646  -0.016293  4.184985  -0.015  0.224244  0.575923  -0.028855  4.197911  -0.024
C  C37  1  0.07193826  0.26698941  0.17764172  1  0.65637  -0.013563  3.897058  -0.013  0.599943  -0.022405  4.196663  -0.02  0.635786  -0.016349  4.188084  -0.015  0.224577  0.575062  -0.02896  4.201051  -0.024
N  N38  1  0.71387786  0.93605032  0.67556972  1  -0.355285  -0.025705  3.184197  -0.015  -0.298377  -0.03179  3.460149  -0.018  -0.314731  -0.027745  3.47328  -0.014  -0.302148  -0.287469  -0.03731  3.452281  -0.023
N  N39  1  0.53788854  0.26031318  0.32450293  1  -0.354794  -0.025785  3.185892  -0.015  -0.298572  -0.031842  3.462206  -0.018  -0.314909  -0.027796  3.47542  -0.014  -0.302856  -0.287633  -0.037371  3.454202  -0.023
N  N40  1  0.28611172  0.06394365  0.32440775  1  -0.355464  -0.02569  3.183965  -0.015  -0.298589  -0.0318  3.459974  -0.018  -0.314947  -0.02776  3.473103  -0.014  -0.302289  -0.287685  -0.037318  3.452117  -0.023
N  N41  1  0.46209692  0.73967951  0.67547655  1  -0.354518  -0.025749  3.185946  -0.015  -0.298346  -0.031838  3.462337  -0.018  -0.314662  -0.027784  3.475493  -0.014  -0.302656  -0.28741  -0.037364  3.454327  -0.023
O  O42  1  0.72820372  0.93637316  0.14952095  1  -0.598117  -0.034275  2.013778  -0.025  -0.535632  -0.043305  2.274905  -0.03  -0.564846  -0.03782  2.261403  -0.025  -0.294229  -0.513428  -0.049001  2.282824  -0.036
O  O43  1  0.07868745  0.78679231  0.85079958  1  -0.597735  -0.034246  2.015345  -0.025  -0.535131  -0.043272  2.275725  -0.03  -0.564386  -0.0378  2.262301  -0.025  -0.294236  -0.512933  -0.048957  2.28365  -0.036
O  O44  1  0.27178045  0.06363644  0.85048917  1  -0.597957  -0.034238  2.013592  -0.025  -0.535512  -0.043294  2.274646  -0.03  -0.564753  -0.037813  2.261217  -0.025  -0.294123  -0.513321  -0.048985  2.282561  -0.036
O  O45  1  0.92135010  0.21320505  0.14921436  1  -0.597577  -0.03427  2.016056  -0.025  -0.534919  -0.043275  2.276352  -0.03  -0.564173  -0.037801  2.262925  -0.025  -0.29414  -0.512724  -0.048963  2.284285  -0.036
O  O46  1  0.44460657  0.87630018  0.06940364  1  -0.650854  -0.029257  2.102928  -0.015  -0.586726  -0.03889  2.380087  -0.021  -0.61717  -0.033734  2.364404  -0.017  -0.306698  -0.563711  -0.044723  2.389809  -0.027
O  O47  1  0.87508560  0.80685769  0.93068618  1  -0.650523  -0.029293  2.104986  -0.015  -0.586446  -0.038931  2.381765  -0.021  -0.616817  -0.033765  2.366005  -0.017  -0.307027  -0.563448  -0.044769  2.391506  -0.027
O  O48  1  0.55538497  0.12368845  0.93059864  1  -0.650986  -0.02927  2.103019  -0.015  -0.586792  -0.038896  2.380067  -0.021  -0.617233  -0.033735  2.364376  -0.017  -0.30672  -0.563783  -0.044732  2.389801  -0.027
O  O49  1  0.12493783  0.19315550  0.06932655  1  -0.650467  -0.029305  2.104902  -0.015  -0.586389  -0.038939  2.381613  -0.021  -0.61676  -0.033773  2.365858  -0.017  -0.307011  -0.563376  -0.044779  2.391334  -0.027
