# generated using pymatgen
data_MnH15C19N3O4
_symmetry_space_group_name_H-M   'P 1'
_cell_length_a   11.99370898
_cell_length_b   11.99853096
_cell_length_c   16.17019833
_cell_angle_alpha   102.94894499
_cell_angle_beta   111.14317314
_cell_angle_gamma   102.20087935
_symmetry_Int_Tables_number   1
_chemical_formula_structural   MnH15C19N3O4
_chemical_formula_sum   'Mn4 H60 C76 N12 O16'
_cell_volume   2002.91889884
_cell_formula_units_Z   4
loop_
 _symmetry_equiv_pos_site_id
 _symmetry_equiv_pos_as_xyz
  1  'x, y, z'
loop_
 _atom_site_type_symbol
 _atom_site_label
 _atom_site_symmetry_multiplicity
 _atom_site_fract_x
 _atom_site_fract_y
 _atom_site_fract_z
 _atom_site_occupancy
 _atom_site_pbe_bader_charge
 _atom_site_pbe_bader_spin_density
 _atom_site_pbe_cm5_charge
 _atom_site_pbe_ddec_charge
 _atom_site_pbe_ddec_spin_density
 _atom_site_pbe_ddec_sum_bond_order
 _atom_site_pbe_magmom
Mn  Mn0  1  0.61747212  0.61762453  0.45179770  1  1.486878  4.538522  0.60014  0.880207  4.671819  2.394054  4.454
Mn  Mn1  1  0.66574820  0.16562350  0.04824340  1  1.486819  4.537976  0.600419  0.880236  4.670382  2.395015  4.454
Mn  Mn2  1  0.38252636  0.38237489  0.54820281  1  1.486955  4.538501  0.600126  0.880195  4.671803  2.39408  4.454
Mn  Mn3  1  0.33425317  0.83437612  0.95175729  1  1.486782  4.537981  0.600391  0.880214  4.670383  2.395044  4.454
H  H4  1  0.04096677  0.18139447  0.46920713  1  0.519806  0.0003  0.294359  0.265452  -0.000163  1.01422  0.0
H  H5  1  0.21218324  0.57167416  0.03066301  1  0.500078  0.000304  0.294712  0.265795  -0.00016  1.014528  0.0
H  H6  1  0.95903387  0.81860711  0.53079284  1  0.519809  0.0003  0.29434  0.265425  -0.000163  1.014282  0.0
H  H7  1  0.78781745  0.42832538  0.96933791  1  0.500051  0.000304  0.294693  0.265773  -0.00016  1.01458  0.0
H  H8  1  0.90409575  0.99157601  0.46977805  1  0.070049  0.000479  0.100656  0.110843  0.000188  1.032716  0.0
H  H9  1  0.02159056  0.43431121  0.03017617  1  0.085813  0.000466  0.100572  0.110428  0.000188  1.034584  0.0
H  H10  1  0.09590538  0.00842426  0.53022240  1  0.070135  0.000479  0.100636  0.110843  0.000188  1.032702  0.0
H  H11  1  0.97840873  0.56569021  0.96982425  1  0.085992  0.000466  0.100575  0.110405  0.000188  1.034567  0.0
H  H12  1  0.55520655  0.80456034  0.22219333  1  0.113373  0.000554  0.099085  0.104194  -6.3e-05  1.072707  0.0
H  H13  1  0.08220463  0.33293684  0.27774664  1  0.110764  0.000556  0.098673  0.104334  -6.4e-05  1.072487  0.0
H  H14  1  0.44479187  0.19543961  0.77780802  1  0.113371  0.000554  0.09908  0.104198  -6.3e-05  1.072701  0.0
H  H15  1  0.91779428  0.66706331  0.72225341  1  0.111496  0.000556  0.098676  0.104365  -6.4e-05  1.072456  0.0
H  H16  1  0.77152023  0.15933862  0.25827992  1  0.094476  0.000115  0.107999  0.119631  -6.7e-05  1.046754  0.0
H  H17  1  0.40094904  0.51303774  0.24147984  1  0.074877  0.000118  0.108247  0.120508  -7.6e-05  1.047269  0.0
H  H18  1  0.22848076  0.84066272  0.74172223  1  0.094104  0.000115  0.10799  0.119599  -6.7e-05  1.046788  0.0
H  H19  1  0.59904957  0.48696060  0.75851898  1  0.074859  0.000118  0.108241  0.120493  -7.6e-05  1.047285  0.0
H  H20  1  0.53917499  0.95015368  0.68553464  1  0.049522  0.000781  0.108581  0.112549  0.00039  1.00058  0.0
H  H21  1  0.76416536  0.85313114  0.81445619  1  0.08566  0.000779  0.108212  0.112844  0.000389  1.000011  0.0
H  H22  1  0.46082364  0.04984916  0.31446423  1  0.049596  0.000781  0.108621  0.11257  0.00039  1.000534  0.0
H  H23  1  0.23583559  0.14686924  0.18554317  1  0.085673  0.000779  0.108202  0.112834  0.000389  1.000025  0.0
H  H24  1  0.96005695  0.26819821  0.31950602  1  0.099687  0.000479  0.10765  0.094881  -3.9e-05  1.018665  0.0
H  H25  1  0.44855814  0.64047789  0.18042101  1  0.066493  0.000479  0.107447  0.09485  -3.9e-05  1.01766  0.0
H  H26  1  0.03994288  0.73180136  0.68049403  1  0.099676  0.000479  0.107642  0.094876  -3.9e-05  1.01871  0.0
H  H27  1  0.55144194  0.35952103  0.81957929  1  0.066227  0.000479  0.107446  0.094833  -3.9e-05  1.01767  0.0
H  H28  1  0.07512707  0.35185206  0.43453359  1  0.077888  0.000608  0.119063  0.109648  0.000101  0.999404  0.0
H  H29  1  0.41734610  0.64046824  0.06534310  1  0.093385  0.000602  0.119373  0.109634  9.7e-05  0.999733  0.0
H  H30  1  0.92487185  0.64814808  0.56546646  1  0.077872  0.000608  0.119053  0.109652  0.000101  0.999399  0.0
H  H31  1  0.58265503  0.35953202  0.93465735  1  0.093372  0.000602  0.119365  0.109596  9.7e-05  0.999759  0.0
H  H32  1  0.79014964  0.59397130  0.34199283  1  0.093448  0.0012  0.115997  0.080243  0.000499  1.009783  0.001
H  H33  1  0.75200205  0.44789725  0.15824602  1  0.111071  0.001187  0.11624  0.081257  0.000495  1.009756  0.001
H  H34  1  0.20984805  0.40602761  0.65800597  1  0.093463  0.0012  0.116008  0.080262  0.000499  1.009782  0.001
H  H35  1  0.24799957  0.55210322  0.84175312  1  0.111179  0.001187  0.116208  0.08118  0.000495  1.009758  0.001
H  H36  1  0.82200210  0.27619902  0.48585219  1  0.077643  0.000548  0.101331  0.106238  0.000291  1.041674  0.0
H  H37  1  0.29031406  0.33633853  0.01386312  1  0.055528  0.000546  0.101497  0.106559  0.000292  1.040549  0.0
H  H38  1  0.17799791  0.72380044  0.51414895  1  0.077662  0.000548  0.101339  0.106266  0.000291  1.04167  0.0
H  H39  1  0.70968693  0.66365982  0.98613719  1  0.055513  0.000546  0.101488  0.106555  0.000292  1.040556  0.0
H  H40  1  0.93345095  0.47583351  0.32249608  1  0.072206  0.000819  0.108515  0.119566  0.00034  0.99623  0.0
H  H41  1  0.65345537  0.61073257  0.17775477  1  0.063595  0.000819  0.10859  0.119463  0.000339  0.995572  0.0
H  H42  1  0.06654827  0.52416545  0.67750336  1  0.072192  0.000819  0.108502  0.119548  0.00034  0.996225  0.0
H  H43  1  0.34654705  0.38926840  0.82224608  1  0.063615  0.000819  0.108593  0.119439  0.000339  0.995606  0.0
H  H44  1  0.67951791  0.39863211  0.49548282  1  0.100617  0.001574  0.11564  0.079573  0.000778  1.023081  0.001
H  H45  1  0.40309258  0.18418668  0.00429416  1  0.121455  0.001549  0.115563  0.079359  0.00078  1.023206  0.001
H  H46  1  0.32048063  0.60136677  0.50451684  1  0.100661  0.001574  0.115633  0.079571  0.000777  1.02304  0.001
H  H47  1  0.59690960  0.81581194  0.99570461  1  0.121441  0.001549  0.115585  0.079405  0.00078  1.023218  0.001
H  H48  1  0.39445077  0.70963244  0.35524955  1  0.104326  0.001236  0.119337  0.089453  0.000683  1.005233  0.001
H  H49  1  0.85444681  0.03922780  0.14484748  1  0.123875  0.001212  0.119701  0.090606  0.000683  1.004545  0.001
H  H50  1  0.60554804  0.29036729  0.64474857  1  0.104344  0.001236  0.119326  0.089433  0.000683  1.005253  0.001
H  H51  1  0.14555358  0.96076992  0.85515220  1  0.12386  0.001212  0.119692  0.090608  0.000683  1.004545  0.001
H  H52  1  0.27997313  0.85104927  0.39432218  1  0.068877  0.000779  0.112145  0.115965  0.00044  0.979221  0.0
H  H53  1  0.95686211  0.88577089  0.10578368  1  0.091163  0.000781  0.11207  0.11638  0.000439  0.979754  0.0
H  H54  1  0.72002649  0.14895246  0.60567585  1  0.068648  0.000779  0.112108  0.115975  0.00044  0.979215  0.0
H  H55  1  0.04313933  0.11422819  0.89421616  1  0.091168  0.000781  0.112084  0.116394  0.000439  0.979747  0.0
H  H56  1  0.64274465  0.80336919  0.63390863  1  0.112128  0.001258  0.118554  0.087032  0.000451  1.007953  0.0
H  H57  1  0.66921706  0.00847216  0.86612192  1  0.108835  0.00126  0.118961  0.088035  0.00045  1.007803  0.0
H  H58  1  0.35725396  0.19663215  0.36609202  1  0.112101  0.001258  0.118539  0.087064  0.000451  1.007949  0.0
H  H59  1  0.33078383  0.99152876  0.13387829  1  0.108765  0.00126  0.118963  0.088027  0.00045  1.007849  0.0
H  H60  1  0.35412837  0.97409471  0.56353450  1  0.10335  9.8e-05  0.105606  0.104659  -5e-06  1.025603  0.0
H  H61  1  0.91043246  0.79045204  0.93653755  1  0.10856  9.7e-05  0.106026  0.104906  -5e-06  1.025866  0.0
H  H62  1  0.64587009  0.02590825  0.43646328  1  0.103202  9.8e-05  0.105614  0.104674  -5e-06  1.025627  0.0
H  H63  1  0.08956849  0.20954835  0.06346182  1  0.108563  9.7e-05  0.106013  0.10489  -5e-06  1.025825  0.0
C  C64  1  0.73019757  0.88657318  0.34871064  1  0.028498  -0.001155  -0.030309  -0.032288  -0.00206  4.052149  -0.002
C  C65  1  0.03770312  0.38144328  0.15122172  1  -0.085587  -0.001084  -0.031041  -0.032938  -0.002055  4.05186  -0.002
C  C66  1  0.26980373  0.11342697  0.65129090  1  0.029089  -0.001155  -0.03026  -0.032241  -0.00206  4.052171  -0.002
C  C67  1  0.96229536  0.61855613  0.84877878  1  -0.085575  -0.001084  -0.031025  -0.032924  -0.002055  4.05185  -0.002
C  C68  1  0.65689740  0.98099516  0.23123569  1  0.000761  0.001402  -0.028787  -0.037855  0.000109  4.050712  0.0
C  C69  1  0.24964109  0.42557363  0.26864364  1  -0.060011  0.001454  -0.028152  -0.035749  0.000128  4.051884  0.0
C  C70  1  0.34310084  0.01900491  0.76876458  1  0.000752  0.001402  -0.028817  -0.037906  0.000109  4.050842  0.0
C  C71  1  0.75035814  0.57442533  0.73135579  1  -0.059919  0.001454  -0.028135  -0.035676  0.000128  4.051783  0.0
C  C72  1  0.83749808  0.98834464  0.40159906  1  -0.089356  0.00746  -0.098692  -0.211482  0.005748  3.933248  0.004
C  C73  1  0.08660414  0.43584939  0.09831354  1  -0.026404  0.007388  -0.098902  -0.210558  0.005715  3.935032  0.004
C  C74  1  0.16250291  0.01165670  0.59840309  1  -0.090094  0.007461  -0.098664  -0.211486  0.005748  3.933227  0.004
C  C75  1  0.91339521  0.56415149  0.90168604  1  -0.026591  0.007387  -0.098884  -0.210461  0.005715  3.934999  0.004
C  C76  1  0.85633761  0.08883844  0.37055240  1  0.408775  -0.000409  0.095509  0.238846  -0.000565  4.089263  -0.001
C  C77  1  0.21816666  0.48567697  0.12928970  1  0.395554  -0.000406  0.095463  0.238013  -0.000557  4.092851  -0.001
C  C78  1  0.14366124  0.91116224  0.62944849  1  0.408897  -0.000409  0.095487  0.238747  -0.000565  4.089336  -0.001
C  C79  1  0.78183189  0.51432190  0.87070996  1  0.39573  -0.000407  0.09547  0.237965  -0.000557  4.092889  -0.001
C  C80  1  0.70641918  0.78582263  0.38710480  1  1.529976  0.007885  0.197681  0.545781  0.009298  4.225484  0.006
C  C81  1  0.89853371  0.31933133  0.11287845  1  1.539257  0.007914  0.199197  0.548541  0.009312  4.222703  0.006
C  C82  1  0.29358218  0.21417699  0.61289589  1  1.530056  0.007886  0.197713  0.545856  0.009298  4.225357  0.006
C  C83  1  0.10146618  0.68066620  0.88712255  1  1.539262  0.007915  0.199138  0.548433  0.009312  4.22256  0.006
C  C84  1  0.63965624  0.88232812  0.26289742  1  -0.071478  0.008276  -0.10605  -0.160819  0.005998  3.988016  0.005
C  C85  1  0.11928477  0.37668077  0.23702599  1  0.015244  0.008184  -0.105456  -0.161983  0.005971  3.989901  0.005
C  C86  1  0.36034352  0.11767199  0.73710348  1  -0.071488  0.008275  -0.106072  -0.160838  0.005998  3.988048  0.005
C  C87  1  0.88071550  0.62331953  0.76297360  1  0.0145  0.008185  -0.105525  -0.16212  0.005971  3.989748  0.005
C  C88  1  0.76310570  0.08371369  0.28473972  1  -0.086358  0.007143  -0.099212  -0.215738  0.005421  3.927873  0.004
C  C89  1  0.29884820  0.47822378  0.21509137  1  -0.041805  0.007092  -0.099827  -0.218066  0.005398  3.930691  0.004
C  C90  1  0.23689383  0.91628708  0.71526094  1  -0.085997  0.007143  -0.099164  -0.215594  0.005421  3.927935  0.004
C  C91  1  0.70115078  0.52177582  0.78490783  1  -0.041808  0.007091  -0.099787  -0.21799  0.005398  3.930724  0.004
C  C92  1  0.50446214  0.89849843  0.61161022  1  -0.00273  -0.000315  -0.081707  -0.130952  -0.000822  3.98126  0.0
C  C93  1  0.78667433  0.89257889  0.88842408  1  -0.043106  -0.000306  -0.081857  -0.132429  -0.000819  3.981574  0.0
C  C94  1  0.49553717  0.10150449  0.38838841  1  -0.002839  -0.000315  -0.081735  -0.130915  -0.000822  3.981156  0.0
C  C95  1  0.21332595  0.10742141  0.11157551  1  -0.043119  -0.000306  -0.081843  -0.132401  -0.000819  3.981628  0.0
C  C96  1  0.97635561  0.29408559  0.39392118  1  0.340533  0.000345  -0.055655  -0.077346  0.000215  3.94166  0.0
C  C97  1  0.40016119  0.58237521  0.10599647  1  0.339331  0.000346  -0.055748  -0.078454  0.000212  3.93973  0.0
C  C98  1  0.02364416  0.70591452  0.60607973  1  0.340537  0.000345  -0.055653  -0.077408  0.000215  3.941673  0.0
C  C99  1  0.59983889  0.41762371  0.89400383  1  0.339583  0.000346  -0.055721  -0.07832  0.000212  3.939744  0.0
C  C100  1  0.56084450  0.97774947  0.13948844  1  1.545965  0.02882  0.220656  0.581736  0.028257  4.180821  0.025
C  C101  1  0.33819907  0.42140282  0.36041805  1  1.551576  0.028568  0.22216  0.584096  0.028103  4.17954  0.025
C  C102  1  0.43915527  0.02225064  0.86051246  1  1.545948  0.028821  0.220616  0.581647  0.028259  4.180965  0.025
C  C103  1  0.66180022  0.57859860  0.63958237  1  1.551576  0.028568  0.222043  0.583927  0.028104  4.179689  0.025
C  C104  1  0.89022353  0.36664242  0.40385383  1  -0.054583  0.006566  0.016772  0.150291  0.004989  3.920843  0.004
C  C105  1  0.46283044  0.48636445  0.09612049  1  -0.114002  0.006582  0.016301  0.150828  0.004987  3.918228  0.004
C  C106  1  0.10977624  0.63335769  0.59614708  1  -0.05431  0.006566  0.016814  0.15039  0.004989  3.920769  0.004
C  C107  1  0.53717007  0.51363520  0.90387934  1  -0.114035  0.006581  0.01627  0.150747  0.004987  3.918346  0.004
C  C108  1  0.79963717  0.52208982  0.37230673  1  0.452898  0.007216  0.049145  0.095228  0.005705  3.971101  0.005
C  C109  1  0.64979777  0.42718211  0.12780555  1  0.4353  0.007217  0.04886  0.093659  0.005697  3.972434  0.005
C  C110  1  0.20036114  0.47790971  0.62769270  1  0.453429  0.007214  0.049149  0.095222  0.005705  3.971218  0.005
C  C111  1  0.35020256  0.57282066  0.87219504  1  0.435393  0.007218  0.048912  0.093796  0.005697  3.972306  0.005
C  C112  1  0.81722586  0.34575478  0.45277770  1  -0.038124  -0.000245  -0.090424  -0.189783  -0.000749  3.971467  0.0
C  C113  1  0.39295923  0.36453820  0.04709620  1  0.054188  -0.00027  -0.08993  -0.188961  -0.000748  3.968721  0.0
C  C114  1  0.18277459  0.65424541  0.54722298  1  -0.038363  -0.000245  -0.090451  -0.189862  -0.000749  3.97149  0.0
C  C115  1  0.60704152  0.63546080  0.95290387  1  0.054181  -0.00027  -0.08995  -0.189009  -0.000748  3.968804  0.0
C  C116  1  0.87979669  0.45706909  0.36253201  1  0.015765  -0.0003  -0.083815  -0.180244  -0.000887  3.944558  0.0
C  C117  1  0.59459549  0.51713681  0.13758069  1  0.043765  -0.000306  -0.084064  -0.180353  -0.000885  3.943192  0.0
C  C118  1  0.12020352  0.54293175  0.63746843  1  0.015715  -0.0003  -0.083802  -0.180229  -0.000886  3.944642  0.0
C  C119  1  0.40540613  0.48286366  0.86241845  1  0.043648  -0.000306  -0.08405  -0.18031  -0.000885  3.943141  0.0
C  C120  1  0.73810099  0.41370362  0.45829457  1  0.494762  0.008123  0.049837  0.102488  0.006409  3.953607  0.005
C  C121  1  0.45536562  0.27987875  0.04161146  1  0.423714  0.008231  0.049994  0.102715  0.006408  3.953803  0.005
C  C122  1  0.26189756  0.58629525  0.54170509  1  0.49473  0.008123  0.049859  0.102511  0.006409  3.95358  0.005
C  C123  1  0.54463686  0.72012168  0.95838854  1  0.423724  0.008231  0.049967  0.102695  0.006408  3.95373  0.005
C  C124  1  0.42292659  0.76444936  0.42760567  1  0.486817  0.007008  0.053201  0.090683  0.005394  3.941678  0.004
C  C125  1  0.83679662  0.99524188  0.07247390  1  0.4062  0.007085  0.052368  0.089129  0.00539  3.939906  0.004
C  C126  1  0.57707229  0.23555283  0.57239343  1  0.486813  0.007008  0.053222  0.090747  0.005394  3.941735  0.004
C  C127  1  0.16320506  0.00475654  0.92752619  1  0.406524  0.007085  0.052362  0.089105  0.00539  3.939873  0.004
C  C128  1  0.35994892  0.84336048  0.44983516  1  -0.062651  4.3e-05  -0.083801  -0.136147  -0.000467  3.989945  0.0
C  C129  1  0.89351259  0.91006767  0.05024950  1  0.030813  -2.4e-05  -0.083521  -0.135831  -0.000465  3.988461  0.0
C  C130  1  0.64004934  0.15664110  0.55016332  1  -0.062189  4.3e-05  -0.083764  -0.136184  -0.000467  3.990036  0.0
C  C131  1  0.10648823  0.08993079  0.94974973  1  0.030811  -2.4e-05  -0.083476  -0.13576  -0.000465  3.98837  0.0
C  C132  1  0.56204733  0.81750254  0.58363979  1  0.472688  0.006599  0.053465  0.091847  0.005031  3.946843  0.004
C  C133  1  0.73368146  0.97814330  0.91640553  1  0.487746  0.006562  0.053022  0.091365  0.005024  3.946012  0.004
C  C134  1  0.43795247  0.18249907  0.41635933  1  0.472699  0.006599  0.053486  0.091793  0.005031  3.946841  0.004
C  C135  1  0.26632004  0.02185824  0.08359531  1  0.487802  0.006562  0.053022  0.091382  0.005024  3.94605  0.004
C  C136  1  0.40139313  0.91182458  0.54357726  1  -0.020333  0.005771  -0.064605  -0.021604  0.004389  3.956318  0.003
C  C137  1  0.86815775  0.85769837  0.95649849  1  -0.080757  0.005782  -0.064799  -0.021697  0.004381  3.958148  0.003
C  C138  1  0.59860574  0.08817761  0.45642184  1  -0.020242  0.005771  -0.064653  -0.021662  0.004389  3.95639  0.003
C  C139  1  0.13184345  0.14230136  0.04350112  1  -0.080701  0.005782  -0.064841  -0.021766  0.004381  3.95813  0.003
N  N140  1  0.72910490  0.50134232  0.41928679  1  -1.269223  0.05068  -0.325244  -0.251509  0.033257  3.5115  0.016
N  N141  1  0.58202007  0.30977196  0.08073596  1  -1.239678  0.050589  -0.325675  -0.251849  0.033314  3.513066  0.016
N  N142  1  0.27089303  0.49865594  0.58071225  1  -1.269755  0.050683  -0.325262  -0.251517  0.033255  3.511554  0.016
N  N143  1  0.41798217  0.69022913  0.91926381  1  -1.239682  0.050589  -0.325645  -0.251858  0.033313  3.513012  0.016
N  N144  1  0.95983039  0.19055341  0.42488720  1  -1.263244  2e-05  -0.448113  -0.344516  -0.000249  3.565212  0.0
N  N145  1  0.26561817  0.53482852  0.07496992  1  -1.229636  1.5e-05  -0.447716  -0.34305  -0.000254  3.566098  0.0
N  N146  1  0.04017067  0.80944739  0.57511410  1  -1.263221  2e-05  -0.448063  -0.3444  -0.000249  3.565294  0.0
N  N147  1  0.73438154  0.46516912  0.92502999  1  -1.229626  1.5e-05  -0.447718  -0.343077  -0.000254  3.566192  0.0
N  N148  1  0.52224362  0.75116992  0.49324021  1  -1.258478  0.047256  -0.313382  -0.243678  0.031786  3.500776  0.016
N  N149  1  0.75784304  0.02886016  0.00681276  1  -1.265343  0.047224  -0.312918  -0.243592  0.031769  3.499781  0.016
N  N150  1  0.47775488  0.24883099  0.50675851  1  -1.258668  0.047273  -0.313374  -0.243675  0.031786  3.500806  0.016
N  N151  1  0.24215704  0.97113876  0.99318754  1  -1.265663  0.047223  -0.312919  -0.243601  0.031769  3.499765  0.016
O  O152  1  0.60486139  0.69531435  0.33798814  1  -1.187168  0.05549  -0.317352  -0.563329  0.038973  2.259636  0.027
O  O153  1  0.85713533  0.26687916  0.16201246  1  -1.197263  0.055482  -0.318579  -0.565378  0.039009  2.259785  0.027
O  O154  1  0.39513993  0.30468730  0.66201161  1  -1.187199  0.055493  -0.317345  -0.563348  0.038975  2.259694  0.027
O  O155  1  0.14286645  0.73311968  0.83798956  1  -1.197186  0.05548  -0.318588  -0.565366  0.039008  2.259791  0.027
O  O156  1  0.78326775  0.79270948  0.46828298  1  -1.20481  0.042345  -0.314289  -0.560513  0.03074  2.189232  0.024
O  O157  1  0.82420573  0.31507162  0.03174387  1  -1.202131  0.04226  -0.314231  -0.560962  0.030779  2.18885  0.024
O  O158  1  0.21673264  0.20728825  0.53171671  1  -1.20483  0.042348  -0.314337  -0.560584  0.030742  2.189146  0.024
O  O159  1  0.17579360  0.68492775  0.96825750  1  -1.202206  0.042259  -0.314175  -0.560902  0.030777  2.188795  0.024
O  O160  1  0.57918237  0.06873282  0.11207259  1  -1.217242  0.078837  -0.318439  -0.568852  0.056052  2.391029  0.035
O  O161  1  0.45659440  0.46740930  0.38787839  1  -1.224096  0.078464  -0.318939  -0.569532  0.055994  2.390762  0.035
O  O162  1  0.42081832  0.93126671  0.88792833  1  -1.217277  0.078838  -0.318424  -0.568836  0.056052  2.391093  0.035
O  O163  1  0.54340427  0.53259150  0.61212142  1  -1.224082  0.078464  -0.318888  -0.569483  0.055995  2.390702  0.035
O  O164  1  0.46367966  0.88319932  0.09398612  1  -1.197113  0.076486  -0.311142  -0.550362  0.053191  2.330362  0.036
O  O165  1  0.28918879  0.36965290  0.40592006  1  -1.199797  0.076523  -0.312216  -0.552189  0.053198  2.329578  0.036
O  O166  1  0.53632195  0.11679964  0.90601481  1  -1.197078  0.076487  -0.311129  -0.550303  0.05319  2.330355  0.036
O  O167  1  0.71081025  0.63034917  0.59408013  1  -1.19987  0.076524  -0.312164  -0.552099  0.053198  2.329635  0.036
