# generated using pymatgen
data_NdH8C6N2O9
_symmetry_space_group_name_H-M   'P 1'
_cell_length_a   6.79111998
_cell_length_b   7.31455215
_cell_length_c   22.70000000
_cell_angle_alpha   90.00000000
_cell_angle_beta   90.00000000
_cell_angle_gamma   103.37280056
_symmetry_Int_Tables_number   1
_chemical_formula_structural   NdH8C6N2O9
_chemical_formula_sum   'Nd4 H32 C24 N8 O36'
_cell_volume   1097.02584401
_cell_formula_units_Z   4
loop_
 _symmetry_equiv_pos_site_id
 _symmetry_equiv_pos_as_xyz
  1  'x, y, z'
loop_
 _atom_site_type_symbol
 _atom_site_label
 _atom_site_symmetry_multiplicity
 _atom_site_fract_x
 _atom_site_fract_y
 _atom_site_fract_z
 _atom_site_occupancy
 _atom_site_hle17_bader_spin_density
 _atom_site_hle17_ddec_charge
 _atom_site_hle17_ddec_spin_density
 _atom_site_hle17_ddec_sum_bond_order
 _atom_site_hle17_magmom
 _atom_site_hse06_10hf_bader_spin_density
 _atom_site_hse06_10hf_ddec_charge
 _atom_site_hse06_10hf_ddec_spin_density
 _atom_site_hse06_10hf_ddec_sum_bond_order
 _atom_site_hse06_10hf_magmom
 _atom_site_hse06_bader_spin_density
 _atom_site_hse06_ddec_charge
 _atom_site_hse06_ddec_spin_density
 _atom_site_hse06_ddec_sum_bond_order
 _atom_site_hse06_magmom
 _atom_site_pbe_bader_charge
 _atom_site_pbe_bader_spin_density
 _atom_site_pbe_cm5_charge
 _atom_site_pbe_ddec_charge
 _atom_site_pbe_ddec_spin_density
 _atom_site_pbe_ddec_sum_bond_order
 _atom_site_pbe_magmom
Nd  Nd0  1  0.75469959  0.50909023  0.37834229  1  0  2.30218  0  1.611844  0  0  2.189936  0  1.972505  0  0  2.227052  0  1.933942  0  2.265702  0  1.477212  2.102105  0  2.115099  0
Nd  Nd1  1  0.24528818  0.99091319  0.87833921  1  0  2.302184  0  1.61188  0  0  2.189897  0  1.972548  0  0  2.227014  0  1.933985  0  2.265575  0  1.477187  2.102023  0  2.115212  0
Nd  Nd2  1  0.24529127  0.49091205  0.62165903  1  0  2.302159  0  1.611908  0  0  2.189875  0  1.972565  0  0  2.226993  0  1.934004  0  2.265741  0  1.477233  2.101995  0  2.115229  0
Nd  Nd3  1  0.75470493  0.00908628  0.12165771  1  0  2.302151  0  1.611876  0  0  2.189884  0  1.972531  0  0  2.226999  0  1.933969  0  2.265762  0  1.477217  2.102034  0  2.115151  0
H  H4  1  0.09560937  0.37860389  0.21791806  1  0  0.322218  0  0.909716  0  0  0.296992  0  0.978219  0  0  0.307419  0  0.969315  0  0.568104  0  0.316212  0.289335  0  0.985124  0
H  H5  1  0.90438397  0.12138882  0.71791630  1  0  0.322213  0  0.90975  0  0  0.297025  0  0.978193  0  0  0.307453  0  0.969286  0  0.568127  0  0.316255  0.289363  0  0.985105  0
H  H6  1  0.90438641  0.62138855  0.78208414  1  0  0.322237  0  0.909698  0  0  0.297023  0  0.978187  0  0  0.307449  0  0.969282  0  0.568111  0  0.316233  0.289359  0  0.985099  0
H  H7  1  0.09561391  0.87861205  0.28208194  1  0  0.322264  0  0.909705  0  0  0.297038  0  0.978203  0  0  0.307468  0  0.969296  0  0.568131  0  0.316258  0.289391  0  0.985089  0
H  H8  1  0.19236431  0.36455009  0.32293260  1  0  0.094393  0  0.954946  0  0  0.099619  0  1.024066  0  0  0.10293  0  1.01983  0  0.166579  0  0.144882  0.097428  0  1.026534  0
H  H9  1  0.80763884  0.13545246  0.82292731  1  0  0.094389  0  0.955079  0  0  0.099503  0  1.024343  0  0  0.102815  0  1.020108  0  0.166605  0  0.144829  0.097313  0  1.026809  0
H  H10  1  0.80763364  0.63544516  0.67707093  1  0  0.09439  0  0.955059  0  0  0.099544  0  1.024262  0  0  0.102852  0  1.020027  0  0.166618  0  0.144833  0.097355  0  1.026728  0
H  H11  1  0.19237040  0.86455263  0.17706828  1  0  0.094434  0  0.954934  0  0  0.099586  0  1.024154  0  0  0.102896  0  1.01992  0  0.166613  0  0.144851  0.097396  0  1.02662  0
H  H12  1  0.02988734  0.35207156  0.46273348  1  0  0.434536  0  0.858878  0  0  0.407349  0  0.916337  0  0  0.417695  0  0.900945  0  0.632094  0  0.30415  0.399731  0  0.92753  0
H  H13  1  0.97010810  0.14792958  0.96273524  1  0  0.434529  0  0.858915  0  0  0.407349  0  0.916362  0  0  0.417693  0  0.900976  0  0.632145  0  0.304137  0.39973  0  0.927556  0
H  H14  1  0.97010682  0.64793212  0.53726432  1  0  0.434609  0  0.858824  0  0  0.40741  0  0.916311  0  0  0.417758  0  0.900917  0  0.632151  0  0.304142  0.39979  0  0.927506  0
H  H15  1  0.02989126  0.85207129  0.03726652  1  0  0.434521  0  0.858901  0  0  0.407334  0  0.916362  0  0  0.417679  0  0.900972  0  0.632084  0  0.304143  0.399717  0  0.927554  0
H  H16  1  0.88641919  0.94429155  0.37795419  1  0  0.445229  0  0.836611  0  0  0.418015  0  0.895575  0  0  0.427206  0  0.88191  0  0.647001  0  0.317533  0.411279  0  0.905471  0
H  H17  1  0.11358330  0.55571186  0.87795330  1  0  0.445261  0  0.836597  0  0  0.418031  0  0.895567  0  0  0.427222  0  0.881901  0  0.647001  0  0.317534  0.411294  0  0.905464  0
H  H18  1  0.11358226  0.05571775  0.62204626  1  0  0.445239  0  0.836637  0  0  0.41801  0  0.895599  0  0  0.427203  0  0.881931  0  0.647035  0  0.317514  0.411273  0  0.905497  0
H  H19  1  0.88642201  0.44428338  0.12204846  1  0  0.445262  0  0.836558  0  0  0.418057  0  0.895504  0  0  0.427247  0  0.881843  0  0.647083  0  0.317549  0.41132  0  0.905401  0
H  H20  1  0.14522608  0.81366890  0.39070352  1  0  0.430805  0  0.873444  0  0  0.400682  0  0.93501  0  0  0.410886  0  0.920035  0  0.617637  0  0.296873  0.393409  0  0.945535  0
H  H21  1  0.85476464  0.68633451  0.89070573  1  0  0.430828  0  0.873424  0  0  0.400688  0  0.935006  0  0  0.41089  0  0.920034  0  0.617638  0  0.296855  0.393417  0  0.945526  0
H  H22  1  0.85476177  0.18633900  0.60929427  1  0  0.430837  0  0.873394  0  0  0.400719  0  0.934945  0  0  0.410923  0  0.919968  0  0.617666  0  0.296882  0.393448  0  0.945464  0
H  H23  1  0.14523029  0.31366636  0.10929604  1  0  0.430826  0  0.873431  0  0  0.40069  0  0.935017  0  0  0.410896  0  0.920039  0  0.617641  0  0.296857  0.393416  0  0.945543  0
H  H24  1  0.22487101  0.62677905  0.40527577  1  0  0.445179  0  0.852542  0  0  0.41555  0  0.913036  0  0  0.426682  0  0.896814  0  0.66856  0  0.300991  0.40723  0  0.925094  0
H  H25  1  0.77512342  0.87322155  0.90528062  1  0  0.445353  0  0.852336  0  0  0.415665  0  0.912912  0  0  0.426797  0  0.89669  0  0.668495  0  0.30099  0.407344  0  0.924972  0
H  H26  1  0.77512679  0.37322744  0.59471938  1  0  0.445203  0  0.852545  0  0  0.415565  0  0.913041  0  0  0.426694  0  0.896825  0  0.668489  0  0.300989  0.407245  0  0.9251  0
H  H27  1  0.22486976  0.12677229  0.09472423  1  0  0.445206  0  0.852538  0  0  0.415588  0  0.91301  0  0  0.426719  0  0.896791  0  0.668544  0  0.300983  0.407268  0  0.925069  0
H  H28  1  0.70610859  0.93196057  0.42107621  1  0  0.458965  0  0.78609  0  0  0.441945  0  0.83494  0  0  0.449951  0  0.823327  0  0.634348  0  0.337866  0.435747  0  0.843883  0
H  H29  1  0.29388802  0.56804284  0.92107621  1  0  0.459007  0  0.786043  0  0  0.441989  0  0.834879  0  0  0.449996  0  0.823264  0  0.634392  0  0.337889  0.43579  0  0.843822  0
H  H30  1  0.29388523  0.06804170  0.57892335  1  0  0.459014  0  0.786008  0  0  0.441998  0  0.834859  0  0  0.450004  0  0.823247  0  0.634398  0  0.337873  0.435799  0  0.843803  0
H  H31  1  0.70610761  0.43196084  0.07892775  1  0  0.458976  0  0.786084  0  0  0.441974  0  0.834899  0  0  0.449981  0  0.823286  0  0.634392  0  0.337901  0.435776  0  0.843843  0
H  H32  1  0.04645212  0.21423441  0.41133304  1  0  0.427384  0  0.869493  0  0  0.39767  0  0.931732  0  0  0.407904  0  0.916454  0  0.641975  0  0.296676  0.389998  0  0.943128  0
H  H33  1  0.95353343  0.28576251  0.91133348  1  0  0.427383  0  0.869491  0  0  0.397659  0  0.93175  0  0  0.407893  0  0.916471  0  0.641981  0  0.296638  0.389984  0  0.943152  0
H  H34  1  0.95354351  0.78576927  0.58866608  1  0  0.42735  0  0.869544  0  0  0.397665  0  0.931733  0  0  0.407897  0  0.916458  0  0.641936  0  0.296647  0.389991  0  0.943134  0
H  H35  1  0.04645898  0.71423414  0.08866652  1  0  0.427383  0  0.869487  0  0  0.397684  0  0.931701  0  0  0.407915  0  0.916428  0  0.641978  0  0.29666  0.39001  0  0.943105  0
C  C36  1  0.76742884  0.71222605  0.24095683  1  0  0.696242  0  3.87354  0  0  0.644446  0  4.176179  0  0  0.680063  0  4.163136  0  1.565938  0  0.233685  0.62003  0  4.180892  0
C  C37  1  0.23256714  0.78776893  0.74095771  1  0  0.696342  0  3.873324  0  0  0.644487  0  4.176012  0  0  0.680104  0  4.162968  0  1.598773  0  0.233741  0.620072  0  4.180724  0
C  C38  1  0.23256574  0.28777341  0.75903965  1  0  0.696321  0  3.87325  0  0  0.644476  0  4.175962  0  0  0.680093  0  4.16292  0  1.565985  0  0.233697  0.620059  0  4.180671  0
C  C39  1  0.76743671  0.21222632  0.25904009  1  0  0.696483  0  3.873273  0  0  0.64456  0  4.176088  0  0  0.680176  0  4.163044  0  1.566042  0  0.23372  0.620145  0  4.180804  0
C  C40  1  0.59617956  0.49286533  0.51720485  1  0  0.569248  0  3.902131  0  0  0.520053  0  4.207109  0  0  0.550789  0  4.195968  0  1.617753  0  0.231402  0.499808  0  4.207839  0
C  C41  1  0.40383130  0.00713862  0.01720308  1  0  0.568891  0  3.902269  0  0  0.519845  0  4.207081  0  0  0.550559  0  4.195973  0  1.595821  0  0.231326  0.499603  0  4.207806  0
C  C42  1  0.40382273  0.50713554  0.48279956  1  0  0.568963  0  3.902249  0  0  0.519909  0  4.207093  0  0  0.550638  0  4.195963  0  1.595732  0  0.231367  0.499666  0  4.20782  0
C  C43  1  0.59618096  0.99286085  0.98279559  1  0  0.569231  0  3.902193  0  0  0.520033  0  4.207141  0  0  0.550781  0  4.195992  0  1.617778  0  0.231342  0.499789  0  4.207869  0
C  C44  1  0.36639067  0.60751321  0.13999295  1  0  0.668684  0  3.935711  0  0  0.616764  0  4.242451  0  0  0.65109  0  4.230776  0  1.615661  0  0.224239  0.593288  0  4.248245  0
C  C45  1  0.63360643  0.89248036  0.63999207  1  0  0.668632  0  3.935734  0  0  0.616747  0  4.242431  0  0  0.651076  0  4.230753  0  1.615578  0  0.224266  0.593272  0  4.248224  0
C  C46  1  0.63360104  0.39248063  0.86000881  1  0  0.668657  0  3.935595  0  0  0.616731  0  4.242358  0  0  0.651054  0  4.230684  0  1.615568  0  0.224209  0.593254  0  4.248151  0
C  C47  1  0.36639004  0.10751489  0.36000749  1  0  0.668618  0  3.935596  0  0  0.616663  0  4.24239  0  0  0.650993  0  4.230716  0  1.615636  0  0.224219  0.593189  0  4.248183  0
C  C48  1  0.39744607  0.55572732  0.20211762  1  0  0.007033  0  3.635832  0  0  -0.005105  0  3.891425  0  0  -0.006671  0  3.910143  0  0.416645  0  0.094875  -0.004453  0  3.879806  0
C  C49  1  0.60255797  0.94427047  0.70211586  1  0  0.007016  0  3.635807  0  0  -0.005162  0  3.891385  0  0  -0.006727  0  3.910099  0  0.416866  0  0.094878  -0.004507  0  3.879771  0
C  C50  1  0.60255398  0.44427636  0.79788282  1  0  0.007098  0  3.635617  0  0  -0.00507  0  3.891245  0  0  -0.00663  0  3.909955  0  0.416732  0  0.094884  -0.00442  0  3.879629  0
C  C51  1  0.39744994  0.05572337  0.29788458  1  0  0.007084  0  3.635681  0  0  -0.005029  0  3.89123  0  0  -0.006607  0  3.909965  0  0.416845  0  0.094925  -0.004377  0  3.879615  0
C  C52  1  0.55559351  0.60173768  0.24325991  1  0  0.012389  0  3.724167  0  0  0.006537  0  3.98683  0  0  0.004582  0  4.00599  0  0.447223  0  0.091747  0.008199  0  3.971173  0
C  C53  1  0.44440948  0.89825590  0.74325947  1  0  0.012324  0  3.723922  0  0  0.006566  0  3.986497  0  0  0.004611  0  4.005657  0  0.413254  0  0.091712  0.008213  0  3.970863  0
C  C54  1  0.44440619  0.39826460  0.75673921  1  0  0.01233  0  3.724043  0  0  0.006506  0  3.986722  0  0  0.004548  0  4.005883  0  0.447279  0  0.09171  0.008167  0  3.971066  0
C  C55  1  0.55559885  0.10173373  0.25674141  1  0  0.0124  0  3.723942  0  0  0.006598  0  3.986603  0  0  0.004648  0  4.005765  0  0.446769  0  0.091742  0.008255  0  3.970952  0
C  C56  1  0.29511903  0.43763379  0.28968855  1  0  0.275035  0  3.663525  0  0  0.210453  0  3.954528  0  0  0.22449  0  3.964051  0  1.024035  0  0.166754  0.201536  0  3.945073  0
C  C57  1  0.70487935  0.06236735  0.78968943  1  0  0.27503  0  3.663754  0  0  0.210506  0  3.954758  0  0  0.224545  0  3.964281  0  1.023995  0  0.16675  0.201588  0  3.9453  0
C  C58  1  0.70487997  0.56236567  0.71031057  1  0  0.274992  0  3.663777  0  0  0.210458  0  3.954755  0  0  0.224501  0  3.964271  0  1.023994  0  0.166709  0.201539  0  3.945297  0
C  C59  1  0.29512253  0.93763774  0.21031057  1  0  0.275064  0  3.663563  0  0  0.21049  0  3.954616  0  0  0.224533  0  3.964133  0  1.023991  0  0.166771  0.201572  0  3.945162  0
N  N60  1  0.23680757  0.45149507  0.23359251  1  0  -0.276817  0  3.404102  0  0  -0.214995  0  3.640968  0  0  -0.230598  0  3.654764  0  -1.302968  0  -0.360978  -0.204968  0  3.633225  0
N  N61  1  0.76319382  0.04850044  0.73359251  1  0  -0.276823  0  3.404251  0  0  -0.215004  0  3.641054  0  0  -0.23061  0  3.654846  0  -1.302946  0  -0.361016  -0.204973  0  3.633315  0
N  N62  1  0.76319255  0.54850298  0.76640793  1  0  -0.276867  0  3.404259  0  0  -0.215033  0  3.641076  0  0  -0.230636  0  3.654864  0  -1.302949  0  -0.360962  -0.205001  0  3.633339  0
N  N63  1  0.23680812  0.95149902  0.26640793  1  0  -0.276935  0  3.404237  0  0  -0.215087  0  3.641065  0  0  -0.230691  0  3.654857  0  -1.302902  0  -0.361011  -0.205064  0  3.633313  0
N  N64  1  0.48778767  0.52619621  0.29725859  1  0  -0.511083  0  3.220351  0  0  -0.470897  0  3.505048  0  0  -0.486496  0  3.522667  0  -1.233582  0  -0.414321  -0.453118  0  3.491499  0
N  N65  1  0.51220676  0.97380439  0.79726079  1  0  -0.511041  0  3.220173  0  0  -0.470873  0  3.504817  0  0  -0.486474  0  3.522435  0  -1.233586  0  -0.414261  -0.453081  0  3.49127  0
N  N66  1  0.51220916  0.47380044  0.70273921  1  0  -0.511032  0  3.220425  0  0  -0.470855  0  3.505103  0  0  -0.486452  0  3.522719  0  -1.233682  0  -0.414246  -0.453067  0  3.491552  0
N  N67  1  0.48779813  0.02619507  0.20274053  1  0  -0.51117  0  3.22036  0  0  -0.470982  0  3.505053  0  0  -0.486581  0  3.52267  0  -1.233594  0  -0.414332  -0.453198  0  3.491504  0
O  O68  1  0.83862679  0.80396150  0.19542643  1  0  -0.717183  0  2.059263  0  0  -0.672842  0  2.316936  0  0  -0.696157  0  2.304929  0  -1.21129  0  -0.400876  -0.648779  0  2.326852  0
O  O69  1  0.16137507  0.69603348  0.69542335  1  0  -0.717291  0  2.059175  0  0  -0.672933  0  2.316892  0  0  -0.696259  0  2.304902  0  -1.210385  0  -0.400948  -0.648855  0  2.326792  0
O  O70  1  0.16137305  0.19602953  0.80457313  1  0  -0.717244  0  2.059067  0  0  -0.672902  0  2.316818  0  0  -0.696222  0  2.304812  0  -1.211252  0  -0.400892  -0.648826  0  2.326721  0
O  O71  1  0.83863633  0.30397442  0.30457313  1  0  -0.717313  0  2.058939  0  0  -0.672975  0  2.316737  0  0  -0.696293  0  2.30473  0  -1.211054  0  -0.400918  -0.648908  0  2.326641  0
O  O72  1  0.95586381  0.28935993  0.42800793  1  0  -0.8909  0  1.829127  0  0  -0.849415  0  2.004336  0  0  -0.866223  0  1.972338  0  -1.270567  0  -0.627101  -0.830853  0  2.030832  0
O  O73  1  0.04412573  0.21064121  0.92800793  1  0  -0.890907  0  1.829128  0  0  -0.849415  0  2.00433  0  0  -0.866216  0  1.972316  0  -1.270611  0  -0.627065  -0.830848  0  2.030828  0
O  O74  1  0.04412775  0.71064516  0.57199119  1  0  -0.890951  0  1.829099  0  0  -0.849465  0  2.004272  0  0  -0.866268  0  1.97226  0  -1.270586  0  -0.627067  -0.830897  0  2.030767  0
O  O75  1  0.95587033  0.78935825  0.07199207  1  0  -0.890876  0  1.829167  0  0  -0.849399  0  2.004362  0  0  -0.866205  0  1.972361  0  -1.270583  0  -0.627075  -0.83084  0  2.030853  0
O  O76  1  0.76176025  0.85974390  0.39208899  1  0  -0.882689  0  1.823567  0  0  -0.848894  0  2.006082  0  0  -0.864136  0  1.977576  0  -1.252411  0  -0.614436  -0.830806  0  2.030727  0
O  O77  1  0.23823783  0.64025951  0.89208855  1  0  -0.882764  0  1.823544  0  0  -0.84896  0  2.006019  0  0  -0.864211  0  1.977529  0  -1.252516  0  -0.614459  -0.830867  0  2.030667  0
O  O78  1  0.23824127  0.14025978  0.60791189  1  0  -0.882746  0  1.823526  0  0  -0.84895  0  2.006022  0  0  -0.86419  0  1.977513  0  -1.252552  0  -0.614429  -0.830856  0  2.03067  0
O  O79  1  0.76176342  0.35973714  0.10791189  1  0  -0.882732  0  1.823574  0  0  -0.848958  0  2.006063  0  0  -0.864202  0  1.977557  0  -1.252587  0  -0.614486  -0.830869  0  2.03071  0
O  O80  1  0.51153507  0.70673157  0.11110132  1  0  -0.716224  0  2.039302  0  0  -0.676067  0  2.289579  0  0  -0.698589  0  2.277335  0  -1.1943  0  -0.394497  -0.652662  0  2.300157  0
O  O81  1  0.48847381  0.79326201  0.61109868  1  0  -0.716161  0  2.039271  0  0  -0.676027  0  2.289561  0  0  -0.698548  0  2.277318  0  -1.194333  0  -0.39451  -0.652618  0  2.300139  0
O  O82  1  0.48846323  0.29326509  0.88890088  1  0  -0.716139  0  2.039361  0  0  -0.675985  0  2.289648  0  0  -0.698508  0  2.277409  0  -1.194425  0  -0.394435  -0.652578  0  2.300227  0
O  O83  1  0.51153620  0.20674027  0.38889912  1  0  -0.716215  0  2.039245  0  0  -0.676054  0  2.289547  0  0  -0.698577  0  2.277302  0  -1.194334  0  -0.394524  -0.652651  0  2.300125  0
O  O84  1  0.76166754  0.52856123  0.48906696  1  0  -0.659267  0  2.080291  0  0  -0.607124  0  2.315189  0  0  -0.629997  0  2.303494  0  -1.188362  0  -0.346022  -0.584489  0  2.323684  0
O  O85  1  0.23835459  0.97146186  0.98906388  1  0  -0.659151  0  2.080366  0  0  -0.606998  0  2.315162  0  0  -0.629863  0  2.303479  0  -1.188395  0  -0.346004  -0.584357  0  2.323654  0
O  O86  1  0.23835074  0.47145650  0.51093612  1  0  -0.659144  0  2.080516  0  0  -0.60698  0  2.315318  0  0  -0.629846  0  2.303626  0  -1.188438  0  -0.345999  -0.58434  0  2.32381  0
O  O87  1  0.76166454  0.02854744  0.01093348  1  0  -0.659189  0  2.08035  0  0  -0.607033  0  2.315208  0  0  -0.629909  0  2.303514  0  -1.188355  0  -0.345957  -0.584395  0  2.3237  0
O  O88  1  0.57264430  0.44656971  0.57101322  1  0  -0.644415  0  2.091551  0  0  -0.591555  0  2.321874  0  0  -0.616099  0  2.313945  0  -1.181656  0  -0.329369  -0.568712  0  2.3277  0
O  O89  1  0.42737112  0.05342300  0.07101366  1  0  -0.644293  0  2.091421  0  0  -0.591521  0  2.321692  0  0  -0.616058  0  2.313766  0  -1.181647  0  -0.329377  -0.568681  0  2.32752  0
O  O90  1  0.42736558  0.55341430  0.42898590  1  0  -0.644405  0  2.091354  0  0  -0.591632  0  2.321637  0  0  -0.616175  0  2.313703  0  -1.181514  0  -0.329463  -0.568794  0  2.327469  0
O  O91  1  0.57264128  0.94656523  0.92898678  1  0  -0.644498  0  2.091511  0  0  -0.591608  0  2.321816  0  0  -0.616157  0  2.313882  0  -1.181647  0  -0.329358  -0.568766  0  2.327643  0
O  O92  1  0.18627218  0.54968198  0.11941850  1  0  -0.665954  0  1.969799  0  0  -0.601587  0  2.183897  0  0  -0.624345  0  2.168643  0  -1.210603  0  -0.319479  -0.586422  0  2.195313  0
O  O93  1  0.81373116  0.95031300  0.61941938  1  0  -0.665898  0  1.969794  0  0  -0.60156  0  2.183881  0  0  -0.624319  0  2.168626  0  -1.21048  0  -0.31947  -0.586398  0  2.195296  0
O  O94  1  0.81372247  0.45031186  0.88058414  1  0  -0.665976  0  1.969737  0  0  -0.601559  0  2.183801  0  0  -0.624311  0  2.168542  0  -1.210408  0  -0.319463  -0.586394  0  2.195214  0
O  O95  1  0.18627661  0.04969209  0.38058194  1  0  -0.665907  0  1.969781  0  0  -0.601525  0  2.183894  0  0  -0.624284  0  2.168639  0  -1.210598  0  -0.319483  -0.586365  0  2.195312  0
O  O96  1  0.10570865  0.67438295  0.39216388  1  0  -0.937601  0  1.855921  0  0  -0.893045  0  2.051285  0  0  -0.910438  0  2.017298  0  -1.294136  0  -0.669432  -0.872653  0  2.079574  0
O  O97  1  0.89428543  0.82561625  0.89216432  1  0  -0.93779  0  1.855749  0  0  -0.893193  0  2.051254  0  0  -0.910584  0  2.017261  0  -1.29408  0  -0.669445  -0.872791  0  2.079536  0
O  O98  1  0.89428551  0.32562073  0.60783656  1  0  -0.937683  0  1.855914  0  0  -0.893111  0  2.05131  0  0  -0.910518  0  2.017354  0  -1.294097  0  -0.669476  -0.872709  0  2.079592  0
O  O99  1  0.10571175  0.17438181  0.10783612  1  0  -0.937656  0  1.855924  0  0  -0.893106  0  2.051298  0  0  -0.9105  0  2.01731  0  -1.294103  0  -0.669431  -0.872709  0  2.079584  0
O  O100  1  0.87147485  0.70931721  0.28796828  1  0  -0.687324  0  2.032415  0  0  -0.634419  0  2.272566  0  0  -0.658922  0  2.262071  0  -1.178372  0  -0.358533  -0.611145  0  2.280771  0
O  O101  1  0.12852035  0.79068058  0.78796740  1  0  -0.687241  0  2.032359  0  0  -0.634332  0  2.272539  0  0  -0.65883  0  2.26204  0  -1.178288  0  -0.3585  -0.611054  0  2.280759  0
O  O102  1  0.12852337  0.29068507  0.71202952  1  0  -0.68732  0  2.032369  0  0  -0.634403  0  2.272527  0  0  -0.6589  0  2.262029  0  -1.178528  0  -0.358545  -0.61112  0  2.280735  0
O  O103  1  0.87147655  0.20931045  0.21203128  1  0  -0.687388  0  2.03254  0  0  -0.634408  0  2.272716  0  0  -0.658908  0  2.262219  0  -1.178522  0  -0.358493  -0.611115  0  2.280885  0
