# generated using pymatgen
data_Zn3H20C14(NO9)2
_symmetry_space_group_name_H-M   'P 1'
_cell_length_a   7.26749917
_cell_length_b   8.44057274
_cell_length_c   9.35272529
_cell_angle_alpha   110.21481172
_cell_angle_beta   101.48147636
_cell_angle_gamma   94.48353571
_symmetry_Int_Tables_number   1
_chemical_formula_structural   Zn3H20C14(NO9)2
_chemical_formula_sum   'Zn3 H20 C14 N2 O18'
_cell_volume   520.82185609
_cell_formula_units_Z   1
loop_
 _symmetry_equiv_pos_site_id
 _symmetry_equiv_pos_as_xyz
  1  'x, y, z'
loop_
 _atom_site_type_symbol
 _atom_site_label
 _atom_site_symmetry_multiplicity
 _atom_site_fract_x
 _atom_site_fract_y
 _atom_site_fract_z
 _atom_site_occupancy
 _atom_site_hle17_bader_spin_density
 _atom_site_hle17_ddec_charge
 _atom_site_hle17_ddec_spin_density
 _atom_site_hle17_ddec_sum_bond_order
 _atom_site_hle17_magmom
 _atom_site_hse06_10hf_bader_spin_density
 _atom_site_hse06_10hf_ddec_charge
 _atom_site_hse06_10hf_ddec_spin_density
 _atom_site_hse06_10hf_ddec_sum_bond_order
 _atom_site_hse06_10hf_magmom
 _atom_site_hse06_bader_spin_density
 _atom_site_hse06_ddec_charge
 _atom_site_hse06_ddec_spin_density
 _atom_site_hse06_ddec_sum_bond_order
 _atom_site_hse06_magmom
 _atom_site_pbe_bader_spin_density
 _atom_site_pbe_cm5_charge
 _atom_site_pbe_ddec_charge
 _atom_site_pbe_ddec_spin_density
 _atom_site_pbe_ddec_sum_bond_order
 _atom_site_pbe_magmom
Zn  Zn0  1  0.11325467  0.85751566  0.87088372  1  0  1.14154  0  1.707997  0  0  0.965569  0  2.153243  0  0  1.014837  0  2.094599  0  0  0.693709  0.930835  0  2.193864  0
Zn  Zn1  1  0.88674315  0.14248338  0.12911490  1  0  1.141542  0  1.707988  0  0  0.965565  0  2.15323  0  0  1.014833  0  2.094588  0  0  0.693712  0.930831  0  2.193843  0
Zn  Zn2  1  0.50000076  0.00000111  0.49999947  1  0  1.274275  0  1.620186  0  0  1.118605  0  2.059964  0  0  1.159351  0  2.002897  0  0  0.686842  1.089895  0  2.099316  0
H  H3  1  0.45937736  0.85312738  0.02235540  1  0  0.42963  0  0.866984  0  0  0.398888  0  0.931596  0  0  0.408839  0  0.917068  0  0  0.298882  0.391895  0  0.941822  0
H  H4  1  0.54062186  0.14687165  0.97764344  1  0  0.429637  0  0.866975  0  0  0.3989  0  0.931578  0  0  0.408849  0  0.917052  0  0  0.298886  0.391908  0  0.941801  0
H  H5  1  0.32830433  0.90679838  0.14394388  1  0  0.422141  0  0.889981  0  0  0.387405  0  0.959248  0  0  0.398848  0  0.942916  0  0  0.28946  0.379409  0  0.970624  0
H  H6  1  0.67169630  0.09320065  0.85605518  1  0  0.422149  0  0.889965  0  0  0.387412  0  0.959235  0  0  0.398856  0  0.942902  0  0  0.289464  0.379415  0  0.970614  0
H  H7  1  0.89494243  0.77706039  0.58273888  1  0  0.425126  0  0.878867  0  0  0.390345  0  0.952447  0  0  0.401218  0  0.93691  0  0  0.294422  0.382642  0  0.963444  0
H  H8  1  0.10505680  0.22293865  0.41726210  1  0  0.425144  0  0.878842  0  0  0.390364  0  0.95242  0  0  0.401235  0  0.936886  0  0  0.294429  0.38266  0  0.963419  0
H  H9  1  0.87678967  0.97282831  0.67981407  1  0  0.429241  0  0.865035  0  0  0.394725  0  0.940969  0  0  0.406127  0  0.924662  0  0  0.294562  0.38667  0  0.95246  0
H  H10  1  0.12320956  0.02717072  0.32018583  1  0  0.429235  0  0.86504  0  0  0.394721  0  0.940974  0  0  0.406122  0  0.924668  0  0  0.294557  0.386664  0  0.952471  0
H  H11  1  0.58338197  0.25843113  0.39477618  1  0  0.435882  0  0.863937  0  0  0.402042  0  0.93136  0  0  0.413761  0  0.914248  0  0  0.289502  0.393755  0  0.943451  0
H  H12  1  0.41662077  0.74157173  0.60522653  1  0  0.435888  0  0.863943  0  0  0.402064  0  0.931343  0  0  0.413785  0  0.914228  0  0  0.289537  0.393776  0  0.943435  0
H  H13  1  0.42348928  0.31109961  0.49449206  1  0  0.440947  0  0.853519  0  0  0.409541  0  0.91669  0  0  0.420287  0  0.900858  0  0  0.297104  0.401957  0  0.927839  0
H  H14  1  0.57651182  0.68890198  0.50550894  1  0  0.440908  0  0.853568  0  0  0.40951  0  0.91672  0  0  0.420254  0  0.90089  0  0  0.297073  0.401929  0  0.92786  0
H  H15  1  0.81876970  0.01491550  0.37520529  1  0  0.423514  0  0.865758  0  0  0.397082  0  0.930459  0  0  0.406801  0  0.916053  0  0  0.296029  0.390147  0  0.940776  0
H  H16  1  0.18123092  0.98508353  0.62479376  1  0  0.423533  0  0.865732  0  0  0.397098  0  0.930437  0  0  0.406818  0  0.916028  0  0  0.296043  0.390167  0  0.94075  0
H  H17  1  0.67306563  0.85697012  0.25261044  1  0  0.423785  0  0.876584  0  0  0.392271  0  0.941593  0  0  0.40289  0  0.926105  0  0  0.294764  0.384825  0  0.952483  0
H  H18  1  0.32693523  0.14303019  0.74738905  1  0  0.423788  0  0.876579  0  0  0.392273  0  0.941591  0  0  0.402891  0  0.926105  0  0  0.294768  0.38483  0  0.952478  0
H  H19  1  0.01348054  0.21266590  0.60773285  1  0  0.124556  0  0.984823  0  0  0.133625  0  1.049427  0  0  0.138166  0  1.046308  0  0  0.111721  0.13035  0  1.051797  0
H  H20  1  0.98652032  0.78733440  0.39226877  1  0  0.124579  0  0.984833  0  0  0.133648  0  1.049433  0  0  0.138189  0  1.046314  0  0  0.111735  0.130375  0  1.051801  0
H  H21  1  0.62513599  0.40520789  0.90035307  1  0  0.144832  0  0.945971  0  0  0.149714  0  1.013026  0  0  0.15479  0  1.009312  0  0  0.113777  0.146022  0  1.015921  0
H  H22  1  0.37486323  0.59479115  0.09964470  1  0  0.144852  0  0.946023  0  0  0.149712  0  1.0131  0  0  0.154788  0  1.009387  0  0  0.113778  0.146019  0  1.015999  0
C  C23  1  0.03752808  0.48424112  0.71991174  1  0  0.126983  0  3.783584  0  0  0.125581  0  4.034075  0  0  0.129615  0  4.053092  0  0  0.107184  0.122644  0  4.022189  0
C  C24  1  0.96247419  0.51575918  0.28008797  1  0  0.126927  0  3.783642  0  0  0.1255  0  4.034167  0  0  0.129534  0  4.053186  0  0  0.107159  0.122566  0  4.022276  0
C  C25  1  0.95777800  0.31666776  0.68359323  1  0  -0.217422  0  3.635294  0  0  -0.251159  0  3.891791  0  0  -0.259689  0  3.909087  0  0  -0.094535  -0.245601  0  3.880825  0
C  C26  1  0.04222263  0.68333127  0.31640796  1  0  -0.21747  0  3.635371  0  0  -0.251201  0  3.891871  0  0  -0.259731  0  3.909165  0  0  -0.094559  -0.245658  0  3.880913  0
C  C27  1  0.80534854  0.28080285  0.74621886  1  0  0.410889  0  3.843278  0  0  0.393435  0  4.108136  0  0  0.411604  0  4.119653  0  0  0.096591  0.381004  0  4.09999  0
C  C28  1  0.19465233  0.71919746  0.25378169  1  0  0.410962  0  3.843224  0  0  0.393513  0  4.108065  0  0  0.411684  0  4.119577  0  0  0.096602  0.381096  0  4.099899  0
C  C29  1  0.74292113  0.42219136  0.84813841  1  0  -0.212856  0  3.598807  0  0  -0.245129  0  3.85583  0  0  -0.252879  0  3.871976  0  0  -0.08692  -0.239768  0  3.845232  0
C  C30  1  0.25707949  0.57780767  0.15185957  1  0  -0.212912  0  3.598905  0  0  -0.245162  0  3.855917  0  0  -0.252913  0  3.872062  0  0  -0.086924  -0.239803  0  3.84532  0
C  C31  1  0.83577267  0.58576982  0.88276340  1  0  0.126791  0  3.765658  0  0  0.126404  0  4.014952  0  0  0.129754  0  4.034198  0  0  0.108516  0.124065  0  4.002252  0
C  C32  1  0.16422679  0.41423049  0.11723587  1  0  0.126781  0  3.765749  0  0  0.1264  0  4.015012  0  0  0.129751  0  4.034261  0  0  0.108501  0.124059  0  4.00231  0
C  C33  1  0.19325524  0.53071707  0.64901907  1  0  0.635032  0  3.880552  0  0  0.578389  0  4.180193  0  0  0.611265  0  4.172663  0  0  0.219764  0.555799  0  4.18479  0
C  C34  1  0.80674257  0.46928197  0.35097955  1  0  0.635098  0  3.880493  0  0  0.578461  0  4.180133  0  0  0.611336  0  4.172606  0  0  0.219772  0.555864  0  4.184733  0
C  C35  1  0.78788593  0.74326611  0.99755517  1  0  0.648848  0  3.86861  0  0  0.590233  0  4.165749  0  0  0.624187  0  4.157436  0  0  0.225398  0.567226  0  4.170819  0
C  C36  1  0.21211329  0.25673293  0.00244260  1  0  0.648703  0  3.868791  0  0  0.590119  0  4.165903  0  0  0.624072  0  4.157593  0  0  0.225392  0.567123  0  4.170968  0
N  N37  1  0.97943255  0.61618990  0.81964340  1  0  -0.407003  0  3.393069  0  0  -0.341833  0  3.660383  0  0  -0.361659  0  3.678325  0  0  -0.344375  -0.328543  0  3.649019  0
N  N38  1  0.02056667  0.38380914  0.18035651  1  0  -0.406992  0  3.392995  0  0  -0.341814  0  3.660296  0  0  -0.361639  0  3.678241  0  0  -0.34439  -0.32852  0  3.648921  0
O  O39  1  0.35344624  0.91673980  0.04423977  1  0  -0.832703  0  1.94933  0  0  -0.765507  0  2.172232  0  0  -0.788122  0  2.135888  0  0  -0.580341  -0.749654  0  2.197407  0
O  O40  1  0.64655322  0.08326052  0.95575951  1  0  -0.832722  0  1.949334  0  0  -0.765524  0  2.172237  0  0  -0.788138  0  2.135891  0  0  -0.580338  -0.749673  0  2.197414  0
O  O41  1  0.96873117  0.88859801  0.66317595  1  0  -0.847907  0  1.981682  0  0  -0.778888  0  2.208394  0  0  -0.802549  0  2.172176  0  0  -0.562137  -0.762123  0  2.233639  0
O  O42  1  0.03126946  0.11140102  0.33682417  1  0  -0.847876  0  1.981619  0  0  -0.778862  0  2.208326  0  0  -0.802525  0  2.172117  0  0  -0.562125  -0.762094  0  2.233576  0
O  O43  1  0.49830919  0.22039256  0.45282889  1  0  -0.87791  0  1.916442  0  0  -0.812141  0  2.129232  0  0  -0.83365  0  2.092962  0  0  -0.587749  -0.796728  0  2.154255  0
O  O44  1  0.50169519  0.77961157  0.54717661  1  0  -0.877875  0  1.916484  0  0  -0.812121  0  2.129248  0  0  -0.833638  0  2.092994  0  0  -0.587752  -0.79671  0  2.154265  0
O  O45  1  0.70908718  0.93176706  0.36600062  1  0  -0.835728  0  1.899471  0  0  -0.774164  0  2.104825  0  0  -0.794086  0  2.071402  0  0  -0.577544  -0.760047  0  2.128154  0
O  O46  1  0.29091368  0.06823324  0.63399780  1  0  -0.83576  0  1.899469  0  0  -0.774184  0  2.104807  0  0  -0.794107  0  2.071385  0  0  -0.577556  -0.760072  0  2.128133  0
O  O47  1  0.23546729  0.41335134  0.53902397  1  0  -0.619669  0  2.026664  0  0  -0.557298  0  2.247245  0  0  -0.581805  0  2.237255  0  0  -0.304823  -0.539727  0  2.253722  0
O  O48  1  0.76453334  0.58664769  0.46097615  1  0  -0.619666  0  2.026664  0  0  -0.557295  0  2.247231  0  0  -0.581803  0  2.237243  0  0  -0.304808  -0.539731  0  2.253713  0
O  O49  1  0.26953162  0.68785536  0.70326744  1  0  -0.620592  0  2.018862  0  0  -0.548149  0  2.253155  0  0  -0.575736  0  2.241491  0  0  -0.297723  -0.52902  0  2.260813  0
O  O50  1  0.73046901  0.31214367  0.29673162  1  0  -0.620617  0  2.018824  0  0  -0.548168  0  2.253119  0  0  -0.575756  0  2.241459  0  0  -0.297726  -0.529039  0  2.260775  0
O  O51  1  0.90325871  0.88073386  0.03013134  1  0  -0.649758  0  2.153387  0  0  -0.564532  0  2.426461  0  0  -0.594789  0  2.412039  0  0  -0.307116  -0.543376  0  2.435613  0
O  O52  1  0.09673934  0.11926646  0.96986879  1  0  -0.649571  0  2.153439  0  0  -0.564418  0  2.426558  0  0  -0.594676  0  2.412145  0  0  -0.30707  -0.543289  0  2.435731  0
O  O53  1  0.64658557  0.73080095  0.05461182  1  0  -0.61712  0  2.001476  0  0  -0.556309  0  2.22067  0  0  -0.579899  0  2.209691  0  0  -0.300505  -0.540199  0  2.228143  0
O  O54  1  0.35341225  0.26919809  0.94538573  1  0  -0.617068  0  2.001467  0  0  -0.556266  0  2.220651  0  0  -0.579854  0  2.209673  0  0  -0.300512  -0.540158  0  2.228119  0
O  O55  1  0.72687208  0.12045278  0.71014092  1  0  -0.688251  0  2.140927  0  0  -0.599476  0  2.370735  0  0  -0.627829  0  2.362577  0  0  -0.331051  -0.57942  0  2.375799  0
O  O56  1  0.27312878  0.87954753  0.28985964  1  0  -0.688287  0  2.140912  0  0  -0.599515  0  2.370721  0  0  -0.627868  0  2.36256  0  0  -0.331059  -0.57947  0  2.375785  0
