# generated using pymatgen
data_CuH16C11(NO4)2
_symmetry_space_group_name_H-M   'P 1'
_cell_length_a   6.82259052
_cell_length_b   9.76694628
_cell_length_c   11.93461009
_cell_angle_alpha   72.82021170
_cell_angle_beta   73.38870291
_cell_angle_gamma   69.55456145
_symmetry_Int_Tables_number   1
_chemical_formula_structural   CuH16C11(NO4)2
_chemical_formula_sum   'Cu2 H32 C22 N4 O16'
_cell_volume   696.94306366
_cell_formula_units_Z   2
loop_
 _symmetry_equiv_pos_site_id
 _symmetry_equiv_pos_as_xyz
  1  'x, y, z'
loop_
 _atom_site_type_symbol
 _atom_site_label
 _atom_site_symmetry_multiplicity
 _atom_site_fract_x
 _atom_site_fract_y
 _atom_site_fract_z
 _atom_site_occupancy
 _atom_site_hle17_ddec_charge
 _atom_site_hle17_ddec_spin_density
 _atom_site_hle17_ddec_sum_bond_order
 _atom_site_hle17_magmom
 _atom_site_hse06_10hf_ddec_charge
 _atom_site_hse06_10hf_ddec_spin_density
 _atom_site_hse06_10hf_ddec_sum_bond_order
 _atom_site_hse06_10hf_magmom
 _atom_site_hse06_ddec_charge
 _atom_site_hse06_ddec_spin_density
 _atom_site_hse06_ddec_sum_bond_order
 _atom_site_hse06_magmom
 _atom_site_pbe_cm5_charge
 _atom_site_pbe_ddec_charge
 _atom_site_pbe_ddec_spin_density
 _atom_site_pbe_ddec_sum_bond_order
 _atom_site_pbe_magmom
Cu  Cu0  1  0.00000252  0.00000001  0.99999749  1  0.777709  -0.658341  1.771976  -0.482  0.747273  -0.754636  2.13988  -0.6  0.833833  -0.818243  2.08466  -0.682  0.721887  0.693457  -0.712088  2.179425  -0.548
Cu  Cu1  1  0.00000152  0.50000216  0.49999828  1  0.778653  -0.657876  1.771515  -0.482  0.746504  -0.754055  2.141277  -0.599  0.833973  -0.817781  2.08503  -0.682  0.721484  0.693286  -0.711488  2.179836  -0.548
H  H2  1  0.76104835  0.82946715  0.83005366  1  0.123703  -0.003607  0.921762  -0.005  0.134168  -0.00232  0.98283  -0.003  0.136722  -0.001646  0.981172  -0.002  0.119576  0.13232  -0.002802  0.984049  -0.004
H  H3  1  0.42055535  0.67049831  0.67000161  1  0.123746  -0.003633  0.92119  -0.005  0.134057  -0.002342  0.98206  -0.003  0.136579  -0.001657  0.980414  -0.002  0.119521  0.132107  -0.002804  0.983451  -0.004
H  H4  1  0.23895197  0.17053277  0.16994735  1  0.123712  -0.003602  0.921796  -0.005  0.13418  -0.00232  0.982858  -0.003  0.136734  -0.001645  0.9812  -0.002  0.119575  0.132337  -0.002801  0.984079  -0.004
H  H5  1  0.57944371  0.32950049  0.32999825  1  0.123728  -0.003632  0.921227  -0.005  0.134068  -0.002342  0.98207  -0.003  0.136573  -0.001658  0.980444  -0.002  0.119515  0.132119  -0.002804  0.983464  -0.004
H  H6  1  0.61969050  0.91678350  0.94958306  1  0.121734  -6.4e-05  0.940674  0.0  0.130106  -5.3e-05  1.009013  0.0  0.133554  -4.5e-05  1.005989  0.0  0.12028  0.127664  -7.3e-05  1.011214  0.0
H  H7  1  0.48609658  0.58322121  0.55046530  1  0.121478  -6.3e-05  0.940837  0.0  0.12995  -6.2e-05  1.008696  0.0  0.133337  -5e-05  1.005703  0.0  0.120081  0.127479  -7.6e-05  1.01098  0.0
H  H8  1  0.38030770  0.08321642  0.05041853  1  0.121775  -5.7e-05  0.940653  0.0  0.130141  -5.3e-05  1.009002  0.0  0.133589  -4.5e-05  1.005976  0.0  0.120286  0.127697  -7.3e-05  1.0112  0.0
H  H9  1  0.51390423  0.41677648  0.44953500  1  0.121483  -6.2e-05  0.940872  0.0  0.129959  -6.1e-05  1.00873  0.0  0.133347  -5e-05  1.005732  0.0  0.120093  0.127488  -7.6e-05  1.011012  0.0
H  H10  1  0.08355184  0.97869539  0.67874574  1  0.130327  -0.001062  0.90411  -0.001  0.144825  -0.000834  0.958071  -0.001  0.147788  -0.000604  0.955776  -0.001  0.122694  0.142537  -0.000996  0.959905  -0.001
H  H11  1  0.74110104  0.52152115  0.82118606  1  0.130032  -0.001068  0.904277  -0.001  0.144888  -0.000824  0.958236  -0.001  0.147823  -0.000596  0.955965  -0.001  0.122797  0.142627  -0.000985  0.960147  -0.001
H  H12  1  0.91644804  0.02130453  0.32125418  1  0.130324  -0.001065  0.904115  -0.001  0.144825  -0.000834  0.958071  -0.001  0.147788  -0.000604  0.955776  -0.001  0.122693  0.14254  -0.000997  0.959904  -0.001
H  H13  1  0.25890186  0.47847766  0.17881456  1  0.130016  -0.00107  0.904287  -0.001  0.144893  -0.000824  0.958238  -0.001  0.147827  -0.000596  0.955968  -0.001  0.122814  0.142627  -0.000985  0.960151  -0.001
H  H14  1  0.13769394  0.80375385  0.78114530  1  0.127348  -3.4e-05  0.942756  0.0  0.140408  -9e-05  1.002246  0.0  0.142865  -7.5e-05  1.001168  0.0  0.121275  0.13849  -9.9e-05  1.00322  0.0
H  H15  1  0.72289106  0.69635848  0.71869099  1  0.126667  -3.5e-05  0.942932  0.0  0.139929  -9e-05  1.002638  0.0  0.142382  -7.6e-05  1.001517  0.0  0.121137  0.138105  -9.9e-05  1.003519  0.0
H  H16  1  0.86230593  0.19624607  0.21885462  1  0.127378  -3.1e-05  0.942721  0.0  0.140418  -9e-05  1.002239  0.0  0.142876  -7.6e-05  1.001157  0.0  0.121275  0.138511  -0.0001  1.003205  0.0
H  H17  1  0.27710928  0.30364032  0.28130912  1  0.12666  -3.6e-05  0.942908  0.0  0.139934  -9e-05  1.002608  0.0  0.14239  -7.6e-05  1.001489  0.0  0.121144  0.138105  -9.9e-05  1.003491  0.0
H  H18  1  0.61453162  0.14926243  0.87460314  1  0.077203  -0.000402  0.927663  -0.001  0.092077  -0.000333  0.990435  -0.001  0.092597  -0.000224  0.990403  0.0  0.10875  0.091448  -0.000421  0.990779  -0.001
H  H19  1  0.63851062  0.35082769  0.62540183  1  0.07725  -0.000419  0.927394  -0.001  0.091938  -0.000349  0.990187  -0.001  0.092446  -0.000235  0.990141  0.0  0.10858  0.091319  -0.00044  0.99049  -0.001
H  H20  1  0.38546742  0.85073750  0.12539762  1  0.077228  -0.000399  0.927637  -0.001  0.092092  -0.000333  0.990414  -0.001  0.09262  -0.000224  0.990383  0.0  0.10875  0.091464  -0.00042  0.990763  -0.001
H  H21  1  0.36148888  0.64917112  0.37459912  1  0.077261  -0.000413  0.927372  -0.001  0.091951  -0.000349  0.99017  -0.001  0.092459  -0.000235  0.990125  0.0  0.108591  0.091329  -0.00044  0.990473  -0.001
H  H22  1  0.70050680  0.09612221  0.73469871  1  0.076677  -0.004514  0.922945  -0.006  0.090994  -0.002927  0.984401  -0.004  0.091831  -0.002059  0.983757  -0.003  0.105862  0.090069  -0.003564  0.985077  -0.004
H  H23  1  0.53138797  0.40398399  0.76528300  1  0.076235  -0.004501  0.924053  -0.006  0.090949  -0.002905  0.984748  -0.004  0.091796  -0.002043  0.98407  -0.003  0.105704  0.090151  -0.003536  0.985372  -0.004
H  H24  1  0.29949224  0.90387771  0.26530205  1  0.076689  -0.004513  0.922948  -0.006  0.090996  -0.002927  0.984412  -0.004  0.091837  -0.002059  0.983774  -0.003  0.105868  0.090072  -0.003563  0.9851  -0.004
H  H25  1  0.46861235  0.59601593  0.23471801  1  0.076228  -0.004491  0.924086  -0.006  0.090961  -0.002905  0.984767  -0.004  0.091808  -0.002043  0.984088  -0.003  0.105704  0.090163  -0.003536  0.985393  -0.004
H  H26  1  0.89561065  0.27731114  0.82023547  1  0.091595  0.000219  0.986485  0.0  0.106021  0.000232  1.052231  0.0  0.106951  0.000254  1.05236  0.0  0.093958  0.105125  0.0002  1.052504  0.0
H  H27  1  0.99315996  0.22263782  0.67985318  1  0.091619  0.000219  0.986756  0.0  0.10648  0.000231  1.051927  0.0  0.107375  0.000254  1.052118  0.0  0.093916  0.10559  0.000187  1.052206  0.0
H  H28  1  0.10438966  0.72268878  0.17976554  1  0.091594  0.000219  0.986527  0.0  0.105991  0.000231  1.052297  0.0  0.106922  0.000254  1.052426  0.0  0.093937  0.105093  0.0002  1.05257  0.0
H  H29  1  0.00683862  0.77736322  0.32014739  1  0.091599  0.000217  0.986764  0.0  0.106464  0.000231  1.051931  0.0  0.107359  0.000254  1.052122  0.0  0.093907  0.105577  0.000187  1.052205  0.0
H  H30  1  0.83023423  0.55000777  0.10128286  1  0.410908  8.7e-05  0.879531  0.0  0.37903  7e-06  0.960905  0.0  0.39082  1.8e-05  0.944223  0.0  0.307768  0.370627  -4e-06  0.96998  0.0
H  H31  1  0.48154442  0.95002045  0.39877346  1  0.411968  7.4e-05  0.877967  0.0  0.379325  -3e-06  0.960657  0.0  0.391162  1.1e-05  0.943872  0.0  0.307868  0.370907  -2.2e-05  0.96975  0.0
H  H32  1  0.16976737  0.44999215  0.89871840  1  0.410919  8.8e-05  0.879536  0.0  0.379041  7e-06  0.960904  0.0  0.390831  1.8e-05  0.944211  0.0  0.307769  0.370634  -4e-06  0.969995  0.0
H  H33  1  0.51845383  0.04997724  0.60122634  1  0.412004  7.3e-05  0.877902  0.0  0.379365  -3e-06  0.960586  0.0  0.391202  1.1e-05  0.94381  0.0  0.307896  0.37095  -2.2e-05  0.969674  0.0
C  C34  1  0.29348997  0.95108292  0.79301798  1  0.7004  0.005212  3.809971  0.004  0.654213  0.000514  4.114464  0.0  0.690647  0.000889  4.106153  0.001  0.220343  0.629326  0.000187  4.119331  0.0
C  C35  1  0.03781989  0.54886491  0.70692807  1  0.701195  0.005212  3.809613  0.004  0.655169  0.000518  4.114227  0.0  0.691588  0.000891  4.105933  0.001  0.22089  0.630363  0.000211  4.119008  0.0
C  C36  1  0.70650991  0.04891701  0.20698194  1  0.700413  0.005202  3.809983  0.004  0.65424  0.000514  4.114458  0.0  0.690674  0.000887  4.106148  0.001  0.220344  0.629348  0.000186  4.119338  0.0
C  C37  1  0.96218126  0.45113501  0.29307211  1  0.701299  0.00522  3.809502  0.004  0.655145  0.000517  4.114315  0.0  0.691565  0.000892  4.106021  0.001  0.220852  0.630342  0.000212  4.119072  0.0
C  C38  1  0.78176396  0.86466146  0.90437616  1  -0.193284  0.00329  3.643329  0.004  -0.249225  0.000505  3.899467  0.002  -0.251117  0.0016  3.908035  0.002  -0.07269  -0.247548  -0.000425  3.893735  0.001
C  C39  1  0.55080626  0.63536773  0.59566105  1  -0.191944  0.003253  3.641009  0.004  -0.246894  0.000507  3.895939  0.002  -0.248539  0.001602  3.904325  0.002  -0.072023  -0.245441  -0.000436  3.890581  0.001
C  C40  1  0.21823551  0.13533846  0.09562569  1  -0.19335  0.003235  3.64346  0.004  -0.249304  0.000506  3.899564  0.002  -0.251205  0.001597  3.908154  0.002  -0.072674  -0.247625  -0.000425  3.893835  0.001
C  C41  1  0.44919362  0.36463219  0.40433887  1  -0.191963  0.003241  3.641079  0.004  -0.246944  0.000506  3.896003  0.002  -0.248579  0.001603  3.904404  0.002  -0.072022  -0.245492  -0.000437  3.890647  0.001
C  C42  1  0.10144550  0.92499808  0.77178078  1  -0.20808  0.001864  3.60769  0.003  -0.261283  -0.000373  3.856161  0.001  -0.263539  0.000512  3.864969  0.001  -0.075497  -0.259468  -0.001086  3.850391  0.001
C  C43  1  0.79837236  0.57510538  0.72815953  1  -0.206169  0.001927  3.605412  0.003  -0.260838  -0.00037  3.855548  0.001  -0.263118  0.000521  3.864561  0.001  -0.075802  -0.259259  -0.001068  3.84992  0.001
C  C44  1  0.89855519  0.07500296  0.22821920  1  -0.208111  0.001872  3.607665  0.003  -0.261316  -0.000378  3.856156  0.001  -0.263568  0.000515  3.864958  0.001  -0.0755  -0.259502  -0.001086  3.850374  0.001
C  C45  1  0.20162496  0.42489455  0.27183989  1  -0.206177  0.001926  3.605394  0.003  -0.260878  -0.000366  3.855643  0.001  -0.263162  0.000519  3.864658  0.001  -0.075808  -0.259277  -0.001068  3.849993  0.001
C  C46  1  0.75531692  0.11942427  0.80379569  1  -0.000954  0.003526  3.588656  0.004  -0.053217  0.000601  3.854329  0.001  -0.048851  0.001652  3.866958  0.002  -0.069097  -0.055815  -0.000254  3.846074  0.001
C  C47  1  0.67860416  0.38063162  0.69622788  1  0.000622  0.003503  3.588902  0.004  -0.051449  0.000538  3.853874  0.001  -0.047051  0.001609  3.866503  0.002  -0.068286  -0.054039  -0.000346  3.845431  0.001
C  C48  1  0.24468212  0.88057565  0.19620506  1  -0.001037  0.003504  3.588699  0.004  -0.053289  0.000602  3.85438  0.001  -0.048955  0.001654  3.867056  0.002  -0.069117  -0.055892  -0.000254  3.846146  0.001
C  C49  1  0.32139488  0.61936830  0.30377288  1  0.000555  0.003451  3.588876  0.004  -0.051552  0.000538  3.853887  0.001  -0.047152  0.001611  3.866511  0.002  -0.06831  -0.054138  -0.000346  3.845447  0.001
C  C50  1  0.85054413  0.25001632  0.75001993  1  -0.181534  -0.000294  3.683089  -0.001  -0.230444  5e-06  3.944479  -0.001  -0.233811  0.000291  3.960066  -0.001  -0.181382  -0.227967  -0.000282  3.93397  -0.001
C  C51  1  0.14945529  0.74998472  0.24997980  1  -0.18146  -0.000284  3.683083  -0.001  -0.230343  5e-06  3.944478  -0.001  -0.233704  0.00029  3.96008  -0.001  -0.181358  -0.227863  -0.000282  3.933966  -0.001
C  C52  1  0.88459433  0.72923885  0.99118780  1  0.690899  -0.00078  3.787745  -0.001  0.640145  -0.000595  4.100912  -0.001  0.672895  -0.000308  4.091848  -0.001  0.230482  0.61762  -0.000821  4.106828  -0.001
C  C53  1  0.60497320  0.77080688  0.50885852  1  0.692292  -0.000705  3.785061  -0.001  0.640572  -0.000549  4.098794  -0.001  0.673299  -0.000274  4.089782  -0.001  0.230877  0.61814  -0.000825  4.10463  -0.001
C  C54  1  0.11540764  0.27076220  0.00881243  1  0.690864  -0.000768  3.787802  -0.001  0.640164  -0.000596  4.100891  -0.001  0.672915  -0.000308  4.091824  -0.001  0.230482  0.617638  -0.000821  4.106815  -0.001
C  C55  1  0.39502549  0.22919080  0.49114238  1  0.692333  -0.000711  3.784997  -0.001  0.640599  -0.000548  4.098754  -0.001  0.673328  -0.000275  4.089736  -0.001  0.23081  0.618168  -0.000825  4.104596  -0.001
N  N56  1  0.90121931  0.97689080  0.85874727  1  -0.136626  -0.08953  3.254988  -0.115  -0.070954  -0.060609  3.521221  -0.083  -0.098591  -0.048811  3.549734  -0.073  -0.343285  -0.054402  -0.066856  3.503495  -0.087
N  N57  1  0.73693876  0.52316842  0.64126365  1  -0.139872  -0.089534  3.252702  -0.115  -0.074071  -0.060679  3.519493  -0.083  -0.102  -0.048866  3.548271  -0.073  -0.343971  -0.057341  -0.066894  3.501528  -0.087
N  N58  1  0.09878010  0.02311025  0.14125246  1  -0.136569  -0.08951  3.254976  -0.115  -0.070892  -0.060606  3.521202  -0.083  -0.098518  -0.048809  3.549721  -0.073  -0.343273  -0.05434  -0.066851  3.503485  -0.087
N  N59  1  0.26306286  0.47683038  0.35873671  1  -0.139823  -0.089529  3.252651  -0.115  -0.073984  -0.060683  3.519436  -0.083  -0.101911  -0.048867  3.548211  -0.073  -0.343971  -0.05726  -0.066896  3.501475  -0.087
O  O60  1  0.46610889  0.92785219  0.71696238  1  -0.621238  -0.013767  1.985081  -0.017  -0.57151  -0.007284  2.212691  -0.01  -0.597577  -0.003897  2.202153  -0.005  -0.313246  -0.552352  -0.010924  2.218324  -0.014
O  O61  1  0.11123913  0.57205052  0.78296068  1  -0.621283  -0.013948  1.985538  -0.018  -0.571734  -0.007416  2.212854  -0.01  -0.597715  -0.003972  2.202194  -0.006  -0.313528  -0.552649  -0.011174  2.218531  -0.014
O  O62  1  0.53389055  0.07214774  0.28303645  1  -0.621253  -0.013769  1.985107  -0.017  -0.571526  -0.007285  2.212708  -0.01  -0.597594  -0.003898  2.20217  -0.005  -0.313253  -0.552366  -0.010925  2.218346  -0.014
O  O63  1  0.88876118  0.42794940  0.21704033  1  -0.621302  -0.013947  1.985475  -0.018  -0.571703  -0.007416  2.212862  -0.01  -0.597683  -0.003972  2.202201  -0.006  -0.31351  -0.552627  -0.011175  2.218534  -0.014
O  O64  1  0.27332319  0.99162950  0.88998879  1  -0.584567  -0.071686  2.056899  -0.098  -0.547269  -0.049728  2.334953  -0.073  -0.587185  -0.039466  2.32641  -0.063  -0.325892  -0.521171  -0.055769  2.341274  -0.078
O  O65  1  0.15518448  0.50820254  0.60999881  1  -0.585217  -0.071567  2.057792  -0.098  -0.54717  -0.049721  2.33541  -0.073  -0.587286  -0.039487  2.326815  -0.063  -0.325422  -0.521164  -0.055728  2.34159  -0.078
O  O66  1  0.72667712  0.00837042  0.11001223  1  -0.584562  -0.071685  2.056887  -0.098  -0.547268  -0.049726  2.334927  -0.073  -0.587185  -0.039463  2.326385  -0.063  -0.325876  -0.521167  -0.055766  2.341246  -0.078
O  O67  1  0.84481667  0.49179739  0.39000136  1  -0.585251  -0.071569  2.057695  -0.098  -0.547157  -0.049723  2.335376  -0.073  -0.587273  -0.03949  2.32678  -0.063  -0.325417  -0.521157  -0.055732  2.341552  -0.078
O  O68  1  0.76555430  0.63566619  0.03693597  1  -0.540428  -0.000337  2.059249  0.0  -0.490065  -0.000415  2.272578  0.0  -0.511166  -0.000231  2.254616  0.0  -0.330967  -0.47519  -0.000642  2.282623  -0.001
O  O69  1  0.43811221  0.86434937  0.46307303  1  -0.542446  -0.00027  2.055653  0.0  -0.491192  -0.000403  2.269595  0.0  -0.512335  -0.000217  2.251555  0.0  -0.331712  -0.47631  -0.000579  2.279522  0.0
O  O70  1  0.23444556  0.36433485  0.96306485  1  -0.54043  -0.000338  2.059314  0.0  -0.490081  -0.000416  2.27262  0.0  -0.511181  -0.000229  2.254648  0.0  -0.330964  -0.475197  -0.000641  2.28267  -0.001
O  O71  1  0.56188642  0.13564944  0.53692574  1  -0.54251  -0.000264  2.055642  0.0  -0.491254  -0.000403  2.2696  0.0  -0.512395  -0.000217  2.25156  0.0  -0.33173  -0.476372  -0.000579  2.279525  0.0
O  O72  1  0.05558970  0.71107430  0.01722728  1  -0.564138  0.000855  1.95579  0.0  -0.527355  0.001032  2.180002  0.0  -0.549152  0.001414  2.169743  0.0  -0.290627  -0.512562  0.00057  2.18737  0.0
O  O73  1  0.78381129  0.78899699  0.48285029  1  -0.564316  0.000717  1.955972  0.0  -0.527476  0.000934  2.180828  0.0  -0.54934  0.001332  2.170622  0.0  -0.290626  -0.512734  0.000464  2.187977  -0.001
O  O74  1  0.94441311  0.28892674  0.98277212  1  -0.564132  0.000854  1.955795  0.0  -0.527363  0.001033  2.179961  0.0  -0.549161  0.001412  2.169708  0.0  -0.29065  -0.512573  0.00057  2.187343  0.0
O  O75  1  0.21618647  0.21100293  0.51715021  1  -0.564297  0.00072  1.955928  0.0  -0.527445  0.000933  2.180776  0.0  -0.549309  0.001334  2.170571  0.0  -0.290551  -0.512698  0.000464  2.187929  -0.001
