# generated using pymatgen
data_CdH10C12(SN2)2
_symmetry_space_group_name_H-M   'P 1'
_cell_length_a   7.78734848
_cell_length_b   8.48981838
_cell_length_c   17.69892542
_cell_angle_alpha   88.23759035
_cell_angle_beta   85.72982543
_cell_angle_gamma   62.70920831
_symmetry_Int_Tables_number   1
_chemical_formula_structural   CdH10C12(SN2)2
_chemical_formula_sum   'Cd3 H30 C36 S6 N12'
_cell_volume   1036.99156514
_cell_formula_units_Z   3
loop_
 _symmetry_equiv_pos_site_id
 _symmetry_equiv_pos_as_xyz
  1  'x, y, z'
loop_
 _atom_site_type_symbol
 _atom_site_label
 _atom_site_symmetry_multiplicity
 _atom_site_fract_x
 _atom_site_fract_y
 _atom_site_fract_z
 _atom_site_occupancy
 _atom_site_pbe_bader_charge
 _atom_site_pbe_bader_spin_density
 _atom_site_pbe_cm5_charge
 _atom_site_pbe_ddec_charge
 _atom_site_pbe_ddec_spin_density
 _atom_site_pbe_ddec_sum_bond_order
 _atom_site_pbe_magmom
Cd  Cd0  1  0.91956571  0.99971391  0.16524135  1  1.177499  0  0.71849  0.721803  0  2.522347  0
Cd  Cd1  1  0.08044426  0.00028448  0.83475401  1  1.177618  0  0.718458  0.721771  0  2.522339  0
Cd  Cd2  1  0.99999699  0.99999878  0.49999822  1  1.196435  0  0.705917  0.720891  0  2.489915  0
H  H3  1  0.04091897  0.67300693  0.05099385  1  0.079662  0  0.106381  0.072208  0  1.03597  0
H  H4  1  0.28527832  0.67479577  0.94953350  1  0.078828  0  0.106307  0.072012  0  1.035367  0
H  H5  1  0.95909096  0.32699412  0.94900261  1  0.079467  0  0.106395  0.072233  0  1.035905  0
H  H6  1  0.71471652  0.32522517  0.05046823  1  0.079033  0  0.106346  0.072071  0  1.035483  0
H  H7  1  0.17729840  0.34127179  0.04807936  1  0.096284  0  0.101513  0.107071  0  1.026561  0
H  H8  1  0.48136275  0.34311206  0.95197467  1  0.071143  0  0.102002  0.107533  0  1.025273  0
H  H9  1  0.82270322  0.65872528  0.95191631  1  0.096436  0  0.101567  0.107198  0  1.026592  0
H  H10  1  0.51863666  0.65690493  0.04803545  1  0.07067  0  0.101984  0.107573  0  1.025319  0
H  H11  1  0.26597385  0.17504626  0.17006864  1  0.107146  0  0.102242  0.106902  0  1.012111  0
H  H12  1  0.56002692  0.17556259  0.82978496  1  0.119134  0  0.102427  0.106875  0  1.012133  0
H  H13  1  0.73402125  0.82495612  0.82992885  1  0.107136  0  0.102254  0.106919  0  1.012043  0
H  H14  1  0.43997202  0.82444248  0.17022819  1  0.119148  0  0.102446  0.106986  0  1.012061  0
H  H15  1  0.22777527  0.34364210  0.28918649  1  0.083893  0  0.098573  0.101422  0  1.040353  0
H  H16  1  0.42970859  0.34283463  0.71086851  1  0.08446  0  0.098566  0.101282  0  1.03969  0
H  H17  1  0.77221530  0.65636160  0.71081000  1  0.083868  0  0.098617  0.101464  0  1.040329  0
H  H18  1  0.57029130  0.65714791  0.28914043  1  0.08437  0  0.098557  0.101256  0  1.039771  0
H  H19  1  0.09063438  0.67568124  0.28186323  1  0.068921  0  0.109486  0.07885  0  1.017224  0
H  H20  1  0.23420021  0.67486117  0.71868891  1  0.07825  0  0.109143  0.078371  0  1.016611  0
H  H21  1  0.90935616  0.32432512  0.71813548  1  0.06891  0  0.109482  0.07885  0  1.017288  0
H  H22  1  0.76579062  0.32512398  0.28130899  1  0.078224  0  0.109136  0.078397  0  1.016467  0
H  H23  1  0.70151452  0.33196097  0.60573040  1  0.109815  0  0.10096  0.06533  0  1.054727  0
H  H24  1  0.96686672  0.33160117  0.39464363  1  0.079822  0  0.101203  0.065886  0  1.053322  0
H  H25  1  0.29848202  0.66803080  0.39426438  1  0.109815  0  0.100941  0.065318  0  1.054701  0
H  H26  1  0.03312830  0.66840651  0.60535491  1  0.079643  0  0.101179  0.065903  0  1.053315  0
H  H27  1  0.53192156  0.66477101  0.61146364  1  0.10337  0  0.102923  0.110826  0  1.022443  0
H  H28  1  0.80340548  0.66443372  0.38978642  1  0.107133  0  0.103315  0.111191  0  1.021801  0
H  H29  1  0.46806850  0.33522344  0.38854092  1  0.103542  0  0.102941  0.110809  0  1.02248  0
H  H30  1  0.19659466  0.33557661  0.61021360  1  0.107212  0  0.103319  0.111224  0  1.022029  0
H  H31  1  0.58285354  0.83353182  0.50076194  1  0.093535  0  0.099823  0.106216  0  1.013805  0
H  H32  1  0.41714547  0.16646793  0.49924281  1  0.092896  0  0.099738  0.106082  0  1.013713  0
C  C33  1  0.17535039  0.00040759  0.31680575  1  0.579001  0  0.148683  0.257775  0  4.299637  0
C  C34  1  0.82465438  0.99959345  0.68319031  1  0.578833  0  0.148761  0.257884  0  4.299653  0
C  C35  1  0.73473569  0.99979967  0.35082711  1  0.569652  0  0.141705  0.257971  0  4.32679  0
C  C36  1  0.26526993  0.00018678  0.64916124  1  0.569007  0  0.141612  0.257703  0  4.326963  0
C  C37  1  0.22179032  0.99974956  0.01197474  1  0.554642  0  0.14308  0.250978  0  4.330456  0
C  C38  1  0.77821133  0.00024488  0.98802662  1  0.554724  0  0.143066  0.250958  0  4.330322  0
C  C39  1  0.08505527  0.59431319  0.10234856  1  0.50925  0  0.039079  0.082643  0  3.966158  0
C  C40  1  0.32025375  0.59554985  0.89805469  1  0.430975  0  0.039811  0.083503  0  3.965897  0
C  C41  1  0.91495080  0.40568785  0.89764690  1  0.509703  0  0.039055  0.082679  0  3.966296  0
C  C42  1  0.67974190  0.40445915  0.10194042  1  0.430801  0  0.039818  0.083502  0  3.965403  0
C  C43  1  0.15924005  0.41076350  0.10112414  1  -0.085703  0  -0.085879  -0.124974  0  3.96031  0
C  C44  1  0.42997342  0.41204990  0.89905094  1  -0.001579  0  -0.086083  -0.124768  0  3.959122  0
C  C45  1  0.84078210  0.58923887  0.89887415  1  -0.085473  0  -0.085951  -0.125194  0  3.960078  0
C  C46  1  0.57001623  0.58797372  0.10095996  1  -0.001111  0  -0.086036  -0.124718  0  3.959521  0
C  C47  1  0.21054093  0.31825178  0.16895519  1  -0.012538  0  -0.06549  -0.009043  0  3.937544  0
C  C48  1  0.47186269  0.31872714  0.83107060  1  0.028542  0  -0.065342  -0.009235  0  3.93631  0
C  C49  1  0.78945877  0.68174397  0.83104056  1  -0.012983  0  -0.065463  -0.008942  0  3.937444  0
C  C50  1  0.52816277  0.68126862  0.16893334  1  0.028493  0  -0.065394  -0.009512  0  3.936665  0
C  C51  1  0.18711338  0.41229042  0.23539000  1  0.023489  0  -0.087313  -0.128461  0  3.962729  0
C  C52  1  0.40142593  0.41200081  0.76478739  1  -0.080861  0  -0.08761  -0.128001  0  3.961791  0
C  C53  1  0.81288419  0.58771992  0.76460955  1  0.023294  0  -0.087346  -0.128551  0  3.962801  0
C  C54  1  0.59857006  0.58798438  0.23522447  1  -0.080663  0  -0.087541  -0.127838  0  3.961486  0
C  C55  1  0.11214929  0.59585065  0.23156799  1  0.451552  0  0.040579  0.086817  0  3.957967  0
C  C56  1  0.29248595  0.59555656  0.76886760  1  0.518196  0  0.041579  0.087657  0  3.957459  0
C  C57  1  0.88784518  0.40415040  0.76842898  1  0.45163  0  0.040556  0.086837  0  3.957615  0
C  C58  1  0.70752678  0.40442857  0.23112732  1  0.518127  0  0.041526  0.087539  0  3.957654  0
C  C59  1  0.72174168  0.41136423  0.55960198  1  0.361871  0  0.038233  0.084068  0  3.964401  0
C  C60  1  0.86703375  0.41112385  0.44095546  1  0.506731  0  0.038955  0.085341  0  3.962763  0
C  C61  1  0.27825025  0.58863417  0.44039455  1  0.361935  0  0.038249  0.084109  0  3.96422  0
C  C62  1  0.13296389  0.58888118  0.55904191  1  0.507356  0  0.038959  0.085214  0  3.963158  0
C  C63  1  0.62699946  0.59573965  0.56227680  1  0.031436  0  -0.086237  -0.124936  0  3.959532  0
C  C64  1  0.77724038  0.59552308  0.43875051  1  -0.097554  0  -0.086145  -0.125667  0  3.960619  0
C  C65  1  0.37298935  0.40425214  0.43772446  1  0.031152  0  -0.086156  -0.124824  0  3.959756  0
C  C66  1  0.22275288  0.40447269  0.56125054  1  -0.097447  0  -0.086152  -0.125676  0  3.960634  0
C  C67  1  0.65501967  0.68952085  0.50060440  1  0.019504  0  -0.06675  -0.017487  0  3.958546  0
C  C68  1  0.34497918  0.31048947  0.49939171  1  0.01931  0  -0.066762  -0.017437  0  3.958715  0
S  S69  1  0.27292136  0.99919016  0.39525554  1  0.064955  0  -0.123061  -0.278541  0  2.616227  0
S  S70  1  0.72708291  0.00080161  0.60474012  1  0.064951  0  -0.123073  -0.278582  0  2.616216  0
S  S71  1  0.64135559  0.00096119  0.27138853  1  0.058883  0  -0.144083  -0.301449  0  2.563655  0
S  S72  1  0.35865824  0.99903719  0.72860332  1  0.058507  0  -0.144157  -0.301505  0  2.563456  0
S  S73  1  0.33931552  0.00219655  0.93228723  1  0.065877  0  -0.136305  -0.291009  0  2.555692  0
S  S74  1  0.66069773  0.99779789  0.06771770  1  0.065968  0  -0.136355  -0.291061  0  2.555681  0
N  N75  1  0.10784836  0.00139016  0.25905792  1  -1.30477  0  -0.387397  -0.449935  0  3.166911  0
N  N76  1  0.89214799  0.99861486  0.74093949  1  -1.304596  0  -0.387469  -0.450022  0  3.167093  0
N  N77  1  0.79773489  0.99903948  0.40980709  1  -1.307932  0  -0.395358  -0.467638  0  3.138186  0
N  N78  1  0.20226687  0.00094697  0.59018026  1  -1.306963  0  -0.395169  -0.467261  0  3.138514  0
N  N79  1  0.13888312  0.99795781  0.07054406  1  -1.291021  0  -0.392889  -0.452472  0  3.151626  0
N  N80  1  0.86112052  0.00203266  0.92945729  1  -1.291196  0  -0.392854  -0.452436  0  3.151503  0
N  N81  1  0.06157623  0.68540790  0.16631349  1  -1.238008  0  -0.331495  -0.239054  0  3.54644  0
N  N82  1  0.25294163  0.68591961  0.83422212  1  -1.239556  0  -0.332209  -0.240257  0  3.547282  0
N  N83  1  0.93844143  0.31459315  0.83368554  1  -1.238008  0  -0.331478  -0.239085  0  3.546405  0
N  N84  1  0.74704184  0.31408543  0.16577910  1  -1.239539  0  -0.332278  -0.240299  0  3.54724  0
N  N85  1  0.84006060  0.31987942  0.50015212  1  -1.251872  0  -0.328336  -0.238033  0  3.517541  0
N  N86  1  0.15993796  0.68010574  0.49984835  1  -1.252295  0  -0.328316  -0.237996  0  3.518036  0
