# generated using pymatgen
data_Zn6H48C63O29
_symmetry_space_group_name_H-M   'P 1'
_cell_length_a   18.55722728
_cell_length_b   18.58929192
_cell_length_c   18.69999105
_cell_angle_alpha   109.58896615
_cell_angle_beta   109.19681271
_cell_angle_gamma   109.17232798
_symmetry_Int_Tables_number   1
_chemical_formula_structural   Zn6H48C63O29
_chemical_formula_sum   'Zn6 H48 C63 O29'
_cell_volume   4993.53233972
_cell_formula_units_Z   1
loop_
 _symmetry_equiv_pos_site_id
 _symmetry_equiv_pos_as_xyz
  1  'x, y, z'
loop_
 _atom_site_type_symbol
 _atom_site_label
 _atom_site_symmetry_multiplicity
 _atom_site_fract_x
 _atom_site_fract_y
 _atom_site_fract_z
 _atom_site_occupancy
 _atom_site_pbe_bader_charge
 _atom_site_pbe_bader_spin_density
 _atom_site_pbe_cm5_charge
 _atom_site_pbe_ddec_charge
 _atom_site_pbe_ddec_spin_density
 _atom_site_pbe_ddec_sum_bond_order
 _atom_site_pbe_magmom
Zn  Zn0  1  0.93725171  0.93554008  0.50168414  1  1.302563  0  0.71545  0.946892  0  2.149941  0
Zn  Zn1  1  0.06249656  0.06187894  0.50356178  1  1.306771  0  0.725981  0.95693  0  2.138294  0
Zn  Zn2  1  0.06347478  0.49710599  0.05904139  1  1.311772  0  0.719963  0.957087  0  2.131148  0
Zn  Zn3  1  0.93761161  0.50395721  0.94200775  1  1.314213  0  0.724774  0.960581  0  2.157386  0
Zn  Zn4  1  0.49939287  0.93509334  0.93412930  1  1.309401  0  0.723182  0.952729  0  2.141887  0
Zn  Zn5  1  0.50714999  0.06429634  0.06310726  1  1.307389  0  0.719574  0.948228  0  2.163551  0
H  H6  1  0.98296250  0.10269599  0.76211316  1  0.072473  0  0.110099  0.115736  0  0.980725  0
H  H7  1  0.74163774  0.89127837  0.27441508  1  0.089626  0  0.114338  0.13687  0  0.9859  0
H  H8  1  0.14781262  0.73104550  0.30755736  1  0.094556  0  0.104419  0.110989  0  1.020526  0
H  H9  1  0.87509672  0.61999290  0.12897499  1  0.08384  0  0.107296  0.114942  0  0.990559  0
H  H10  1  0.86373458  0.72498550  0.24493477  1  0.090445  0  0.106888  0.11049  0  0.98564  0
H  H11  1  0.27021678  0.90617952  0.76472344  1  0.088223  0  0.110614  0.13453  0  0.996936  0
H  H12  1  0.14190564  0.78434437  0.02053523  1  0.08735  0  0.111267  0.115558  0  0.975756  0
H  H13  1  0.27136788  0.89355710  0.02799487  1  0.08837  0  0.106852  0.116928  0  0.995992  0
H  H14  1  0.32635013  0.68973883  0.91467882  1  0.091107  0  0.108476  0.125593  0  1.021302  0
H  H15  1  0.70596671  0.23882747  0.82425249  1  0.085841  0  0.107991  0.114471  0  0.994205  0
H  H16  1  0.75588497  0.21851361  0.09232137  1  0.083793  0  0.104923  0.108779  0  0.992361  0
H  H17  1  0.86848097  0.34419938  0.09868422  1  0.095355  0  0.107978  0.115694  0  0.989101  0
H  H18  1  0.91957243  0.29978847  0.52023094  1  0.080443  0  0.109035  0.122473  0  0.986789  0
H  H19  1  0.99249269  0.44397647  0.65749752  1  0.064007  0  0.103999  0.101621  0  0.985069  0
H  H20  1  0.03017892  0.44902997  0.79862113  1  0.098817  0  0.101318  0.1134  0  1.038299  0
H  H21  1  0.01907945  0.23519967  0.89286299  1  0.106025  0  0.11071  0.116509  0  0.982848  0
H  H22  1  0.92133746  0.15147640  0.34418723  1  0.09658  0  0.110479  0.116987  0  0.985983  0
H  H23  1  0.79742351  0.15596122  0.24209853  1  0.072261  0  0.107246  0.109777  0  0.985217  0
H  H24  1  0.23037446  0.79002910  0.46252948  1  0.021473  0  0.085203  0.109783  0  1.003914  0
H  H25  1  0.27050166  0.85832292  0.42152511  1  0.018031  0  0.083913  0.10609  0  1.009653  0
H  H26  1  0.29733319  0.90523533  0.53263043  1  0.042803  0  0.08875  0.117781  0  0.99718  0
H  H27  1  0.18066293  0.92964115  0.44764747  1  0.048362  0  0.096421  0.10563  0  0.966068  0
H  H28  1  0.14754183  0.87065506  0.49702786  1  0.099259  0  0.093311  0.096431  0  1.027635  0
H  H29  1  0.20509463  0.26495610  0.79737007  1  0.059321  0  0.107209  0.117774  0  0.97044  0
H  H30  1  0.21339725  0.21957705  0.86911559  1  0.028419  0  0.093035  0.086776  0  0.994963  0
H  H31  1  0.13831655  0.15027201  0.75405973  1  0.046442  0  0.090936  0.091051  0  1.037388  0
H  H32  1  0.51549624  0.19785754  0.93309840  1  0.016614  0  0.079947  0.109976  0  1.028783  0
H  H33  1  0.47952279  0.24560588  0.87074066  1  0.029767  0  0.086028  0.113825  0  0.998942  0
H  H34  1  0.54072018  0.30871519  0.98670414  1  0.024636  0  0.087657  0.11514  0  0.996681  0
H  H35  1  0.38190366  0.26171572  0.93488966  1  0.029899  0  0.093648  0.089663  0  1.001235  0
H  H36  1  0.41568545  0.21146261  0.99513657  1  0.053364  0  0.092064  0.099683  0  1.001745  0
H  H37  1  0.04399413  0.83501530  0.64050317  1  0.042342  0  0.097439  0.097945  0  0.988425  0
H  H38  1  0.12225727  0.79849622  0.67003023  1  0.033956  0  0.096043  0.089025  0  1.001935  0
H  H39  1  0.05189640  0.75971269  0.55730263  1  0.055997  0  0.110268  0.116717  0  0.970515  0
H  H40  1  0.77179597  0.15517614  0.45761474  1  0.021144  0  0.093899  0.089933  0  0.997301  0
H  H41  1  0.77208464  0.10136940  0.52173765  1  0.038348  0  0.095458  0.09396  0  0.988403  0
H  H42  1  0.76348217  0.04883337  0.41682287  1  0.086553  0  0.099971  0.107383  0  1.021236  0
H  H43  1  0.23991345  0.53767657  0.82149207  1  0.058284  0  0.102176  0.100328  0  0.982496  0
H  H44  1  0.21343534  0.46196421  0.86036850  1  0.08496  0  0.111693  0.119699  0  0.979064  0
H  H45  1  0.31223764  0.56656225  0.93067096  1  0.067066  0  0.103557  0.102322  0  0.980641  0
H  H46  1  0.65621403  0.04607912  0.73129602  1  0.029249  0  0.08338  0.108383  0  1.006913  0
H  H47  1  0.61905155  0.98579272  0.78035233  1  0.046349  0  0.085502  0.12056  0  1.015259  0
H  H48  1  0.54412240  0.96418996  0.67709232  1  0.013813  0  0.086247  0.113034  0  1.0007  0
H  H49  1  0.52301480  0.05315418  0.79404313  1  0.041119  0  0.093846  0.095438  0  0.986516  0
H  H50  1  0.56155696  0.11466684  0.74731496  1  0.018434  0  0.093655  0.086947  0  0.974866  0
H  H51  1  0.53823554  0.93546832  0.20929768  1  0.052279  0  0.095356  0.096978  0  0.993034  0
H  H52  1  0.57849489  0.88039667  0.26123171  1  0.035722  0  0.094394  0.087686  0  0.993179  0
H  H53  1  0.48570220  0.81786958  0.15292595  1  0.056212  0  0.107571  0.116013  0  0.974899  0
C  C54  1  0.90932627  0.01892417  0.38068803  1  1.550808  0  0.223294  0.60766  0  4.128654  0
C  C55  1  0.96246548  0.23167833  0.67069698  1  0.005885  0  -0.005049  -0.042888  0  3.943994  0
C  C56  1  0.96267021  0.15780293  0.67834599  1  -0.024077  0  -0.004801  -0.03712  0  3.92949  0
C  C57  1  0.98294034  0.15955183  0.75727281  1  -0.015239  0  -0.084619  -0.109585  0  3.993855  0
C  C58  1  0.00595999  0.23504509  0.83151535  1  -0.007169  0  -0.081656  -0.093607  0  3.991052  0
C  C59  1  0.01154312  0.30961102  0.82759669  1  -0.02609  0  -0.010071  -0.071604  0  3.921644  0
C  C60  1  0.85515972  0.09545187  0.30544062  1  -0.007327  0  -0.080365  -0.094678  0  3.970495  0
C  C61  1  0.78595757  0.09775075  0.24885273  1  -0.016983  0  -0.083709  -0.096264  0  3.993311  0
C  C62  1  0.70112077  0.02514344  0.19918390  1  -0.01266  0  -0.011258  -0.104206  0  3.931243  0
C  C63  1  0.68563784  0.95001697  0.20797039  1  0.486212  0  0.085631  0.228869  0  4.045928  0
C  C64  1  0.75426189  0.94869272  0.26624396  1  0.048536  0  -0.086427  -0.206578  0  3.958436  0
C  C65  1  0.96039269  0.08658838  0.60802079  1  1.566516  0  0.219693  0.600807  0  4.169773  0
C  C66  1  0.83919928  0.02096495  0.31475808  1  -0.03981  0  -0.012727  -0.013004  0  3.981266  0
C  C67  1  0.08350623  0.79555044  0.35807983  1  0.018756  0  0.002197  0.109473  0  3.904297  0
C  C68  1  0.08654915  0.73197556  0.29460039  1  -0.028738  0  -0.085704  -0.1567  0  3.936307  0
C  C69  1  0.01264022  0.67031205  0.21221720  1  -0.017515  0  -0.017869  -0.026952  0  3.999003  0
C  C70  1  0.93207656  0.66794842  0.19339061  1  -0.070787  0  -0.088752  -0.104648  0  3.997286  0
C  C71  1  0.92623478  0.72685175  0.25757448  1  -0.014577  0  -0.08641  -0.101377  0  4.009812  0
C  C72  1  0.00128314  0.79140876  0.33821350  1  -0.044256  0  -0.009965  -0.071892  0  3.917757  0
C  C73  1  0.27049318  0.12038313  0.78505023  1  0.477902  0  0.088492  0.190587  0  4.001853  0
C  C74  1  0.33310204  0.12512782  0.85689191  1  0.070037  0  -0.007429  0.00572  0  3.897518  0
C  C75  1  0.33007993  0.04547626  0.84786008  1  -0.044985  0  -0.014415  -0.054332  0  3.961575  0
C  C76  1  0.13904116  0.03421757  0.63180261  1  1.567331  0  0.224639  0.639446  0  4.132779  0
C  C77  1  0.26824650  0.96564559  0.77041821  1  0.029752  0  -0.101489  -0.230654  0  4.005336  0
C  C78  1  0.20716630  0.96264692  0.70074961  1  0.497385  0  0.083084  0.242786  0  4.070833  0
C  C79  1  0.20747313  0.04028798  0.70730651  1  0.022779  0  -0.024004  -0.222716  0  3.94169  0
C  C80  1  0.09475270  0.61513075  0.97501733  1  1.569868  0  0.225305  0.630809  0  4.134461  0
C  C81  1  0.02367820  0.38299838  0.90390182  1  1.529062  0  0.222237  0.611224  0  4.129877  0
C  C82  1  0.85931323  0.37552803  0.96775638  1  1.527162  0  0.219509  0.603614  0  4.132472  0
C  C83  1  0.01890301  0.60886608  0.14214565  1  1.519619  0  0.222779  0.611409  0  4.125199  0
C  C84  1  0.38204168  0.86314076  0.97666200  1  1.54369  0  0.221693  0.607711  0  4.123371  0
C  C85  1  0.62770697  0.02438594  0.13352767  1  1.568704  0  0.22624  0.627465  0  4.133494  0
C  C86  1  0.60990440  0.08443717  0.95850105  1  1.524294  0  0.223224  0.608131  0  4.132536  0
C  C87  1  0.99262267  0.85947136  0.40006709  1  1.537938  0  0.227224  0.620143  0  4.121808  0
C  C88  1  0.39297197  0.03872190  0.91626227  1  1.515689  0  0.223113  0.612723  0  4.106956  0
C  C89  1  0.18311474  0.76418629  0.99837853  1  -0.061571  0  -0.083346  -0.085478  0  4.009292  0
C  C90  1  0.25470458  0.82495803  0.00226367  1  -0.005883  0  -0.0943  -0.121247  0  4.001535  0
C  C91  1  0.30590913  0.79731921  0.97228042  1  -0.06142  0  -0.018539  -0.011873  0  4.00831  0
C  C92  1  0.28608386  0.70933309  0.93875404  1  -0.020811  0  -0.104321  -0.243271  0  3.97761  0
C  C93  1  0.21648333  0.64947728  0.93848279  1  0.529753  0  0.090558  0.235015  0  4.039856  0
C  C94  1  0.16458680  0.67727192  0.96856733  1  0.015055  0  -0.016163  -0.115143  0  3.939022  0
C  C95  1  0.71750281  0.23230516  0.88228606  1  0.036503  0  -0.080714  -0.15623  0  3.928265  0
C  C96  1  0.65735876  0.15754417  0.87568235  1  0.007114  0  0.004704  0.11199  0  3.917015  0
C  C97  1  0.67287366  0.15431810  0.95329846  1  -0.071201  0  -0.008846  -0.076669  0  3.921157  0
C  C98  1  0.93132992  0.22888376  0.58859150  1  0.447854  0  0.082785  0.212847  0  4.024286  0
C  C99  1  0.74748120  0.22226575  0.03340926  1  -0.019937  0  -0.085232  -0.093932  0  4.008905  0
C  C100  1  0.80897760  0.29262710  0.03746032  1  -0.045195  0  -0.087062  -0.10524  0  3.996096  0
C  C101  1  0.79293506  0.29854261  0.96150757  1  -0.028679  0  -0.01379  -0.012937  0  3.987908  0
C  C102  1  0.94276783  0.30402587  0.58396390  1  0.023243  0  -0.101368  -0.203953  0  4.02373  0
C  C103  1  0.98214444  0.38433113  0.66111150  1  -0.081643  0  -0.092495  -0.064172  0  4.060818  0
C  C104  1  0.00409655  0.38756291  0.74054321  1  0.016599  0  -0.097839  -0.142418  0  3.982516  0
C  C105  1  0.99296626  0.31115226  0.74732230  1  -0.034442  0  0.00118  0.075029  0  3.95488  0
C  C106  1  0.16431226  0.86591672  0.44503752  1  -0.01818  0  -0.166092  -0.15675  0  3.973033  0
C  C107  1  0.24477641  0.85381237  0.46603186  1  -0.07647  0  -0.244035  -0.346876  0  3.992087  0
C  C108  1  0.20307075  0.20798352  0.80379747  1  0.410058  0  -0.138909  -0.168719  0  3.920733  0
C  C109  1  0.40408417  0.21380416  0.93480738  1  0.020016  0  -0.167998  -0.147892  0  3.990232  0
C  C110  1  0.48990526  0.24313418  0.93103718  1  -0.058258  0  -0.241358  -0.33898  0  3.941296  0
C  C111  1  0.08889868  0.81599722  0.62353673  1  0.428882  0  -0.133448  -0.163062  0  3.915524  0
C  C112  1  0.79272664  0.11180085  0.47547923  1  0.390805  0  -0.139914  -0.168397  0  3.909136  0
C  C113  1  0.24329736  0.53145373  0.87890467  1  0.363599  0  -0.130518  -0.172164  0  3.916528  0
C  C114  1  0.57998009  0.08523476  0.78751688  1  0.013315  0  -0.159959  -0.148214  0  3.982249  0
C  C115  1  0.60114350  0.01615339  0.74122909  1  -0.054392  0  -0.243436  -0.349071  0  3.961409  0
C  C116  1  0.54874349  0.87857442  0.19850360  1  0.397405  0  -0.135674  -0.164375  0  3.920066  0
O  O117  1  0.88433264  0.96178424  0.40294597  1  -1.18124  0  -0.313491  -0.572245  0  2.334359  0
O  O118  1  0.01450631  0.59268487  0.92714408  1  -1.127618  0  -0.316345  -0.531318  0  2.209269  0
O  O119  1  0.07679693  0.40530930  0.98222026  1  -1.131501  0  -0.32037  -0.534277  0  2.198782  0
O  O120  1  0.97603313  0.41700898  0.88574474  1  -1.170495  0  -0.308092  -0.573385  0  2.391084  0
O  O121  1  0.93844204  0.40787138  0.02490496  1  -1.178981  0  -0.314415  -0.57505  0  2.337964  0
O  O122  1  0.83326368  0.40450471  0.91624654  1  -1.135776  0  -0.319511  -0.531266  0  2.220001  0
O  O123  1  0.07598943  0.58409874  0.16399284  1  -1.134857  0  -0.319417  -0.532549  0  2.228261  0
O  O124  1  0.96639059  0.58516941  0.06416224  1  -1.177208  0  -0.317318  -0.575856  0  2.343372  0
O  O125  1  0.40895512  0.83514902  0.92323321  1  -1.128139  0  -0.318564  -0.527313  0  2.23387  0
O  O126  1  0.41531826  0.94312771  0.03276600  1  -1.176466  0  -0.313837  -0.573783  0  2.331818  0
O  O127  1  0.59646950  0.96986423  0.05433429  1  -1.158793  0  -0.304152  -0.554665  0  2.31434  0
O  O128  1  0.99006667  0.07487401  0.41164714  1  -1.129171  0  -0.316429  -0.526705  0  2.230372  0
O  O129  1  0.60233236  0.07915780  0.16227766  1  -1.134593  0  -0.320172  -0.536737  0  2.221256  0
O  O130  1  0.57770972  0.00277438  0.90416262  1  -1.129835  0  -0.306579  -0.518845  0  2.243939  0
O  O131  1  0.59309244  0.11184191  0.01966073  1  -1.169447  0  -0.311631  -0.577105  0  2.349186  0
O  O132  1  0.41092904  0.97807493  0.88886202  1  -1.183575  0  -0.314719  -0.580689  0  2.343287  0
O  O133  1  0.42432027  0.09161724  0.99790045  1  -1.121957  0  -0.310944  -0.521763  0  2.245134  0
O  O134  1  0.90755247  0.00562802  0.57953088  1  -1.134522  0  -0.321378  -0.529973  0  2.215667  0
O  O135  1  0.01842706  0.11300073  0.58721970  1  -1.163906  0  -0.307876  -0.5707  0  2.369959  0
O  O136  1  0.05997197  0.98056875  0.60444345  1  -1.171091  0  -0.310434  -0.577322  0  2.336465  0
O  O137  1  0.16462237  0.08279002  0.60015001  1  -1.119061  0  -0.310536  -0.51606  0  2.230827  0
O  O138  1  0.93491628  0.83312295  0.42288660  1  -1.130281  0  -0.319702  -0.535235  0  2.220044  0
O  O139  1  0.04139638  0.93884056  0.42415167  1  -1.164091  0  -0.304906  -0.564926  0  2.328683  0
O  O140  1  0.12113406  0.59043118  0.02897811  1  -1.152626  0  -0.307925  -0.562605  0  2.319577  0
O  O141  1  0.27205269  0.19708768  0.79145054  1  -1.064186  0  -0.20871  -0.189392  0  2.533213  0
O  O142  1  0.15044532  0.88575413  0.62208482  1  -1.095453  0  -0.199132  -0.181469  0  2.56599  0
O  O143  1  0.88635383  0.14857345  0.51298187  1  -1.075147  0  -0.202171  -0.193622  0  2.56184  0
O  O144  1  0.19283625  0.56320760  0.90959227  1  -1.076414  0  -0.181091  -0.153807  0  2.595513  0
O  O145  1  0.60294989  0.87722919  0.15857616  1  -1.074836  0  -0.217094  -0.204682  0  2.510707  0
