# generated using pymatgen
data_LiH3C(N2O)3
_symmetry_space_group_name_H-M   'P 1'
_cell_length_a   6.69425447
_cell_length_b   8.40132220
_cell_length_c   10.14968184
_cell_angle_alpha   90.00007015
_cell_angle_beta   90.00007115
_cell_angle_gamma   109.22081089
_symmetry_Int_Tables_number   1
_chemical_formula_structural   LiH3C(N2O)3
_chemical_formula_sum   'Li4 H12 C4 N24 O12'
_cell_volume   539.00455352
_cell_formula_units_Z   4
loop_
 _symmetry_equiv_pos_site_id
 _symmetry_equiv_pos_as_xyz
  1  'x, y, z'
loop_
 _atom_site_type_symbol
 _atom_site_label
 _atom_site_symmetry_multiplicity
 _atom_site_fract_x
 _atom_site_fract_y
 _atom_site_fract_z
 _atom_site_occupancy
 _atom_site_hle17_bader_spin_density
 _atom_site_hle17_ddec_charge
 _atom_site_hle17_ddec_spin_density
 _atom_site_hle17_ddec_sum_bond_order
 _atom_site_hle17_magmom
 _atom_site_hse06_10hf_bader_spin_density
 _atom_site_hse06_10hf_ddec_charge
 _atom_site_hse06_10hf_ddec_spin_density
 _atom_site_hse06_10hf_ddec_sum_bond_order
 _atom_site_hse06_10hf_magmom
 _atom_site_hse06_bader_spin_density
 _atom_site_hse06_ddec_charge
 _atom_site_hse06_ddec_spin_density
 _atom_site_hse06_ddec_sum_bond_order
 _atom_site_hse06_magmom
 _atom_site_pbe_bader_spin_density
 _atom_site_pbe_cm5_charge
 _atom_site_pbe_ddec_charge
 _atom_site_pbe_ddec_spin_density
 _atom_site_pbe_ddec_sum_bond_order
 _atom_site_pbe_magmom
Li  Li0  1  0.73918086  0.08871648  0.28868132  1  0  0.844442  0  0.399448  0  0  0.789502  0  0.525664  0  0  0.79999  0  0.507882  0  0  0.49602  0.781981  0  0.538304  0
Li  Li1  1  0.76082021  0.91128376  0.78868165  1  0  0.844436  0  0.399449  0  0  0.789492  0  0.525675  0  0  0.799982  0  0.507891  0  0  0.496018  0.78197  0  0.538314  0
Li  Li2  1  0.26082092  0.91128321  0.71131843  1  0  0.844438  0  0.399447  0  0  0.789493  0  0.52567  0  0  0.799983  0  0.507887  0  0  0.496023  0.781971  0  0.53831  0
Li  Li3  1  0.23918055  0.08871716  0.21131908  1  0  0.844433  0  0.399457  0  0  0.789496  0  0.525672  0  0  0.799983  0  0.507891  0  0  0.496018  0.781973  0  0.538313  0
H  H4  1  0.73470410  0.51712541  0.63967086  1  0  0.316544  0  0.914205  0  0  0.276306  0  1.011806  0  0  0.287316  0  1.000981  0  0  0.324272  0.267297  0  1.021014  0
H  H5  1  0.76529402  0.48287571  0.13967094  1  0  0.316572  0  0.914172  0  0  0.276327  0  1.011774  0  0  0.287337  0  1.000949  0  0  0.324283  0.267318  0  1.020982  0
H  H6  1  0.26529515  0.48287548  0.36032889  1  0  0.31656  0  0.914185  0  0  0.276332  0  1.01177  0  0  0.287343  0  1.000944  0  0  0.324275  0.267323  0  1.020979  0
H  H7  1  0.23470475  0.51712393  0.86032880  1  0  0.316568  0  0.91418  0  0  0.276331  0  1.011775  0  0  0.287343  0  1.000948  0  0  0.324287  0.267322  0  1.020983  0
H  H8  1  0.37667105  0.86301013  0.23145415  1  0  0.408191  0  0.905742  0  0  0.370273  0  0.982327  0  0  0.381185  0  0.966236  0  0  0.299727  0.362577  0  0.993713  0
H  H9  1  0.12332800  0.13698774  0.73145359  1  0  0.408205  0  0.905719  0  0  0.370284  0  0.982311  0  0  0.381194  0  0.966222  0  0  0.299734  0.362588  0  0.993695  0
H  H10  1  0.62332923  0.13698954  0.76854461  1  0  0.408193  0  0.905737  0  0  0.370282  0  0.98231  0  0  0.381192  0  0.966224  0  0  0.29973  0.362585  0  0.993697  0
H  H11  1  0.87667178  0.86301067  0.26854616  1  0  0.40819  0  0.905742  0  0  0.370269  0  0.982333  0  0  0.38118  0  0.966244  0  0  0.299726  0.362572  0  0.99372  0
H  H12  1  0.36747306  0.93090066  0.37593260  1  0  0.424936  0  0.875313  0  0  0.386937  0  0.953028  0  0  0.397072  0  0.93779  0  0  0.308931  0.379694  0  0.963935  0
H  H13  1  0.13252688  0.06909879  0.87593296  1  0  0.424951  0  0.875298  0  0  0.386954  0  0.953013  0  0  0.397089  0  0.937777  0  0  0.308936  0.379712  0  0.963919  0
H  H14  1  0.63252818  0.06910153  0.62406616  1  0  0.424958  0  0.875284  0  0  0.386958  0  0.953006  0  0  0.397095  0  0.937765  0  0  0.308944  0.379714  0  0.963914  0
H  H15  1  0.86747441  0.93089964  0.12406678  1  0  0.424948  0  0.875304  0  0  0.386951  0  0.95302  0  0  0.397086  0  0.937781  0  0  0.30893  0.379707  0  0.963928  0
C  C16  1  0.76612350  0.57113524  0.42748198  1  0  0.46784  0  3.804126  0  0  0.414409  0  4.110145  0  0  0.434269  0  4.120029  0  0  0.337791  0.400771  0  4.10352  0
C  C17  1  0.73387544  0.42886652  0.92748378  1  0  0.467891  0  3.80409  0  0  0.414434  0  4.110156  0  0  0.43429  0  4.120038  0  0  0.337741  0.400796  0  4.103531  0
C  C18  1  0.23387727  0.42886568  0.57251777  1  0  0.467901  0  3.804058  0  0  0.414487  0  4.110068  0  0  0.434345  0  4.11995  0  0  0.337795  0.40085  0  4.103443  0
C  C19  1  0.26612382  0.57113438  0.07251696  1  0  0.467927  0  3.803995  0  0  0.414476  0  4.110076  0  0  0.434337  0  4.119956  0  0  0.337778  0.400839  0  4.10345  0
N  N20  1  0.74410051  0.48178066  0.54172886  1  0  -0.277479  0  3.394847  0  0  -0.220467  0  3.652383  0  0  -0.236543  0  3.664891  0  0  -0.250167  -0.209234  0  3.644908  0
N  N21  1  0.75589836  0.51821901  0.04172996  1  0  -0.277468  0  3.394865  0  0  -0.220428  0  3.652394  0  0  -0.236504  0  3.664904  0  0  -0.250117  -0.209197  0  3.64492  0
N  N22  1  0.25589976  0.51821900  0.45827089  1  0  -0.277518  0  3.394872  0  0  -0.220521  0  3.652421  0  0  -0.236598  0  3.66493  0  0  -0.250165  -0.209288  0  3.644948  0
N  N23  1  0.24409992  0.48177937  0.95827077  1  0  -0.277514  0  3.394845  0  0  -0.220499  0  3.652396  0  0  -0.236578  0  3.664903  0  0  -0.250175  -0.209266  0  3.644922  0
N  N24  1  0.74156905  0.32458965  0.51290423  1  0  -0.035086  0  2.911313  0  0  -0.032034  0  3.199448  0  0  -0.031298  0  3.210291  0  0  -0.068162  -0.032504  0  3.192492  0
N  N25  1  0.75843324  0.67541127  0.01290450  1  0  -0.035047  0  2.911246  0  0  -0.031992  0  3.199357  0  0  -0.031255  0  3.210197  0  0  -0.068129  -0.032462  0  3.192398  0
N  N26  1  0.25843322  0.67541130  0.48709552  1  0  -0.035047  0  2.911279  0  0  -0.031981  0  3.199407  0  0  -0.031244  0  3.21025  0  0  -0.068153  -0.032452  0  3.19245  0
N  N27  1  0.24156753  0.32458965  0.98709524  1  0  -0.035029  0  2.911215  0  0  -0.031953  0  3.199313  0  0  -0.031216  0  3.210156  0  0  -0.06812  -0.032423  0  3.192355  0
N  N28  1  0.76074216  0.31844219  0.38545787  1  0  -0.11712  0  3.056256  0  0  -0.106353  0  3.372748  0  0  -0.103608  0  3.380631  0  0  -0.12774  -0.107894  0  3.367233  0
N  N29  1  0.73925768  0.68155825  0.88545796  1  0  -0.117194  0  3.056216  0  0  -0.106413  0  3.372712  0  0  -0.103669  0  3.380597  0  0  -0.127768  -0.107952  0  3.367193  0
N  N30  1  0.23926011  0.68155877  0.61454187  1  0  -0.11724  0  3.056301  0  0  -0.106468  0  3.37281  0  0  -0.103725  0  3.380695  0  0  -0.127774  -0.108008  0  3.367293  0
N  N31  1  0.26074109  0.31844139  0.11454179  1  0  -0.117186  0  3.056227  0  0  -0.106412  0  3.372718  0  0  -0.103668  0  3.380604  0  0  -0.127749  -0.107953  0  3.367202  0
N  N32  1  0.77598610  0.46702625  0.32846504  1  0  -0.310061  0  2.910695  0  0  -0.284391  0  3.203713  0  0  -0.29766  0  3.212901  0  0  -0.195798  -0.274717  0  3.197699  0
N  N33  1  0.72401008  0.53297274  0.82846496  1  0  -0.309991  0  2.910583  0  0  -0.284357  0  3.203649  0  0  -0.297628  0  3.21284  0  0  -0.195779  -0.274683  0  3.197633  0
N  N34  1  0.22401418  0.53297341  0.67153471  1  0  -0.309972  0  2.910647  0  0  -0.28434  0  3.203685  0  0  -0.297612  0  3.212875  0  0  -0.195779  -0.274666  0  3.197668  0
N  N35  1  0.27598719  0.46702687  0.17153479  1  0  -0.310048  0  2.910646  0  0  -0.284405  0  3.203709  0  0  -0.297674  0  3.212895  0  0  -0.195806  -0.274733  0  3.197695  0
N  N36  1  0.77623405  0.73264841  0.40169407  1  0  -0.412542  0  2.910014  0  0  -0.406916  0  3.183742  0  0  -0.423053  0  3.187063  0  0  -0.207308  -0.395963  0  3.181529  0
N  N37  1  0.72376335  0.26734951  0.90169470  1  0  -0.412674  0  2.910056  0  0  -0.407034  0  3.183765  0  0  -0.423155  0  3.187073  0  0  -0.207317  -0.396079  0  3.181549  0
N  N38  1  0.22376623  0.26735126  0.59830568  1  0  -0.412598  0  2.910001  0  0  -0.406979  0  3.18371  0  0  -0.423104  0  3.187021  0  0  -0.20731  -0.396026  0  3.181496  0
N  N39  1  0.27623343  0.73264883  0.09830504  1  0  -0.412602  0  2.910038  0  0  -0.406985  0  3.183793  0  0  -0.423124  0  3.187116  0  0  -0.207297  -0.396031  0  3.181579  0
N  N40  1  0.76312452  0.82851428  0.50262338  1  0  0.631248  0  4.045473  0  0  0.682065  0  4.303187  0  0  0.706823  0  4.314018  0  0  0.127973  0.66561  0  4.295448  0
N  N41  1  0.73687623  0.17148659  0.00262411  1  0  0.631246  0  4.045519  0  0  0.682077  0  4.303214  0  0  0.70683  0  4.314044  0  0  0.12795  0.665622  0  4.295473  0
N  N42  1  0.23687624  0.17148665  0.49737636  1  0  0.631216  0  4.045509  0  0  0.682047  0  4.303209  0  0  0.706801  0  4.314038  0  0  0.127945  0.665592  0  4.295471  0
N  N43  1  0.26312404  0.82851307  0.99737662  1  0  0.631175  0  4.045554  0  0  0.682008  0  4.303268  0  0  0.70676  0  4.314103  0  0  0.127933  0.665553  0  4.295527  0
O  O44  1  0.74438357  0.77412210  0.61963490  1  0  -0.492282  0  1.853894  0  0  -0.479201  0  2.083156  0  0  -0.493764  0  2.078645  0  0  -0.187568  -0.468905  0  2.08597  0
O  O45  1  0.75561702  0.22587777  0.11963570  1  0  -0.492325  0  1.853925  0  0  -0.479218  0  2.083186  0  0  -0.493783  0  2.078676  0  0  -0.187576  -0.468918  0  2.085986  0
O  O46  1  0.25561670  0.22587757  0.38036485  1  0  -0.492284  0  1.853932  0  0  -0.479191  0  2.083193  0  0  -0.493756  0  2.078686  0  0  -0.187552  -0.468888  0  2.085987  0
O  O47  1  0.24438476  0.77412192  0.88036503  1  0  -0.492275  0  1.853928  0  0  -0.479177  0  2.083178  0  0  -0.493743  0  2.078672  0  0  -0.187562  -0.468882  0  2.085989  0
O  O48  1  0.76995432  0.97760038  0.47699901  1  0  -0.481528  0  1.822017  0  0  -0.466496  0  2.0443  0  0  -0.482653  0  2.039342  0  0  -0.173145  -0.45522  0  2.047669  0
O  O49  1  0.73004728  0.02240029  0.97699842  1  0  -0.481473  0  1.821987  0  0  -0.46648  0  2.044269  0  0  -0.482646  0  2.039321  0  0  -0.173141  -0.455205  0  2.047636  0
O  O50  1  0.23004795  0.02240057  0.52300074  1  0  -0.481499  0  1.82202  0  0  -0.466477  0  2.044286  0  0  -0.482635  0  2.039329  0  0  -0.173144  -0.4552  0  2.047652  0
O  O51  1  0.26995348  0.97760064  0.02300132  1  0  -0.481471  0  1.82195  0  0  -0.466474  0  2.044242  0  0  -0.482611  0  2.03927  0  0  -0.173147  -0.455196  0  2.047608  0
O  O52  1  0.42821254  0.96582685  0.28822940  1  0  -0.967103  0  1.945108  0  0  -0.923632  0  2.148701  0  0  -0.938075  0  2.113989  0  0  -0.684824  -0.913495  0  2.173109  0
O  O53  1  0.07179017  0.03417246  0.78822870  1  0  -0.967123  0  1.945086  0  0  -0.92363  0  2.148626  0  0  -0.938074  0  2.113918  0  0  -0.684828  -0.913493  0  2.173035  0
O  O54  1  0.57178973  0.03417411  0.71177034  1  0  -0.967107  0  1.945096  0  0  -0.923645  0  2.148667  0  0  -0.938088  0  2.113957  0  0  -0.684838  -0.913503  0  2.173077  0
O  O55  1  0.92821161  0.96582723  0.21177105  1  0  -0.967122  0  1.945106  0  0  -0.923641  0  2.148663  0  0  -0.938082  0  2.113953  0  0  -0.684822  -0.913501  0  2.173074  0
