# generated using pymatgen
data_AlH9C24(NO4)3
_symmetry_space_group_name_H-M   'P 1'
_cell_length_a   4.01523143
_cell_length_b   29.01468479
_cell_length_c   29.01248164
_cell_angle_alpha   119.99633666
_cell_angle_beta   89.99957803
_cell_angle_gamma   89.99855015
_symmetry_Int_Tables_number   1
_chemical_formula_structural   AlH9C24(NO4)3
_chemical_formula_sum   'Al2 H18 C48 N6 O24'
_cell_volume   2927.25111093
_cell_formula_units_Z   2
loop_
 _symmetry_equiv_pos_site_id
 _symmetry_equiv_pos_as_xyz
  1  'x, y, z'
loop_
 _atom_site_type_symbol
 _atom_site_label
 _atom_site_symmetry_multiplicity
 _atom_site_fract_x
 _atom_site_fract_y
 _atom_site_fract_z
 _atom_site_occupancy
 _atom_site_pbe_bader_charge
 _atom_site_pbe_bader_spin_density
 _atom_site_pbe_cm5_charge
 _atom_site_pbe_ddec_charge
 _atom_site_pbe_ddec_spin_density
 _atom_site_pbe_ddec_sum_bond_order
 _atom_site_pbe_magmom
Al  Al0  1  0.99598621  0.50000644  0.50000861  1  2.508061  0  0.430677  1.611679  0  2.551204  0
Al  Al1  1  0.99594049  0.16665111  0.83333549  1  2.507907  0  0.430627  1.611466  0  2.551887  0
H  H2  1  0.55141888  0.17150015  0.69517202  1  0.067705  0  0.123259  0.13557  0  0.96122  0
H  H3  1  0.57221424  0.21704230  0.64187704  1  0.046886  0  0.116889  0.12065  0  0.97171  0
H  H4  1  0.47669582  0.36906531  0.78665932  1  0.088495  0  0.122821  0.14011  0  0.977188  0
H  H5  1  0.47661579  0.29760220  0.54667518  1  0.088952  0  0.122859  0.140195  0  0.977209  0
H  H6  1  0.55155533  0.49516205  0.63816486  1  0.067473  0  0.12316  0.135439  0  0.961201  0
H  H7  1  0.57229431  0.44961655  0.69145863  1  0.047001  0  0.116978  0.120687  0  0.971616  0
H  H8  1  0.55139084  0.02367105  0.82849885  1  0.113759  0  0.123241  0.135606  0  0.961398  0
H  H9  1  0.57221918  0.92482191  0.78295034  1  0.08883  0  0.11697  0.12071  0  0.971683  0
H  H10  1  0.47686519  0.91756797  0.63092596  1  0.148087  0  0.12285  0.140238  0  0.977162  0
H  H11  1  0.47666944  0.74908887  0.70240547  1  0.148144  0  0.122839  0.140116  0  0.977303  0
H  H12  1  0.55152858  0.64298558  0.50483604  1  0.113487  0  0.123223  0.135576  0  0.961284  0
H  H13  1  0.57236047  0.74183606  0.55038489  1  0.088806  0  0.117002  0.120685  0  0.971695  0
H  H14  1  0.55124556  0.30479939  0.97630798  1  0.106806  0  0.123366  0.135777  0  0.961235  0
H  H15  1  0.57206924  0.35813114  0.07515211  1  0.100079  0  0.117017  0.120764  0  0.971309  0
H  H16  1  0.47695066  0.21337333  0.08244309  1  0.105777  0  0.122883  0.140245  0  0.977228  0
H  H17  1  0.47671341  0.45333246  0.25092324  1  0.105033  0  0.122816  0.140094  0  0.977345  0
H  H18  1  0.55143228  0.36186030  0.35701006  1  0.107302  0  0.123196  0.135394  0  0.961334  0
H  H19  1  0.57225134  0.30855514  0.25816630  1  0.100567  0  0.1169  0.120612  0  0.971545  0
C  C20  1  0.49595432  0.46627773  0.41916763  1  1.679497  0  0.279916  0.659404  0  4.100423  0
C  C21  1  0.49596414  0.45290114  0.53374129  1  1.674686  0  0.280114  0.659449  0  4.100807  0
C  C22  1  0.49592491  0.58084130  0.54711013  1  1.599634  0  0.280121  0.659608  0  4.100236  0
C  C23  1  0.49592806  0.21376905  0.79960598  1  1.673167  0  0.279782  0.658999  0  4.100056  0
C  C24  1  0.49596231  0.08581735  0.78622043  1  1.600156  0  0.280144  0.659454  0  4.100223  0
C  C25  1  0.49592044  0.20037497  0.91417369  1  1.679791  0  0.279848  0.659233  0  4.101068  0
C  C26  1  0.50436029  0.24405893  0.77029385  1  -0.110724  0  0.010539  -0.051827  0  3.912416  0
C  C27  1  0.53609248  0.21477653  0.71475384  1  0.143837  0  -0.06777  -0.077465  0  3.941832  0
C  C28  1  0.54755527  0.24022818  0.68501809  1  -0.069812  0  -0.065989  -0.105589  0  3.917728  0
C  C29  1  0.52462615  0.29622528  0.71003985  1  0.193772  0  0.006047  0.145895  0  4.115702  0
C  C30  1  0.49690869  0.32589242  0.76582589  1  0.030071  0  -0.068254  -0.163434  0  3.902592  0
C  C31  1  0.48768485  0.29957805  0.79474381  1  0.263667  0  0.081562  0.048875  0  3.935928  0
C  C32  1  0.52619917  0.32215462  0.67973422  1  -0.272212  0  -0.037641  -0.098529  0  4.102335  0
C  C33  1  0.52618767  0.34450356  0.65359687  1  -0.059653  0  -0.037467  -0.098029  0  4.102145  0
C  C34  1  0.52461019  0.37043567  0.62329400  1  0.193615  0  0.006063  0.145964  0  4.115269  0
C  C35  1  0.49684143  0.34077367  0.56750893  1  0.029538  0  -0.06827  -0.163646  0  3.902592  0
C  C36  1  0.48760806  0.36708919  0.53859488  1  0.263596  0  0.081507  0.048988  0  3.935679  0
C  C37  1  0.50435784  0.42260781  0.56304843  1  -0.110761  0  0.01035  -0.05215  0  3.91257  0
C  C38  1  0.53614876  0.45188784  0.61858670  1  0.14405  0  -0.067628  -0.077222  0  3.941705  0
C  C39  1  0.54758129  0.42643265  0.64831818  1  -0.070156  0  -0.065987  -0.105628  0  3.917438  0
C  C40  1  0.50440905  0.02621668  0.75593442  1  -0.002756  0  0.010409  -0.051614  0  3.912422  0
C  C41  1  0.53609828  0.99996537  0.78522296  1  -0.068538  0  -0.067681  -0.077688  0  3.942254  0
C  C42  1  0.54756863  0.94478155  0.75976804  1  0.057236  0  -0.066041  -0.105519  0  3.917612  0
C  C43  1  0.52468865  0.91380311  0.70376694  1  -0.012745  0  0.006057  0.145816  0  4.115702  0
C  C44  1  0.49700057  0.93991915  0.67409828  1  0.002718  0  -0.068225  -0.163461  0  3.902479  0
C  C45  1  0.48774923  0.99514582  0.70041340  1  0.293592  0  0.081445  0.04851  0  3.935958  0
C  C46  1  0.52622925  0.85757330  0.67783986  1  -0.384669  0  -0.037601  -0.098354  0  4.101571  0
C  C47  1  0.52623368  0.80908222  0.65548980  1  0.235815  0  -0.037463  -0.098207  0  4.101699  0
C  C48  1  0.52466113  0.75285352  0.62956303  1  -0.014232  0  0.006084  0.145897  0  4.116035  0
C  C49  1  0.49685054  0.72673949  0.65923232  1  0.00413  0  -0.068257  -0.163399  0  3.902525  0
C  C50  1  0.48759485  0.67151295  0.63291726  1  0.290576  0  0.081399  0.048645  0  3.9359  0
C  C51  1  0.50435639  0.64044001  0.57739860  1  -0.002583  0  0.010535  -0.051964  0  3.912459  0
C  C52  1  0.53614682  0.66669098  0.54811119  1  -0.06865  0  -0.06772  -0.07739  0  3.941562  0
C  C53  1  0.54760665  0.72187515  0.57356415  1  0.057719  0  -0.066132  -0.105657  0  3.917586  0
C  C54  1  0.50438247  0.22970045  0.97377825  1  -0.043786  0  0.010377  -0.051759  0  3.912762  0
C  C55  1  0.53598440  0.28523562  0.00001473  1  0.036445  0  -0.067696  -0.077611  0  3.94198  0
C  C56  1  0.54747518  0.31498641  0.05519747  1  -0.059208  0  -0.066028  -0.105575  0  3.917325  0
C  C57  1  0.52470043  0.28997241  0.08618801  1  0.061223  0  0.005919  0.145703  0  4.115283  0
C  C58  1  0.49702732  0.23418888  0.06008631  1  0.173382  0  -0.068183  -0.163329  0  3.902696  0
C  C59  1  0.48775317  0.20526139  0.00485908  1  0.143279  0  0.08133  0.048401  0  3.936081  0
C  C60  1  0.52625156  0.32029461  0.14243134  1  -0.274898  0  -0.037695  -0.098599  0  4.102441  0
C  C61  1  0.52620881  0.34641448  0.19091276  1  -0.064273  0  -0.037411  -0.097936  0  4.102626  0
C  C62  1  0.52465426  0.37671569  0.24715021  1  0.061907  0  0.006138  0.145881  0  4.115665  0
C  C63  1  0.49686855  0.43249862  0.27326824  1  0.174075  0  -0.068278  -0.163473  0  3.902537  0
C  C64  1  0.48762072  0.46142079  0.32849684  1  0.138634  0  0.081195  0.048705  0  3.935652  0
C  C65  1  0.50437052  0.43697521  0.35957097  1  -0.039895  0  0.010542  -0.052192  0  3.912865  0
C  C66  1  0.53608380  0.38143680  0.33331067  1  0.037178  0  -0.06752  -0.076927  0  3.941507  0
C  C67  1  0.54755558  0.35169379  0.27812544  1  -0.060449  0  -0.066074  -0.105677  0  3.917717  0
N  N68  1  0.44249655  0.33231451  0.85294244  1  0.363284  0  0.059891  0.512284  0  4.209908  0
N  N69  1  0.44241302  0.33435226  0.48039626  1  0.362588  0  0.059839  0.512419  0  4.209903  0
N  N70  1  0.44264372  0.02060651  0.66767356  1  0.374693  0  0.060062  0.512962  0  4.208885  0
N  N71  1  0.44236548  0.64605526  0.66565496  1  0.377813  0  0.060093  0.512753  0  4.209257  0
N  N72  1  0.44263494  0.14705857  0.97940336  1  0.38681  0  0.060207  0.512741  0  4.207587  0
N  N73  1  0.44239169  0.51961825  0.35395217  1  0.387537  0  0.060243  0.512304  0  4.209231  0
O  O74  1  0.73266085  0.55587622  0.55391996  1  -1.247741  0  -0.231964  -0.592211  0  2.403415  0
O  O75  1  0.73268679  0.49805065  0.44412957  1  -1.249414  0  -0.231871  -0.592145  0  2.40323  0
O  O76  1  0.73267895  0.44609042  0.50196236  1  -1.248951  0  -0.231945  -0.592095  0  2.403685  0
O  O77  1  0.25889503  0.56040864  0.51394390  1  -1.244277  0  -0.225048  -0.577424  0  2.383009  0
O  O78  1  0.25892399  0.48606742  0.54647442  1  -1.243337  0  -0.225074  -0.577414  0  2.383119  0
O  O79  1  0.25895699  0.45354423  0.43960791  1  -1.24376  0  -0.225143  -0.577491  0  2.383126  0
O  O80  1  0.73264511  0.16859897  0.88920515  1  -1.249104  0  -0.231661  -0.591927  0  2.403771  0
O  O81  1  0.73263552  0.22057624  0.83138702  1  -1.248369  0  -0.231862  -0.591977  0  2.403118  0
O  O82  1  0.73267853  0.11078667  0.77941252  1  -1.247839  0  -0.231977  -0.592102  0  2.403428  0
O  O83  1  0.25887785  0.21310667  0.89373870  1  -1.243639  0  -0.225073  -0.577438  0  2.383414  0
O  O84  1  0.25890245  0.10624919  0.81938338  1  -1.244836  0  -0.225006  -0.577416  0  2.383075  0
O  O85  1  0.25887101  0.18060647  0.78686852  1  -1.243163  0  -0.225094  -0.577278  0  2.382438  0
O  O86  1  0.30320627  0.31088409  0.87554867  1  -0.434562  0  -0.113566  -0.304019  0  1.944691  0
O  O87  1  0.54212508  0.37891054  0.87491627  1  -0.434383  0  -0.134411  -0.329723  0  1.871282  0
O  O88  1  0.30325360  0.35578972  0.45778655  1  -0.434418  0  -0.113455  -0.30397  0  1.944724  0
O  O89  1  0.54190626  0.28774819  0.45842703  1  -0.433677  0  -0.134456  -0.329913  0  1.871362  0
O  O90  1  0.30341409  0.06464526  0.68909904  1  -0.429525  0  -0.113875  -0.304608  0  1.943838  0
O  O91  1  0.54230602  0.99597478  0.62107685  1  -0.433871  0  -0.134283  -0.329694  0  1.871278  0
O  O92  1  0.30325249  0.60200786  0.64421826  1  -0.429857  0  -0.113697  -0.304324  0  1.944685  0
O  O93  1  0.54180389  0.67069640  0.71226302  1  -0.434274  0  -0.134459  -0.329798  0  1.870809  0
O  O94  1  0.30341304  0.12443818  0.93536250  1  -0.432799  0  -0.11402  -0.304652  0  1.94369  0
O  O95  1  0.54230089  0.12509792  0.00404002  1  -0.431751  0  -0.134174  -0.329372  0  1.870566  0
O  O96  1  0.30329089  0.54223061  0.39800391  1  -0.433677  0  -0.113749  -0.304091  0  1.94461  0
O  O97  1  0.54181892  0.54158878  0.32931164  1  -0.431646  0  -0.134459  -0.329574  0  1.871155  0
