# generated using pymatgen
data_LiP2H17C5NO8
_symmetry_space_group_name_H-M   'P 1'
_cell_length_a   5.92317611
_cell_length_b   9.43108604
_cell_length_c   10.88120478
_cell_angle_alpha   74.03726937
_cell_angle_beta   75.65403514
_cell_angle_gamma   84.44266158
_symmetry_Int_Tables_number   1
_chemical_formula_structural   LiP2H17C5NO8
_chemical_formula_sum   'Li2 P4 H34 C10 N2 O16'
_cell_volume   565.91537433
_cell_formula_units_Z   2
loop_
 _symmetry_equiv_pos_site_id
 _symmetry_equiv_pos_as_xyz
  1  'x, y, z'
loop_
 _atom_site_type_symbol
 _atom_site_label
 _atom_site_symmetry_multiplicity
 _atom_site_fract_x
 _atom_site_fract_y
 _atom_site_fract_z
 _atom_site_occupancy
 _atom_site_pbe_bader_charge
 _atom_site_pbe_bader_spin_density
 _atom_site_pbe_cm5_charge
 _atom_site_pbe_ddec_charge
 _atom_site_pbe_ddec_spin_density
 _atom_site_pbe_ddec_sum_bond_order
 _atom_site_pbe_magmom
Li  Li0  1  0.66975531  0.94511772  0.16810698  1  0.865456  0  0.507168  0.833272  0  0.478865  0
Li  Li1  1  0.33025874  0.05488733  0.83188953  1  0.865454  0  0.507147  0.833239  0  0.478924  0
P  P2  1  0.61000797  0.30488968  0.09601795  1  3.386708  0  0.371089  1.299429  0  5.351472  0
P  P3  1  0.38996926  0.69511979  0.90397605  1  3.386688  0  0.371151  1.299561  0  5.351629  0
P  P4  1  0.83205886  0.65669959  0.35733449  1  3.340998  0  0.364008  1.295326  0  5.343759  0
P  P5  1  0.16794862  0.34329663  0.64265767  1  3.341213  0  0.363949  1.295267  0  5.343568  0
H  H6  1  0.72920156  0.52781413  0.98251305  1  0.649585  0  0.303982  0.383297  0  0.968668  0
H  H7  1  0.27077963  0.47218541  0.01748555  1  0.649633  0  0.304003  0.383398  0  0.968505  0
H  H8  1  0.16716026  0.55439630  0.40572197  1  0.663399  0  0.303229  0.387246  0  0.962562  0
H  H9  1  0.83284205  0.44559882  0.59427391  1  0.663212  0  0.303246  0.387239  0  0.962571  0
H  H10  1  0.73942505  0.81076511  0.98771876  1  0.646805  0  0.299996  0.396504  0  0.942799  0
H  H11  1  0.26058007  0.18924435  0.01227606  1  0.646865  0  0.29998  0.396466  0  0.942833  0
H  H12  1  0.99145363  0.87005068  0.96424400  1  0.635501  0  0.304866  0.399911  0  0.933366  0
H  H13  1  0.00855687  0.12995547  0.03574538  1  0.635608  0  0.304926  0.400027  0  0.933212  0
H  H14  1  0.26698673  0.96887214  0.11851752  1  0.624853  0  0.301047  0.3926  0  0.941873  0
H  H15  1  0.73302497  0.03114617  0.88148624  1  0.624865  0  0.301004  0.392593  0  0.941903  0
H  H16  1  0.25198968  0.82189607  0.23506571  1  0.627986  0  0.302545  0.397028  0  0.928263  0
H  H17  1  0.74802713  0.17812444  0.76493315  1  0.628194  0  0.302517  0.397047  0  0.928216  0
H  H18  1  0.55606009  0.41576531  0.40491212  1  0.523667  0  0.313672  0.259482  0  0.94756  0
H  H19  1  0.44393842  0.58423643  0.59508269  1  0.523623  0  0.313697  0.25946  0  0.947568  0
H  H20  1  0.37325909  0.45463641  0.22870166  1  0.121172  0  0.124545  0.145649  0  1.009736  0
H  H21  1  0.62673975  0.54535872  0.77129929  1  0.121586  0  0.124553  0.145664  0  1.009711  0
H  H22  1  0.40508422  0.27062924  0.32089214  1  0.099581  0  0.129268  0.146367  0  1.004164  0
H  H23  1  0.59491794  0.72936919  0.67910573  1  0.099603  0  0.129288  0.146383  0  1.004226  0
H  H24  1  0.58974986  0.63417404  0.21626642  1  0.120794  0  0.13272  0.153076  0  0.99956  0
H  H25  1  0.41025594  0.36582108  0.78373174  1  0.120768  0  0.132715  0.153053  0  0.999536  0
H  H26  1  0.87879548  0.57038209  0.15845578  1  0.159182  0  0.127204  0.165764  0  1.009456  0
H  H27  1  0.12120688  0.42961193  0.84154128  1  0.159201  0  0.127221  0.165754  0  1.009519  0
H  H28  1  0.97971020  0.36633627  0.36924664  1  0.058341  0  0.111493  0.081885  0  1.028079  0
H  H29  1  0.02028658  0.63366548  0.63075392  1  0.05828  0  0.111493  0.081905  0  1.028117  0
H  H30  1  0.96369839  0.29897637  0.23438517  1  0.108303  0  0.118903  0.106792  0  0.978828  0
H  H31  1  0.03630219  0.70101876  0.76561371  1  0.10833  0  0.118881  0.106794  0  0.978896  0
H  H32  1  0.69518427  0.10180288  0.39076609  1  0.051348  0  0.104925  0.104053  0  0.986717  0
H  H33  1  0.30481631  0.89819225  0.60923829  1  0.051324  0  0.104925  0.104037  0  0.986759  0
H  H34  1  0.69912748  0.17839359  0.52241199  1  0.056708  0  0.099912  0.098623  0  0.989494  0
H  H35  1  0.30087294  0.82160485  0.47758886  1  0.056751  0  0.099907  0.098619  0  0.98946  0
H  H36  1  0.11851061  0.04744276  0.35349216  1  0.067914  0  0.095496  0.089822  0  1.002357  0
H  H37  1  0.88149310  0.95256010  0.64651455  1  0.067858  0  0.09549  0.089831  0  1.002317  0
H  H38  1  0.14016562  0.13629993  0.47480641  1  0.025277  0  0.087368  0.07796  0  1.021387  0
H  H39  1  0.85983117  0.86370182  0.52519782  1  0.025241  0  0.087376  0.07797  0  1.021338  0
C  C40  1  0.50000552  0.36333381  0.24800463  1  -0.283934  0  -0.072838  -0.388723  0  3.7571  0
C  C41  1  0.49999664  0.63666462  0.75199139  1  -0.284167  0  -0.072852  -0.388748  0  3.75697  0
C  C42  1  0.73956921  0.56897569  0.24656954  1  -0.295743  0  -0.072607  -0.399522  0  3.735963  0
C  C43  1  0.26043289  0.43102384  0.75342531  1  -0.295797  0  -0.072582  -0.399403  0  3.735932  0
C  C44  1  0.86818622  0.31030905  0.33166921  1  0.192556  0  -0.061025  -0.066435  0  3.791875  0
C  C45  1  0.13181594  0.68968939  0.66832958  1  0.192594  0  -0.061008  -0.066533  0  3.792002  0
C  C46  1  0.80203096  0.16237566  0.42760892  1  -0.026516  0  -0.161063  -0.172347  0  3.923521  0
C  C47  1  0.19796762  0.83762499  0.57239349  1  -0.026935  0  -0.161076  -0.172282  0  3.923534  0
C  C48  1  0.02482150  0.07185704  0.44672618  1  -0.039285  0  -0.162385  -0.136945  0  3.923223  0
C  C49  1  0.97517698  0.92814582  0.55327664  1  -0.063317  0  -0.162351  -0.136956  0  3.923141  0
N  N50  1  0.66348867  0.41367112  0.31221029  1  -1.021578  0  -0.342966  0.080524  0  3.588655  0
N  N51  1  0.33651354  0.58632621  0.68778783  1  -1.021664  0  -0.343055  0.080486  0  3.58882  0
O  O52  1  0.79744995  0.42066186  0.00391726  1  -1.425044  0  -0.3849  -0.657835  0  2.287063  0
O  O53  1  0.20254138  0.57934430  0.99607654  1  -1.425434  0  -0.384917  -0.658004  0  2.286989  0
O  O54  1  0.38922498  0.32053647  0.04380447  1  -1.464734  0  -0.356846  -0.744959  0  2.235543  0
O  O55  1  0.61076145  0.67946308  0.95619894  1  -1.464496  0  -0.35692  -0.744998  0  2.235403  0
O  O56  1  0.72849227  0.15456404  0.12230525  1  -1.490237  0  -0.41877  -0.801056  0  2.181946  0
O  O57  1  0.27150787  0.84543991  0.87768605  1  -1.490198  0  -0.418714  -0.800994  0  2.182298  0
O  O58  1  0.72575452  0.56817232  0.49769917  1  -1.474852  0  -0.370452  -0.757331  0  2.255995  0
O  O59  1  0.27424953  0.43182279  0.50229372  1  -1.474834  0  -0.370418  -0.757365  0  2.256081  0
O  O60  1  0.11024975  0.63446598  0.33332905  1  -1.432884  0  -0.386251  -0.67378  0  2.268179  0
O  O61  1  0.88975629  0.36552361  0.66666121  1  -1.432639  0  -0.386281  -0.67377  0  2.268244  0
O  O62  1  0.77061958  0.81762321  0.31648228  1  -1.477729  0  -0.432637  -0.801964  0  2.12133  0
O  O63  1  0.22937593  0.18236861  0.68351899  1  -1.477814  0  -0.4326  -0.80198  0  2.121261  0
O  O64  1  0.82402491  0.88914335  0.00226197  1  -1.296781  0  -0.622521  -0.834731  0  2.00159  0
O  O65  1  0.17598222  0.11086060  0.99773574  1  -1.296795  0  -0.622567  -0.834792  0  2.00151  0
O  O66  1  0.34890239  0.90636733  0.18502203  1  -1.284712  0  -0.65819  -0.858964  0  1.950586  0
O  O67  1  0.65110214  0.09365540  0.81498532  1  -1.284909  0  -0.658113  -0.858987  0  1.950476  0
