# generated using pymatgen
data_CdH5(C2O3)2
_symmetry_space_group_name_H-M   'P 1'
_cell_length_a   6.33408863
_cell_length_b   7.60103832
_cell_length_c   27.18101181
_cell_angle_alpha   89.99988694
_cell_angle_beta   90.00017074
_cell_angle_gamma   107.09635651
_symmetry_Int_Tables_number   1
_chemical_formula_structural   CdH5(C2O3)2
_chemical_formula_sum   'Cd8 H40 C32 O48'
_cell_volume   1250.82059768
_cell_formula_units_Z   8
loop_
 _symmetry_equiv_pos_site_id
 _symmetry_equiv_pos_as_xyz
  1  'x, y, z'
loop_
 _atom_site_type_symbol
 _atom_site_label
 _atom_site_symmetry_multiplicity
 _atom_site_fract_x
 _atom_site_fract_y
 _atom_site_fract_z
 _atom_site_occupancy
 _atom_site_hle17_bader_spin_density
 _atom_site_hle17_ddec_charge
 _atom_site_hle17_ddec_spin_density
 _atom_site_hle17_ddec_sum_bond_order
 _atom_site_hle17_magmom
 _atom_site_hse06_10hf_bader_charge
 _atom_site_hse06_10hf_bader_spin_density
 _atom_site_hse06_10hf_ddec_charge
 _atom_site_hse06_10hf_ddec_spin_density
 _atom_site_hse06_10hf_ddec_sum_bond_order
 _atom_site_hse06_10hf_magmom
 _atom_site_hse06_bader_spin_density
 _atom_site_hse06_ddec_charge
 _atom_site_hse06_ddec_spin_density
 _atom_site_hse06_ddec_sum_bond_order
 _atom_site_hse06_magmom
 _atom_site_pbe_bader_spin_density
 _atom_site_pbe_cm5_charge
 _atom_site_pbe_ddec_charge
 _atom_site_pbe_ddec_spin_density
 _atom_site_pbe_ddec_sum_bond_order
 _atom_site_pbe_magmom
Cd  Cd0  1  0.09812241  0.81308474  0.78510561  1  0  1.281544  0  1.53608  0  1.39791  0  1.104168  0  1.969736  0  0  1.161327  0  1.910912  0  0  0.789375  1.062824  0  2.010609  0
Cd  Cd1  1  0.40187546  0.68691308  0.28510413  1  0  1.281537  0  1.536128  0  1.397838  0  1.104156  0  1.969797  0  0  1.161317  0  1.910968  0  0  0.789353  1.062813  0  2.010674  0
Cd  Cd2  1  0.90187717  0.18691425  0.21489441  1  0  1.281555  0  1.536078  0  1.397898  0  1.10419  0  1.969725  0  0  1.161351  0  1.910899  0  0  0.789391  1.062849  0  2.010612  0
Cd  Cd3  1  0.59812509  0.31308867  0.71489589  1  0  1.28157  0  1.536147  0  1.397833  0  1.104191  0  1.969804  0  0  1.161354  0  1.910977  0  0  0.78938  1.062851  0  2.010689  0
Cd  Cd4  1  0.46844946  0.79308096  0.95705115  1  0  1.274174  0  1.539631  0  1.390041  0  1.095429  0  1.984853  0  0  1.15694  0  1.92379  0  0  0.786956  1.050947  0  2.02716  0
Cd  Cd5  1  0.03155119  0.70691888  0.45705160  1  0  1.274154  0  1.539617  0  1.390068  0  1.095413  0  1.984841  0  0  1.156925  0  1.923777  0  0  0.786952  1.050932  0  2.027132  0
Cd  Cd6  1  0.53155121  0.20691666  0.04294850  1  0  1.274192  0  1.539612  0  1.390017  0  1.095449  0  1.984842  0  0  1.156962  0  1.92378  0  0  0.786955  1.050969  0  2.02715  0
Cd  Cd7  1  0.96845094  0.29308287  0.54294842  1  0  1.274176  0  1.539578  0  1.390063  0  1.095446  0  1.984798  0  0  1.156958  0  1.923736  0  0  0.786964  1.050963  0  2.027082  0
H  H8  1  0.47098819  0.18325748  0.88253570  1  0  0.093539  0  0.911012  0  0.128211  0  0.098498  0  0.973956  0  0  0.101674  0  0.971241  0  0  0.117987  0.096217  0  0.976043  0
H  H9  1  0.02900580  0.31673487  0.38253461  1  0  0.093457  0  0.911091  0  0.128238  0  0.098399  0  0.974009  0  0  0.101569  0  0.971303  0  0  0.117957  0.096123  0  0.976099  0
H  H10  1  0.52900933  0.81674014  0.11746358  1  0  0.0935  0  0.911061  0  0.128196  0  0.098445  0  0.974005  0  0  0.101623  0  0.971287  0  0  0.117957  0.096164  0  0.976101  0
H  H11  1  0.97099365  0.68326826  0.61746614  1  0  0.093451  0  0.911086  0  0.127996  0  0.098388  0  0.974005  0  0  0.101557  0  0.971297  0  0  0.117969  0.096116  0  0.976088  0
H  H12  1  0.05274472  0.29020914  0.85708871  1  0  0.111229  0  0.915653  0  0.079536  0  0.122063  0  0.970168  0  0  0.125125  0  0.968302  0  0  0.115176  0.119837  0  0.97163  0
H  H13  1  0.44725665  0.20979158  0.35708799  1  0  0.111271  0  0.915611  0  0.079525  0  0.122105  0  0.970148  0  0  0.125165  0  0.968283  0  0  0.115206  0.11988  0  0.971608  0
H  H14  1  0.94725279  0.70978849  0.14291131  1  0  0.111243  0  0.915588  0  0.079551  0  0.122074  0  0.970122  0  0  0.125147  0  0.968238  0  0  0.115172  0.119849  0  0.971582  0
H  H15  1  0.55274183  0.79020879  0.64291166  1  0  0.111264  0  0.91562  0  0.079587  0  0.122093  0  0.970164  0  0  0.125162  0  0.968288  0  0  0.1152  0.119869  0  0.971625  0
H  H16  1  0.90011064  0.16698452  0.93567075  1  0  0.123758  0  0.92741  0  0.132398  0  0.129885  0  0.991219  0  0  0.13335  0  0.989123  0  0  0.113907  0.127387  0  0.992789  0
H  H17  1  0.59988921  0.33301745  0.43567007  1  0  0.12378  0  0.927415  0  0.132418  0  0.129911  0  0.991218  0  0  0.133376  0  0.989122  0  0  0.113929  0.127417  0  0.992781  0
H  H18  1  0.09988845  0.83301310  0.06432927  1  0  0.123819  0  0.927435  0  0.132389  0  0.129987  0  0.991198  0  0  0.133453  0  0.989101  0  0  0.113929  0.12749  0  0.99277  0
H  H19  1  0.40011292  0.66698430  0.56432921  1  0  0.123795  0  0.927338  0  0.132422  0  0.129924  0  0.991152  0  0  0.13339  0  0.989056  0  0  0.113929  0.12743  0  0.992716  0
H  H20  1  0.97968819  0.83421647  0.91773601  1  0  0.103792  0  0.916375  0  0.154237  0  0.108427  0  0.981427  0  0  0.111409  0  0.978882  0  0  0.121612  0.1063  0  0.98332  0
H  H21  1  0.52030083  0.66578238  0.41773500  1  0  0.103802  0  0.91644  0  0.154244  0  0.108419  0  0.981496  0  0  0.111405  0  0.978942  0  0  0.121609  0.106289  0  0.983389  0
H  H22  1  0.02031090  0.16578116  0.08226401  1  0  0.103819  0  0.916411  0  0.154255  0  0.108453  0  0.981432  0  0  0.111436  0  0.978884  0  0  0.121628  0.106327  0  0.983325  0
H  H23  1  0.47969765  0.33421799  0.58226501  1  0  0.103804  0  0.916438  0  0.154246  0  0.108426  0  0.981497  0  0  0.111413  0  0.97894  0  0  0.121615  0.1063  0  0.98339  0
H  H24  1  0.41001264  0.60071331  0.78108533  1  0  0.432902  0  0.850495  0  0.659808  0  0.404474  0  0.910698  0  0  0.413987  0  0.897007  0  0  0.300182  0.397723  0  0.920407  0
H  H25  1  0.08998725  0.89928591  0.28108461  1  0  0.432903  0  0.850522  0  0.659811  0  0.404474  0  0.91071  0  0  0.413986  0  0.897018  0  0  0.300174  0.397723  0  0.920419  0
H  H26  1  0.58998694  0.39928569  0.21891469  1  0  0.432891  0  0.850544  0  0.659815  0  0.404455  0  0.91074  0  0  0.413967  0  0.897049  0  0  0.300152  0.397703  0  0.920447  0
H  H27  1  0.91001439  0.10071447  0.71891504  1  0  0.432901  0  0.850501  0  0.659791  0  0.404479  0  0.910696  0  0  0.413992  0  0.897004  0  0  0.300168  0.397725  0  0.920407  0
H  H28  1  0.54633946  0.80716198  0.78926125  1  0  0.431995  0  0.864871  0  0.673731  0  0.398454  0  0.931969  0  0  0.410258  0  0.914901  0  0  0.28911  0.390009  0  0.944182  0
H  H29  1  0.95365975  0.69283880  0.28926091  1  0  0.432007  0  0.864851  0  0.673737  0  0.398476  0  0.931933  0  0  0.410279  0  0.914868  0  0  0.289138  0.390028  0  0.944149  0
H  H30  1  0.45366218  0.19283840  0.21073840  1  0  0.432008  0  0.864848  0  0.673733  0  0.398466  0  0.931949  0  0  0.410269  0  0.914883  0  0  0.289125  0.390017  0  0.944167  0
H  H31  1  0.04634080  0.30716295  0.71073948  1  0  0.43197  0  0.864904  0  0.673733  0  0.398436  0  0.931991  0  0  0.41024  0  0.914923  0  0  0.289099  0.389985  0  0.94421  0
H  H32  1  0.77934174  0.50259908  0.82964991  1  0  0.437859  0  0.851937  0  0.665379  0  0.406276  0  0.915534  0  0  0.416892  0  0.900164  0  0  0.295353  0.398685  0  0.926514  0
H  H33  1  0.72065643  0.99739740  0.32964849  1  0  0.437923  0  0.851845  0  0.665402  0  0.406252  0  0.915572  0  0  0.416894  0  0.900175  0  0  0.295339  0.398663  0  0.926549  0
H  H34  1  0.22065941  0.49739992  0.17035011  1  0  0.437868  0  0.851921  0  0.665366  0  0.406287  0  0.915515  0  0  0.416902  0  0.900145  0  0  0.295361  0.398695  0  0.926496  0
H  H35  1  0.27934618  0.00260573  0.67035226  1  0  0.437953  0  0.85179  0  0.665421  0  0.406293  0  0.9155  0  0  0.416934  0  0.900104  0  0  0.29535  0.398702  0  0.926478  0
H  H36  1  0.99731680  0.55730971  0.86563060  1  0  0.42877  0  0.874731  0  0.652738  0  0.395813  0  0.941117  0  0  0.407239  0  0.924618  0  0  0.289656  0.387679  0  0.952845  0
H  H37  1  0.50268383  0.94268798  0.36562943  1  0  0.428791  0  0.874712  0  0.652765  0  0.39587  0  0.941042  0  0  0.407297  0  0.924539  0  0  0.289683  0.387733  0  0.952773  0
H  H38  1  0.00268436  0.44268928  0.13436978  1  0  0.428794  0  0.874705  0  0.652742  0  0.395843  0  0.941082  0  0  0.407269  0  0.924581  0  0  0.289671  0.387707  0  0.952812  0
H  H39  1  0.49731830  0.05731377  0.63437096  1  0  0.428786  0  0.87472  0  0.652762  0  0.395859  0  0.941061  0  0  0.407286  0  0.924558  0  0  0.289689  0.387722  0  0.952796  0
H  H40  1  0.18776879  0.49721814  0.00730061  1  0  0.434922  0  0.849142  0  0.661327  0  0.406268  0  0.916519  0  0  0.416672  0  0.901549  0  0  0.298778  0.398805  0  0.927267  0
H  H41  1  0.31223156  0.00278271  0.50730058  1  0  0.434907  0  0.84915  0  0.661323  0  0.406259  0  0.916533  0  0  0.416664  0  0.901562  0  0  0.298769  0.398796  0  0.927278  0
H  H42  1  0.81223297  0.50277811  0.99269940  1  0  0.434943  0  0.849093  0  0.661343  0  0.406296  0  0.916475  0  0  0.4167  0  0.901505  0  0  0.298798  0.398831  0  0.927227  0
H  H43  1  0.68777057  0.99721905  0.49269980  1  0  0.434925  0  0.849094  0  0.661333  0  0.406279  0  0.916491  0  0  0.416684  0  0.901521  0  0  0.298776  0.398817  0  0.927235  0
H  H44  1  0.35700057  0.60011537  0.04580841  1  0  0.425687  0  0.878656  0  0.656697  0  0.394432  0  0.943435  0  0  0.405368  0  0.92764  0  0  0.289829  0.386654  0  0.954656  0
H  H45  1  0.14299635  0.89988349  0.54580803  1  0  0.425748  0  0.878588  0  0.656584  0  0.394542  0  0.943289  0  0  0.405478  0  0.927493  0  0  0.289885  0.386764  0  0.954509  0
H  H46  1  0.64300119  0.39988088  0.95419124  1  0  0.425727  0  0.878604  0  0.656545  0  0.394481  0  0.94337  0  0  0.405418  0  0.927571  0  0  0.28984  0.386704  0  0.954587  0
H  H47  1  0.85700372  0.10011689  0.45419236  1  0  0.425673  0  0.878677  0  0.656551  0  0.394462  0  0.943389  0  0  0.405397  0  0.927596  0  0  0.289851  0.386683  0  0.954609  0
C  C48  1  0.31964920  0.16607476  0.86072557  1  0  0.059708  0  3.582191  0  0.42185  0  0.034152  0  3.830878  0  0  0.036165  0  3.836674  0  0  0.001452  0.032532  0  3.827268  0
C  C49  1  0.18034759  0.33392181  0.36072459  1  0  0.059919  0  3.582181  0  0.422124  0  0.034509  0  3.830704  0  0  0.036525  0  3.836496  0  0  0.001579  0.032877  0  3.827115  0
C  C50  1  0.68034831  0.83392286  0.13927371  1  0  0.059743  0  3.582137  0  0.422081  0  0.034274  0  3.830717  0  0  0.036291  0  3.836514  0  0  0.0015  0.032644  0  3.827126  0
C  C51  1  0.81965138  0.66607994  0.63927580  1  0  0.059763  0  3.582194  0  0.421994  0  0.034376  0  3.83073  0  0  0.036398  0  3.836516  0  0  0.001445  0.032743  0  3.827144  0
C  C52  1  0.17489406  0.27288640  0.88399872  1  0  -0.167163  0  3.60348  0  0.004942  0  -0.177174  0  3.843041  0  0  -0.182764  0  3.853413  0  0  -0.082438  -0.173307  0  3.835926  0
C  C53  1  0.32510553  0.22711282  0.38399827  1  0  -0.167097  0  3.603306  0  0.004864  0  -0.177163  0  3.842896  0  0  -0.182749  0  3.853263  0  0  -0.08244  -0.173292  0  3.835773  0
C  C54  1  0.82510345  0.72711122  0.11600093  1  0  -0.167131  0  3.6034  0  0.004939  0  -0.177176  0  3.843001  0  0  -0.182767  0  3.853362  0  0  -0.082447  -0.173311  0  3.835889  0
C  C55  1  0.67489296  0.77288755  0.61600175  1  0  -0.167071  0  3.60322  0  0.004792  0  -0.177149  0  3.842796  0  0  -0.182742  0  3.853165  0  0  -0.082414  -0.173285  0  3.835684  0
C  C56  1  0.04903837  0.13368990  0.92373638  1  0  -0.165659  0  3.585518  0  -0.012656  0  -0.178628  0  3.824236  0  0  -0.184145  0  3.834435  0  0  -0.083371  -0.174754  0  3.817195  0
C  C57  1  0.45095642  0.36630778  0.42373594  1  0  -0.165832  0  3.585727  0  -0.012649  0  -0.17886  0  3.82453  0  0  -0.184376  0  3.834727  0  0  -0.08347  -0.17499  0  3.817491  0
C  C58  1  0.95096073  0.86630773  0.07626327  1  0  -0.165909  0  3.585728  0  -0.012626  0  -0.178975  0  3.824541  0  0  -0.184495  0  3.834741  0  0  -0.083457  -0.175102  0  3.817507  0
C  C59  1  0.54904316  0.63369121  0.57626334  1  0  -0.165841  0  3.585657  0  -0.012628  0  -0.178851  0  3.824409  0  0  -0.184371  0  3.834609  0  0  -0.083461  -0.174973  0  3.817363  0
C  C60  1  0.99968447  0.95519569  0.89399919  1  0  0.030974  0  3.597457  0  0.369208  0  0.003123  0  3.850692  0  0  0.005392  0  3.856714  0  0  -0.005229  0.001487  0  3.846543  0
C  C61  1  0.50030746  0.54480326  0.39399898  1  0  0.030879  0  3.597558  0  0.369226  0  0.003135  0  3.850691  0  0  0.005403  0  3.856715  0  0  -0.005214  0.001507  0  3.846529  0
C  C62  1  0.00031305  0.04480193  0.10600082  1  0  0.030832  0  3.597659  0  0.369245  0  0.003093  0  3.850767  0  0  0.005368  0  3.856786  0  0  -0.005289  0.001454  0  3.846619  0
C  C63  1  0.49969260  0.45519712  0.60600104  1  0  0.030882  0  3.597499  0  0.369213  0  0.003111  0  3.850662  0  0  0.005382  0  3.856685  0  0  -0.00523  0.001478  0  3.846508  0
C  C64  1  0.39367869  0.22444889  0.80865835  1  0  0.658318  0  3.839351  0  1.627255  0  0.599924  0  4.1413  0  0  0.633741  0  4.135375  0  0  0.215327  0.576901  0  4.144513  0
C  C65  1  0.10632084  0.27554378  0.30865808  1  0  0.658167  0  3.839074  0  1.627022  0  0.599653  0  4.141168  0  0  0.633471  0  4.135249  0  0  0.21525  0.576637  0  4.144374  0
C  C66  1  0.60631931  0.77555011  0.19134130  1  0  0.658308  0  3.839163  0  1.627049  0  0.599927  0  4.141059  0  0  0.633742  0  4.135134  0  0  0.215362  0.57691  0  4.144269  0
C  C67  1  0.89367607  0.72445660  0.69134267  1  0  0.658426  0  3.839161  0  1.627432  0  0.599925  0  4.141234  0  0  0.633742  0  4.135313  0  0  0.215411  0.576899  0  4.144447  0
C  C68  1  0.29443927  0.46057889  0.90493980  1  0  0.682148  0  3.847424  0  1.606273  0  0.624534  0  4.153281  0  0  0.658531  0  4.147893  0  0  0.207827  0.601438  0  4.156044  0
C  C69  1  0.20556370  0.03942025  0.40494010  1  0  0.682143  0  3.847463  0  1.606104  0  0.624552  0  4.153301  0  0  0.658552  0  4.147907  0  0  0.207846  0.601459  0  4.156056  0
C  C70  1  0.70556141  0.53941873  0.09505985  1  0  0.682205  0  3.847467  0  1.606108  0  0.624619  0  4.153277  0  0  0.658616  0  4.147889  0  0  0.207874  0.601528  0  4.156032  0
C  C71  1  0.79443527  0.96058150  0.59506028  1  0  0.682151  0  3.847458  0  1.606031  0  0.624584  0  4.153269  0  0  0.658582  0  4.147878  0  0  0.20787  0.601493  0  4.156022  0
C  C72  1  0.19384930  0.14003807  0.96901731  1  0  0.687587  0  3.814017  0  1.572736  0  0.633691  0  4.114215  0  0  0.667761  0  4.109072  0  0  0.20805  0.610442  0  4.116908  0
C  C73  1  0.30614852  0.35996217  0.46901677  1  0  0.687558  0  3.814074  0  1.572739  0  0.63366  0  4.114308  0  0  0.66773  0  4.109165  0  0  0.208027  0.6104  0  4.117012  0
C  C74  1  0.80615028  0.85996093  0.03098234  1  0  0.687612  0  3.814048  0  1.572766  0  0.633713  0  4.114294  0  0  0.667782  0  4.10915  0  0  0.208036  0.610467  0  4.116987  0
C  C75  1  0.69385155  0.64003820  0.53098288  1  0  0.687501  0  3.81417  0  1.572724  0  0.633645  0  4.114326  0  0  0.667715  0  4.109183  0  0  0.208036  0.610383  0  4.117029  0
C  C76  1  0.78905911  0.92585508  0.86295503  1  0  0.653439  0  3.849157  0  1.620776  0  0.598685  0  4.153539  0  0  0.632902  0  4.146464  0  0  0.211806  0.575302  0  4.157698  0
C  C77  1  0.71094039  0.57414400  0.36295679  1  0  0.653524  0  3.848881  0  1.62082  0  0.598682  0  4.153364  0  0  0.632899  0  4.14629  0  0  0.211804  0.575301  0  4.157513  0
C  C78  1  0.21093889  0.07414392  0.13704499  1  0  0.653543  0  3.849085  0  1.62077  0  0.598772  0  4.153441  0  0  0.632988  0  4.146365  0  0  0.211848  0.575396  0  4.157591  0
C  C79  1  0.28905748  0.42585912  0.63704323  1  0  0.653526  0  3.848854  0  1.620847  0  0.598714  0  4.153301  0  0  0.632929  0  4.146228  0  0  0.211848  0.575327  0  4.157454  0
O  O80  1  0.41104592  0.72660863  0.77274197  1  0  -0.830311  0  1.838878  0  -1.288386  0  -0.767278  0  2.029104  0  0  -0.790149  0  1.994412  0  0  -0.585122  -0.751072  0  2.053337  0
O  O81  1  0.08895231  0.77339063  0.27274168  1  0  -0.830315  0  1.838891  0  -1.288406  0  -0.767293  0  2.029085  0  0  -0.790172  0  1.994408  0  0  -0.585132  -0.751084  0  2.053322  0
O  O82  1  0.58895366  0.27339037  0.22725805  1  0  -0.830316  0  1.838886  0  -1.288383  0  -0.767275  0  2.029089  0  0  -0.790148  0  1.994401  0  0  -0.585109  -0.751069  0  2.053328  0
O  O83  1  0.91104982  0.22661113  0.72725870  1  0  -0.830283  0  1.838893  0  -1.288386  0  -0.767269  0  2.029105  0  0  -0.790141  0  1.99441  0  0  -0.585097  -0.751056  0  2.053341  0
O  O84  1  0.19135931  0.97449446  0.86336758  1  0  -0.339425  0  2.30477  0  -1.050325  0  -0.26926  0  2.55049  0  0  -0.285761  0  2.550508  0  0  -0.212817  -0.257583  0  2.550394  0
O  O85  1  0.30863416  0.52550165  0.36336613  1  0  -0.339489  0  2.304821  0  -1.050327  0  -0.269357  0  2.550489  0  0  -0.285861  0  2.550507  0  0  -0.212832  -0.25768  0  2.550397  0
O  O86  1  0.80863929  0.02550178  0.13663207  1  0  -0.339316  0  2.304689  0  -1.050301  0  -0.269255  0  2.550425  0  0  -0.285767  0  2.550454  0  0  -0.212765  -0.257576  0  2.550334  0
O  O87  1  0.69136226  0.47449735  0.63663389  1  0  -0.339421  0  2.304767  0  -1.050312  0  -0.269321  0  2.550447  0  0  -0.285826  0  2.550464  0  0  -0.212774  -0.257644  0  2.550358  0
O  O88  1  0.94144647  0.55286831  0.83115615  1  0  -0.857536  0  1.876427  0  -1.288629  0  -0.794201  0  2.072783  0  0  -0.818033  0  2.038386  0  0  -0.591729  -0.777224  0  2.096821  0
O  O89  1  0.55855063  0.94712953  0.33115464  1  0  -0.857617  0  1.87634  0  -1.288667  0  -0.794217  0  2.072758  0  0  -0.818081  0  2.038285  0  0  -0.591737  -0.777236  0  2.096794  0
O  O90  1  0.05855311  0.44713069  0.16884423  1  0  -0.857562  0  1.876418  0  -1.288622  0  -0.794218  0  2.072754  0  0  -0.818053  0  2.038353  0  0  -0.591739  -0.77724  0  2.096793  0
O  O91  1  0.44145198  0.05287359  0.66884574  1  0  -0.857662  0  1.876318  0  -1.288657  0  -0.794255  0  2.072728  0  0  -0.818123  0  2.038253  0  0  -0.591759  -0.777272  0  2.096764  0
O  O92  1  0.34924023  0.10775296  0.77383479  1  0  -0.634125  0  2.061803  0  -1.187119  0  -0.555858  0  2.317905  0  0  -0.588323  0  2.307238  0  0  -0.305746  -0.532974  0  2.324364  0
O  O93  1  0.15076245  0.39224537  0.27383228  1  0  -0.634045  0  2.061589  0  -1.18713  0  -0.555764  0  2.317784  0  0  -0.588207  0  2.307072  0  0  -0.305672  -0.532874  0  2.324237  0
O  O94  1  0.65075983  0.89224742  0.22616486  1  0  -0.634117  0  2.061753  0  -1.187134  0  -0.555874  0  2.317846  0  0  -0.588338  0  2.307181  0  0  -0.305756  -0.532996  0  2.324312  0
O  O95  1  0.84923507  0.60775225  0.72616737  1  0  -0.634185  0  2.061569  0  -1.187163  0  -0.555844  0  2.317668  0  0  -0.588314  0  2.307012  0  0  -0.305746  -0.532956  0  2.324124  0
O  O96  1  0.50879718  0.39078679  0.80169834  1  0  -0.650888  0  1.989857  0  -1.217047  0  -0.579031  0  2.216164  0  0  -0.607312  0  2.205161  0  0  -0.306847  -0.55921  0  2.223226  0
O  O97  1  0.99120151  0.10920750  0.30169698  1  0  -0.650892  0  1.989774  0  -1.217133  0  -0.578966  0  2.21611  0  0  -0.607255  0  2.20513  0  0  -0.30689  -0.559149  0  2.223171  0
O  O98  1  0.49119925  0.60921221  0.19830131  1  0  -0.650889  0  1.989743  0  -1.217062  0  -0.579029  0  2.216037  0  0  -0.607309  0  2.205032  0  0  -0.306881  -0.559204  0  2.223092  0
O  O99  1  0.00879333  0.89079149  0.69830378  1  0  -0.650913  0  1.989817  0  -1.217139  0  -0.579057  0  2.216238  0  0  -0.607327  0  2.205218  0  0  -0.306899  -0.559226  0  2.223289  0
O  O100  1  0.25806611  0.62334358  0.01966548  1  0  -0.82476  0  1.862286  0  -1.269802  0  -0.763149  0  2.062272  0  0  -0.787292  0  2.029297  0  0  -0.581719  -0.745983  0  2.085315  0
O  O101  1  0.24193417  0.87665676  0.51966556  1  0  -0.824806  0  1.86227  0  -1.269688  0  -0.763217  0  2.062193  0  0  -0.787359  0  2.029212  0  0  -0.58175  -0.746055  0  2.085241  0
O  O102  1  0.74193614  0.37665404  0.98033453  1  0  -0.824825  0  1.862189  0  -1.269685  0  -0.763235  0  2.062209  0  0  -0.787374  0  2.029223  0  0  -0.581758  -0.746071  0  2.085259  0
O  O103  1  0.75806795  0.12334499  0.48033483  1  0  -0.824742  0  1.862249  0  -1.269655  0  -0.763172  0  2.062223  0  0  -0.787312  0  2.029245  0  0  -0.581733  -0.746007  0  2.085265  0
O  O104  1  0.49465006  0.49763839  0.91817263  1  0  -0.655133  0  2.019434  0  -1.215249  0  -0.591613  0  2.25834  0  0  -0.620127  0  2.248587  0  0  -0.315918  -0.571596  0  2.264441  0
O  O105  1  0.00535620  0.00236069  0.41817318  1  0  -0.655084  0  2.019521  0  -1.215216  0  -0.591588  0  2.258398  0  0  -0.620097  0  2.248643  0  0  -0.315922  -0.571575  0  2.264496  0
O  O106  1  0.50534964  0.50235648  0.08182739  1  0  -0.655132  0  2.019424  0  -1.215265  0  -0.591616  0  2.258319  0  0  -0.620128  0  2.248565  0  0  -0.315956  -0.571602  0  2.264418  0
O  O107  1  0.99464277  0.99764106  0.58182684  1  0  -0.655064  0  2.019466  0  -1.215185  0  -0.591594  0  2.258371  0  0  -0.620104  0  2.248616  0  0  -0.315912  -0.57158  0  2.264468  0
O  O108  1  0.18282446  0.57470211  0.91031922  1  0  -0.634809  0  1.984965  0  -1.181634  0  -0.561266  0  2.216808  0  0  -0.590924  0  2.20652  0  0  -0.311302  -0.540472  0  2.223314  0
O  O109  1  0.31718153  0.92529655  0.41031902  1  0  -0.634859  0  1.984983  0  -1.181502  0  -0.561338  0  2.216822  0  0  -0.591007  0  2.20654  0  0  -0.311325  -0.540541  0  2.223323  0
O  O110  1  0.81717779  0.42529551  0.08968080  1  0  -0.634864  0  1.984981  0  -1.181482  0  -0.561324  0  2.21681  0  0  -0.590993  0  2.20653  0  0  -0.311309  -0.540533  0  2.223318  0
O  O111  1  0.68281744  0.07470520  0.58968137  1  0  -0.634897  0  1.985024  0  -1.181462  0  -0.561376  0  2.216843  0  0  -0.591047  0  2.206565  0  0  -0.311364  -0.540579  0  2.223342  0
O  O112  1  0.32115928  0.03710508  0.97230902  1  0  -0.683711  0  2.048929  0  -1.189426  0  -0.604462  0  2.318454  0  0  -0.637965  0  2.306754  0  0  -0.329888  -0.580767  0  2.325684  0
O  O113  1  0.17883869  0.46289101  0.47230796  1  0  -0.683656  0  2.049004  0  -1.189408  0  -0.604398  0  2.318542  0  0  -0.6379  0  2.306843  0  0  -0.329857  -0.580702  0  2.325771  0
O  O114  1  0.67884139  0.96289254  0.02769063  1  0  -0.683664  0  2.048966  0  -1.189376  0  -0.604418  0  2.318521  0  0  -0.637919  0  2.306821  0  0  -0.32986  -0.580728  0  2.325758  0
O  O115  1  0.82116137  0.53710936  0.52769169  1  0  -0.683615  0  2.049047  0  -1.18946  0  -0.604393  0  2.318578  0  0  -0.637895  0  2.30688  0  0  -0.32985  -0.580694  0  2.325802  0
O  O116  1  0.19229892  0.25627307  0.00228174  1  0  -0.640653  0  1.988343  0  -1.202496  0  -0.577224  0  2.226509  0  0  -0.604896  0  2.216756  0  0  -0.308048  -0.557811  0  2.23274  0
O  O117  1  0.30770563  0.24372642  0.50228157  1  0  -0.640588  0  1.98825  0  -1.20249  0  -0.577173  0  2.226437  0  0  -0.604848  0  2.216684  0  0  -0.30802  -0.557752  0  2.23266  0
O  O118  1  0.80770127  0.74372317  0.99771791  1  0  -0.640608  0  1.988287  0  -1.202538  0  -0.57718  0  2.226456  0  0  -0.604854  0  2.216704  0  0  -0.308015  -0.557766  0  2.232687  0
O  O119  1  0.69229553  0.75627258  0.49771808  1  0  -0.640603  0  1.988312  0  -1.202503  0  -0.577188  0  2.22645  0  0  -0.604861  0  2.216697  0  0  -0.308048  -0.557765  0  2.232671  0
O  O120  1  0.61360889  0.92308800  0.88554463  1  0  -0.632997  0  2.070086  0  -1.204813  0  -0.572807  0  2.340514  0  0  -0.602178  0  2.327897  0  0  -0.322785  -0.55214  0  2.348558  0
O  O121  1  0.88638028  0.57691236  0.38554504  1  0  -0.632947  0  2.070154  0  -1.204817  0  -0.572724  0  2.340613  0  0  -0.602086  0  2.327985  0  0  -0.322753  -0.552063  0  2.348655  0
O  O122  1  0.38638972  0.07690824  0.11445465  1  0  -0.633016  0  2.070018  0  -1.204864  0  -0.572818  0  2.340451  0  0  -0.602196  0  2.327844  0  0  -0.322772  -0.552152  0  2.348491  0
O  O123  1  0.11361979  0.42308801  0.61445497  1  0  -0.632936  0  2.070184  0  -1.204859  0  -0.572713  0  2.340625  0  0  -0.602078  0  2.328002  0  0  -0.322754  -0.552043  0  2.348655  0
O  O124  1  0.79906811  0.90878137  0.81645971  1  0  -0.635194  0  2.025843  0  -1.167441  0  -0.566369  0  2.264714  0  0  -0.59489  0  2.252313  0  0  -0.309448  -0.54631  0  2.272709  0
O  O125  1  0.70092981  0.59121929  0.31645777  1  0  -0.635252  0  2.025598  0  -1.167411  0  -0.566412  0  2.264506  0  0  -0.594935  0  2.252103  0  0  -0.309491  -0.546344  0  2.272493  0
O  O126  1  0.20093050  0.09121488  0.18354031  1  0  -0.635226  0  2.025806  0  -1.167443  0  -0.566403  0  2.264675  0  0  -0.594921  0  2.252274  0  0  -0.309483  -0.546344  0  2.27267  0
O  O127  1  0.29907329  0.40878521  0.68354225  1  0  -0.635279  0  2.025614  0  -1.167428  0  -0.566454  0  2.264516  0  0  -0.594977  0  2.252112  0  0  -0.309534  -0.546386  0  2.27251  0
