# generated using pymatgen
data_Na3H6C2S2NO10
_symmetry_space_group_name_H-M   'P 1'
_cell_length_a   5.09539950
_cell_length_b   7.05051546
_cell_length_c   8.40362315
_cell_angle_alpha   114.80179029
_cell_angle_beta   91.53250526
_cell_angle_gamma   89.99387177
_symmetry_Int_Tables_number   1
_chemical_formula_structural   Na3H6C2S2NO10
_chemical_formula_sum   'Na3 H6 C2 S2 N1 O10'
_cell_volume   273.93711666
_cell_formula_units_Z   1
loop_
 _symmetry_equiv_pos_site_id
 _symmetry_equiv_pos_as_xyz
  1  'x, y, z'
loop_
 _atom_site_type_symbol
 _atom_site_label
 _atom_site_symmetry_multiplicity
 _atom_site_fract_x
 _atom_site_fract_y
 _atom_site_fract_z
 _atom_site_occupancy
 _atom_site_hle17_bader_spin_density
 _atom_site_hle17_ddec_charge
 _atom_site_hle17_ddec_spin_density
 _atom_site_hle17_ddec_sum_bond_order
 _atom_site_hle17_magmom
 _atom_site_hse06_10hf_bader_spin_density
 _atom_site_hse06_10hf_ddec_charge
 _atom_site_hse06_10hf_ddec_spin_density
 _atom_site_hse06_10hf_ddec_sum_bond_order
 _atom_site_hse06_10hf_magmom
 _atom_site_hse06_bader_spin_density
 _atom_site_hse06_ddec_charge
 _atom_site_hse06_ddec_spin_density
 _atom_site_hse06_ddec_sum_bond_order
 _atom_site_hse06_magmom
 _atom_site_pbe_bader_spin_density
 _atom_site_pbe_cm5_charge
 _atom_site_pbe_ddec_charge
 _atom_site_pbe_ddec_spin_density
 _atom_site_pbe_ddec_sum_bond_order
 _atom_site_pbe_magmom
Na  Na0  1  0.85538956  0.58656217  0.17305744  1  0  0.882768  0  0.442474  0  0  0.829542  0  0.618426  0  0  0.841071  0  0.594679  0  0  0.773095  0.82111  0  0.635335  0
Na  Na1  1  0.45839259  0.96595022  0.40404894  1  0  0.910518  0  0.389131  0  0  0.876615  0  0.535928  0  0  0.884551  0  0.516156  0  0  0.702564  0.870469  0  0.550343  0
Na  Na2  1  0.45845322  0.43812491  0.40396146  1  0  0.910567  0  0.389379  0  0  0.876887  0  0.535761  0  0  0.884802  0  0.51602  0  0  0.702837  0.870727  0  0.550208  0
H  H3  1  0.84956931  0.29380832  0.58757757  1  0  0.449057  0  0.809567  0  0  0.427178  0  0.868105  0  0  0.435414  0  0.855889  0  0  0.324866  0.42127  0  0.876906  0
H  H4  1  0.60489777  0.35338004  0.70664288  1  0  0.431199  0  0.866689  0  0  0.40302  0  0.926006  0  0  0.413439  0  0.9105  0  0  0.300563  0.395641  0  0.936966  0
H  H5  1  0.71355867  0.03838054  0.82246145  1  0  0.135245  0  0.912657  0  0  0.147723  0  0.96906  0  0  0.150723  0  0.967891  0  0  0.120038  0.145491  0  0.970108  0
H  H6  1  0.71357517  0.78388666  0.82245163  1  0  0.135222  0  0.912857  0  0  0.147187  0  0.969875  0  0  0.15018  0  0.968722  0  0  0.120136  0.144951  0  0.970926  0
H  H7  1  0.18225489  0.09658180  0.94011278  1  0  0.132429  0  0.923342  0  0  0.144199  0  0.981053  0  0  0.146637  0  0.980666  0  0  0.118199  0.142383  0  0.981507  0
H  H8  1  0.18237958  0.84350346  0.94014899  1  0  0.132275  0  0.924228  0  0  0.143896  0  0.982041  0  0  0.146347  0  0.981624  0  0  0.118068  0.142074  0  0.982503  0
C  C9  1  0.83690850  0.90684865  0.81392075  1  0  -0.267003  0  3.609221  0  0  -0.30227  0  3.861992  0  0  -0.307265  0  3.869124  0  0  -0.144725  -0.298825  0  3.857291  0
C  C10  1  0.05856188  0.97560697  0.95130491  1  0  -0.281585  0  3.636348  0  0  -0.31913  0  3.893931  0  0  -0.324093  0  3.901961  0  0  -0.146782  -0.315623  0  3.888511  0
S  S11  1  0.96997815  0.79935543  0.59877872  1  0  1.370477  0  5.637962  0  0  1.287922  0  6.160768  0  0  1.332902  0  6.136422  0  0  0.502788  1.256674  0  6.176841  0
S  S12  1  0.94124737  0.08522905  0.17043389  1  0  1.404946  0  5.601018  0  0  1.323893  0  6.118428  0  0  1.368621  0  6.094398  0  0  0.519268  1.292781  0  6.134351  0
N  N13  1  0.33886093  0.50186676  0.00371190  1  0  0.700528  0  4.164751  0  0  0.751845  0  4.435511  0  0  0.779596  0  4.440084  0  0  0.065112  0.733205  0  4.432057  0
O  O14  1  0.73738461  0.73819993  0.47634164  1  0  -0.836987  0  2.004268  0  0  -0.792468  0  2.283248  0  0  -0.809477  0  2.262445  0  0  -0.50192  -0.780295  0  2.29726  0
O  O15  1  0.12496752  0.96655050  0.58464848  1  0  -0.725707  0  1.92436  0  0  -0.682601  0  2.17769  0  0  -0.701169  0  2.161308  0  0  -0.404139  -0.66941  0  2.188595  0
O  O16  1  0.12501816  0.61800347  0.58456898  1  0  -0.725497  0  1.92483  0  0  -0.682191  0  2.177779  0  0  -0.700788  0  2.161446  0  0  -0.404382  -0.668996  0  2.188698  0
O  O17  1  0.17895273  0.14244043  0.28470679  1  0  -0.774813  0  1.959346  0  0  -0.732488  0  2.22598  0  0  -0.750262  0  2.208033  0  0  -0.45063  -0.719782  0  2.237988  0
O  O18  1  0.78306259  0.92124114  0.18868358  1  0  -0.775215  0  1.967569  0  0  -0.731839  0  2.238227  0  0  -0.750681  0  2.221446  0  0  -0.450869  -0.718456  0  2.249388  0
O  O19  1  0.78292071  0.26735493  0.18849082  1  0  -0.774908  0  1.966102  0  0  -0.731671  0  2.237032  0  0  -0.75048  0  2.220203  0  0  -0.450481  -0.718351  0  2.248321  0
O  O20  1  0.33560265  0.58638620  0.17285104  1  0  -0.605335  0  1.733689  0  0  -0.611862  0  1.969467  0  0  -0.623875  0  1.956689  0  0  -0.307518  -0.603472  0  1.978127  0
O  O21  1  0.55934856  0.46565077  0.93138732  1  0  -0.485077  0  1.82868  0  0  -0.472463  0  2.03876  0  0  -0.488115  0  2.029707  0  0  -0.2178  -0.461666  0  2.044877  0
O  O22  1  0.12793663  0.45811787  0.91595625  1  0  -0.435216  0  1.750344  0  0  -0.431206  0  1.949387  0  0  -0.444139  0  1.943276  0  0  -0.195766  -0.422369  0  1.953603  0
O  O23  1  0.65787151  0.29139607  0.58260798  1  0  -0.907887  0  1.741421  0  0  -0.869717  0  1.913821  0  0  -0.883939  0  1.881707  0  0  -0.692523  -0.85953  0  1.936451  0
