# generated using pymatgen
data_KNiH42C55N5O13
_symmetry_space_group_name_H-M   'P 1'
_cell_length_a   12.49498245
_cell_length_b   14.53916569
_cell_length_c   18.09391384
_cell_angle_alpha   83.53189121
_cell_angle_beta   68.81293037
_cell_angle_gamma   86.42461227
_symmetry_Int_Tables_number   1
_chemical_formula_structural   KNiH42C55N5O13
_chemical_formula_sum   'K2 Ni2 H84 C110 N10 O26'
_cell_volume   3044.53232529
_cell_formula_units_Z   2
loop_
 _symmetry_equiv_pos_site_id
 _symmetry_equiv_pos_as_xyz
  1  'x, y, z'
loop_
 _atom_site_type_symbol
 _atom_site_label
 _atom_site_symmetry_multiplicity
 _atom_site_fract_x
 _atom_site_fract_y
 _atom_site_fract_z
 _atom_site_occupancy
 _atom_site_pbe_bader_charge
 _atom_site_pbe_bader_spin_density
 _atom_site_pbe_cm5_charge
 _atom_site_pbe_ddec_charge
 _atom_site_pbe_ddec_spin_density
 _atom_site_pbe_ddec_sum_bond_order
 _atom_site_pbe_magmom
K  K0  1  0.43027120  0.50029211  0.91695415  1  0.897051  0  0.76534  0.858141  0  0.655349  0
K  K1  1  0.56972687  0.49970458  0.08304320  1  0.897042  0  0.765362  0.858129  0  0.655407  0
Ni  Ni2  1  0.20967355  0.02291703  0.48319127  1  0.891583  0  0.58842  0.389042  0  2.772502  0
Ni  Ni3  1  0.79032599  0.97708521  0.51681073  1  0.891663  0  0.588359  0.388888  0  2.772654  0
H  H4  1  0.24427875  0.38111514  0.44392039  1  0.111165  0  0.102189  0.11958  0  1.045266  0
H  H5  1  0.14515022  0.34250834  0.34312783  1  0.100898  0  0.100381  0.117859  0  1.061567  0
H  H6  1  0.94803950  0.04361145  0.31512040  1  0.064528  0  0.106301  0.129046  0  1.00674  0
H  H7  1  0.97575636  0.85988345  0.35238763  1  0.06512  0  0.104475  0.123234  0  1.017101  0
H  H8  1  0.27066347  0.66817130  0.46357452  1  0.073431  0  0.102319  0.119993  0  1.03017  0
H  H9  1  0.37037185  0.70564809  0.56623245  1  0.098703  0  0.103563  0.118053  0  1.06353  0
H  H10  1  0.37560184  0.99887410  0.70957109  1  0.091451  0  0.105105  0.125575  0  1.013032  0
H  H11  1  0.33423920  0.18200145  0.68153756  1  0.0558  0  0.101545  0.117628  0  1.029774  0
H  H12  1  0.92275637  0.28900734  0.39080677  1  0.091282  0  0.098519  0.098278  0  1.040963  0
H  H13  1  0.85326869  0.38195689  0.29187320  1  0.076784  0  0.110729  0.125707  0  1.003935  0
H  H14  1  0.08971634  0.23156528  0.10529926  1  0.06948  0  0.098827  0.108309  0  1.034398  0
H  H15  1  0.15449395  0.13774946  0.20373530  1  0.078827  0  0.102222  0.104811  0  0.992093  0
H  H16  1  0.96758937  0.28255684  0.05251188  1  0.07345  0  0.112243  0.09212  0  0.976502  0
H  H17  1  0.04311618  0.38867621  0.02952699  1  0.084277  0  0.112322  0.10299  0  0.982646  0
H  H18  1  0.83028860  0.44035917  0.93653540  1  0.642813  0  0.289819  0.346615  0  1.011322  0
H  H19  1  0.18494193  0.80416779  0.26965634  1  0.064247  0  0.103457  0.105659  0  0.992213  0
H  H20  1  0.17251420  0.66489378  0.20855041  1  0.077145  0  0.105128  0.117708  0  1.016304  0
H  H21  1  0.05726968  0.51080175  0.44001515  1  0.067377  0  0.106162  0.121142  0  1.011148  0
H  H22  1  0.06250465  0.65407351  0.50222758  1  0.071804  0  0.099357  0.09753  0  1.030007  0
H  H23  1  0.07175521  0.54660262  0.19350585  1  0.069132  0  0.108196  0.090823  0  1.012173  0
H  H24  1  0.10700197  0.42684871  0.20336499  1  0.093609  0  0.114741  0.111384  0  1.003576  0
H  H25  1  0.23787460  0.76119186  0.71669858  1  0.084452  0  0.093591  0.093986  0  1.06217  0
H  H26  1  0.31370349  0.67660494  0.81534837  1  0.15172  0  0.108269  0.129909  0  1.043605  0
H  H27  1  0.63493658  0.81738386  0.69814340  1  0.057869  0  0.098868  0.109694  0  1.049822  0
H  H28  1  0.55804863  0.90068419  0.60156625  1  0.058366  0  0.097904  0.095734  0  1.039359  0
H  H29  1  0.60767025  0.80456202  0.83076253  1  0.099592  0  0.11551  0.101867  0  0.964436  0
H  H30  1  0.68756677  0.70454491  0.79106717  1  0.10814  0  0.114806  0.10585  0  0.975435  0
H  H31  1  0.69516889  0.69875989  0.98669146  1  0.656289  0  0.300912  0.352757  0  0.996465  0
H  H32  1  0.13805342  0.38191117  0.58568219  1  0.074811  0  0.097412  0.099973  0  1.037182  0
H  H33  1  0.20013093  0.52754019  0.61526816  1  0.069332  0  0.106163  0.123831  0  1.005769  0
H  H34  1  0.52998135  0.39924333  0.59360057  1  0.047537  0  0.104695  0.119228  0  1.018937  0
H  H35  1  0.47035622  0.25806216  0.55968194  1  0.105789  0  0.100333  0.104444  0  1.030846  0
H  H36  1  0.51583841  0.64359607  0.62173846  1  0.107991  0  0.120701  0.120228  0  0.981723  0
H  H37  1  0.57202760  0.54563247  0.56834257  1  0.098982  0  0.108113  0.092207  0  1.017897  0
H  H38  1  0.65449263  0.51011722  0.73797825  1  0.660613  0  0.304325  0.36846  0  0.97841  0
H  H39  1  0.21375157  0.22083614  0.93149933  1  0.061892  0  0.122298  0.040846  0  0.972122  0
H  H40  1  0.22936575  0.46234748  0.84991014  1  0.138214  0  0.116363  0.140971  0  1.035963  0
H  H41  1  0.10392806  0.44761215  0.82774836  1  0.071546  0  0.101027  0.114061  0  1.022277  0
H  H42  1  0.24350002  0.42395880  0.75663031  1  0.10613  0  0.103471  0.122989  0  1.020246  0
H  H43  1  0.12746039  0.19155100  0.85377283  1  0.064248  0  0.109991  0.116702  0  0.992755  0
H  H44  1  0.16764426  0.26118292  0.76041704  1  0.071701  0  0.107648  0.126232  0  0.997697  0
H  H45  1  0.03565373  0.28550891  0.83833190  1  0.09012  0  0.104855  0.120146  0  0.997123  0
H  H46  1  0.75571724  0.61888987  0.55608444  1  0.111221  0  0.102185  0.119658  0  1.045195  0
H  H47  1  0.85484846  0.65749459  0.65687266  1  0.100916  0  0.100393  0.11788  0  1.061564  0
H  H48  1  0.05197299  0.95639152  0.68486729  1  0.064275  0  0.106284  0.129037  0  1.006834  0
H  H49  1  0.02425800  0.14011400  0.64760508  1  0.064803  0  0.104479  0.123229  0  1.017106  0
H  H50  1  0.72935684  0.33182756  0.53641716  1  0.073273  0  0.102336  0.11997  0  1.030234  0
H  H51  1  0.62963618  0.29435627  0.43376948  1  0.09872  0  0.103535  0.118072  0  1.063486  0
H  H52  1  0.62437466  0.00112252  0.29044483  1  0.091409  0  0.105113  0.12555  0  1.01293  0
H  H53  1  0.66574740  0.81800214  0.31847026  1  0.056032  0  0.101609  0.117725  0  1.029786  0
H  H54  1  0.07725604  0.71099496  0.60919261  1  0.09125  0  0.09854  0.098323  0  1.040905  0
H  H55  1  0.14673443  0.61804053  0.70813112  1  0.076732  0  0.110711  0.125689  0  1.00394  0
H  H56  1  0.91027243  0.76842790  0.89469904  1  0.069542  0  0.09878  0.108332  0  1.034404  0
H  H57  1  0.84550830  0.86225002  0.79626187  1  0.07887  0  0.102234  0.104834  0  0.992032  0
H  H58  1  0.03240283  0.71743499  0.94749012  1  0.073632  0  0.112145  0.09214  0  0.97674  0
H  H59  1  0.95686479  0.61131695  0.97048096  1  0.084317  0  0.112352  0.103089  0  0.982533  0
H  H60  1  0.16971017  0.55964168  0.06346305  1  0.642831  0  0.289793  0.346563  0  1.011358  0
H  H61  1  0.81508944  0.19583388  0.73033236  1  0.063657  0  0.103506  0.105787  0  0.992144  0
H  H62  1  0.82750700  0.33510439  0.79144001  1  0.077337  0  0.105189  0.117778  0  1.016397  0
H  H63  1  0.94272714  0.48920602  0.55998148  1  0.067158  0  0.1062  0.121181  0  1.011203  0
H  H64  1  0.93750671  0.34593570  0.49776590  1  0.071609  0  0.099313  0.097496  0  1.030051  0
H  H65  1  0.92824593  0.45340446  0.80648979  1  0.069272  0  0.108246  0.090819  0  1.012233  0
H  H66  1  0.89299572  0.57315905  0.79663089  1  0.09368  0  0.114823  0.111455  0  1.003598  0
H  H67  1  0.76211290  0.23880965  0.28331253  1  0.083832  0  0.093633  0.093931  0  1.062105  0
H  H68  1  0.68629441  0.32339453  0.18465705  1  0.151738  0  0.108267  0.129844  0  1.043737  0
H  H69  1  0.36506665  0.18261284  0.30185213  1  0.057703  0  0.098901  0.109687  0  1.049856  0
H  H70  1  0.44193907  0.09931316  0.39843912  1  0.058169  0  0.097925  0.095686  0  1.03937  0
H  H71  1  0.39233041  0.19543330  0.16923762  1  0.099507  0  0.115526  0.101935  0  0.964246  0
H  H72  1  0.31243552  0.29545250  0.20893405  1  0.10764  0  0.114805  0.105833  0  0.975514  0
H  H73  1  0.30483168  0.30123820  0.01330791  1  0.656246  0  0.300916  0.352768  0  0.996466  0
H  H74  1  0.86194786  0.61809039  0.41432000  1  0.074723  0  0.097431  0.099975  0  1.037121  0
H  H75  1  0.79987127  0.47245999  0.38473172  1  0.069328  0  0.106164  0.123867  0  1.005722  0
H  H76  1  0.47002259  0.60075616  0.40639895  1  0.047594  0  0.104677  0.119136  0  1.018983  0
H  H77  1  0.52964336  0.74193939  0.44031901  1  0.105755  0  0.10032  0.10444  0  1.030866  0
H  H78  1  0.48416452  0.35640826  0.37825865  1  0.108095  0  0.120697  0.120217  0  0.981643  0
H  H79  1  0.42797527  0.45437256  0.43165835  1  0.09895  0  0.108131  0.092144  0  1.017847  0
H  H80  1  0.34550713  0.48987948  0.26202144  1  0.66059  0  0.304322  0.368458  0  0.978409  0
H  H81  1  0.78624214  0.77916192  0.06850062  1  0.061919  0  0.122257  0.040776  0  0.972141  0
H  H82  1  0.77063391  0.53765337  0.15008367  1  0.138114  0  0.116372  0.140949  0  1.035953  0
H  H83  1  0.89606994  0.55238662  0.17224881  1  0.071567  0  0.101034  0.114036  0  1.022231  0
H  H84  1  0.75649464  0.57603787  0.24336567  1  0.106432  0  0.10344  0.122931  0  1.020265  0
H  H85  1  0.87253065  0.80844913  0.14623034  1  0.064492  0  0.109975  0.116695  0  0.992718  0
H  H86  1  0.83234513  0.73881582  0.23958501  1  0.071534  0  0.107634  0.126191  0  0.997806  0
H  H87  1  0.96433554  0.71449260  0.16167214  1  0.090308  0  0.104907  0.120166  0  0.997162  0
C  C88  1  0.22717152  0.22882068  0.48350605  1  0.388449  0  0.087816  0.171607  0  4.041455  0
C  C89  1  0.21623306  0.31429374  0.43819294  1  -0.112379  0  -0.105206  -0.176047  0  3.999186  0
C  C90  1  0.16679429  0.29452377  0.38621484  1  -0.019605  0  -0.110321  -0.19466  0  4.015266  0
C  C91  1  0.14695743  0.19674238  0.39968506  1  0.401695  0  0.083612  0.162722  0  4.071209  0
C  C92  1  0.08905215  0.15208092  0.36175572  1  0.012777  0  -0.003739  -0.069646  0  4.003962  0
C  C93  1  0.07399881  0.05694434  0.37510661  1  0.426854  0  0.088746  0.17543  0  4.057268  0
C  C94  1  0.00346445  0.00951867  0.34465006  1  -0.012245  0  -0.10441  -0.188229  0  4.01861  0
C  C95  1  0.01764468  0.91728444  0.36323523  1  -0.083195  0  -0.103009  -0.184494  0  4.020503  0
C  C96  1  0.09791979  0.90824824  0.40419150  1  0.38957  0  0.089479  0.176294  0  4.037043  0
C  C97  1  0.14559849  0.82382842  0.42304987  1  0.034141  0  -0.001106  -0.062784  0  3.980101  0
C  C98  1  0.21761686  0.81836694  0.46713621  1  0.407996  0  0.088204  0.171462  0  4.050077  0
C  C99  1  0.27285477  0.73385220  0.48598066  1  -0.110228  0  -0.108693  -0.193389  0  4.001288  0
C  C100  1  0.32424395  0.75302767  0.53715613  1  -0.021075  0  -0.103903  -0.176796  0  4.005914  0
C  C101  1  0.30356058  0.84966098  0.54797762  1  0.396587  0  0.086587  0.168823  0  4.050173  0
C  C102  1  0.33922575  0.89321079  0.59948418  1  0.043638  0  0.002536  -0.054677  0  3.979661  0
C  C103  1  0.32188117  0.98795542  0.60567936  1  0.37761  0  0.087173  0.17391  0  4.047442  0
C  C104  1  0.34594713  0.03377153  0.66408813  1  -0.074496  0  -0.105763  -0.177386  0  4.004965  0
C  C105  1  0.32469925  0.12581831  0.64996678  1  -0.053183  0  -0.111084  -0.193718  0  4.029028  0
C  C106  1  0.28837446  0.13673500  0.58244108  1  0.413419  0  0.086445  0.171439  0  4.048269  0
C  C107  1  0.26906598  0.22255457  0.54571402  1  0.011922  0  -0.004092  -0.070779  0  3.992291  0
C  C108  1  0.04454345  0.20696279  0.30427359  1  0.025263  0  -0.014076  0.061053  0  4.016019  0
C  C109  1  0.96010909  0.27708148  0.32815702  1  -0.052494  0  -0.08561  -0.100745  0  3.980618  0
C  C110  1  0.92087303  0.32915870  0.27359451  1  -0.04091  0  -0.102112  -0.198898  0  4.009726  0
C  C111  1  0.96627127  0.31292834  0.19293471  1  0.43413  0  0.080327  0.240622  0  4.086207  0
C  C112  1  0.05041981  0.24364555  0.16776728  1  0.017535  0  -0.118157  -0.228894  0  4.046377  0
C  C113  1  0.08795808  0.19109214  0.22370715  1  -0.129372  0  -0.088908  -0.105184  0  4.006225  0
C  C114  1  0.95940834  0.35664486  0.06250733  1  0.431133  0  -0.059282  -0.122542  0  3.906656  0
C  C115  1  0.86792922  0.39989579  0.03135241  1  1.592477  0  0.230002  0.610443  0  4.110475  0
C  C116  1  0.12709287  0.73974546  0.39024848  1  -0.053761  0  -0.013377  0.064265  0  3.998231  0
C  C117  1  0.15445280  0.74045841  0.30780841  1  -0.02491  0  -0.085803  -0.0983  0  3.993355  0
C  C118  1  0.14749062  0.66130515  0.27298670  1  -0.033624  0  -0.114599  -0.226946  0  4.025565  0
C  C119  1  0.11429404  0.57813447  0.32122922  1  0.399984  0  0.081297  0.258503  0  4.061794  0
C  C120  1  0.08362625  0.57630374  0.40387800  1  -0.01365  0  -0.105124  -0.201397  0  3.999799  0
C  C121  1  0.08902299  0.65619145  0.43773685  1  0.019512  0  -0.087533  -0.107911  0  3.999916  0
C  C122  1  0.12991351  0.49606929  0.21081839  1  0.414799  0  -0.07102  -0.148735  0  3.923045  0
C  C123  1  0.25368091  0.51242242  0.15397612  1  1.592343  0  0.213367  0.595612  0  4.196129  0
C  C124  1  0.39134377  0.83800955  0.65280831  1  -0.00142  0  -0.019163  0.05155  0  4.024112  0
C  C125  1  0.32490045  0.77314143  0.71286034  1  -0.069666  0  -0.09382  -0.111202  0  3.994878  0
C  C126  1  0.36634739  0.72620339  0.76856782  1  0.01121  0  -0.105796  -0.198919  0  3.983273  0
C  C127  1  0.47706125  0.74389642  0.76519383  1  0.373933  0  0.078483  0.245802  0  4.056999  0
C  C128  1  0.54682504  0.80564516  0.70417307  1  -0.058499  0  -0.116408  -0.226717  0  4.016598  0
C  C129  1  0.50330183  0.85234639  0.64867776  1  -0.018348  0  -0.090102  -0.107816  0  3.988876  0
C  C130  1  0.60692922  0.72829306  0.83585653  1  0.394155  0  -0.05663  -0.118354  0  3.904847  0
C  C131  1  0.60572715  0.69117280  0.91819614  1  1.575185  0  0.235946  0.623811  0  4.082821  0
C  C132  1  0.29987549  0.30832611  0.56987245  1  -0.029093  0  -0.018449  0.049117  0  4.019916  0
C  C133  1  0.22452222  0.38583003  0.58640484  1  -0.076182  0  -0.092113  -0.114978  0  4.007604  0
C  C134  1  0.25853006  0.46763174  0.60356651  1  -0.003245  0  -0.108558  -0.210685  0  4.005388  0
C  C135  1  0.36859783  0.47389904  0.60662405  1  0.442498  0  0.08252  0.250247  0  4.076095  0
C  C136  1  0.44406800  0.39713410  0.59177328  1  -0.064525  0  -0.112163  -0.2195  0  4.006596  0
C  C137  1  0.40933209  0.31614146  0.57337524  1  -0.010267  0  -0.087726  -0.102661  0  3.985521  0
C  C138  1  0.50678977  0.56861429  0.62298234  1  0.371698  0  -0.06214  -0.137533  0  3.898409  0
C  C139  1  0.52882452  0.52308427  0.69653363  1  1.591563  0  0.226473  0.595121  0  4.122158  0
C  C140  1  0.22664321  0.29535713  0.91104956  1  1.387812  0  0.181143  0.292085  0  4.131613  0
C  C141  1  0.19081622  0.42051875  0.82018601  1  0.203928  0  -0.136258  -0.277052  0  3.851012  0
C  C142  1  0.12543466  0.26196632  0.82523016  1  0.247371  0  -0.124532  -0.275584  0  3.914716  0
C  C143  1  0.77282803  0.77118156  0.51649484  1  0.388417  0  0.087858  0.171573  0  4.041464  0
C  C144  1  0.78376642  0.68570989  0.56181005  1  -0.11225  0  -0.105244  -0.176193  0  3.999106  0
C  C145  1  0.83320694  0.70547917  0.61378668  1  -0.019743  0  -0.110315  -0.194611  0  4.015293  0
C  C146  1  0.85304471  0.80325918  0.60031637  1  0.402064  0  0.083547  0.162563  0  4.071347  0
C  C147  1  0.91095080  0.84792272  0.63824310  1  0.012801  0  -0.003741  -0.069538  0  4.003692  0
C  C148  1  0.92600065  0.94306067  0.62489350  1  0.426891  0  0.088786  0.175474  0  4.057208  0
C  C149  1  0.99653854  0.99048427  0.65534550  1  -0.011923  0  -0.104438  -0.188345  0  4.018871  0
C  C150  1  0.98236607  0.08271784  0.63675904  1  -0.082896  0  -0.10294  -0.184325  0  4.020534  0
C  C151  1  0.90208497  0.09175263  0.59580768  1  0.389976  0  0.089499  0.176283  0  4.037198  0
C  C152  1  0.85441564  0.17617525  0.57694233  1  0.034121  0  -0.001182  -0.062864  0  3.980051  0
C  C153  1  0.78239140  0.18163256  0.53285948  1  0.407917  0  0.088172  0.171455  0  4.050168  0
C  C154  1  0.72715516  0.26614800  0.51401621  1  -0.109953  0  -0.108648  -0.193247  0  4.001295  0
C  C155  1  0.67576337  0.24697322  0.46284353  1  -0.021094  0  -0.103958  -0.177002  0  4.006003  0
C  C156  1  0.69644333  0.15033920  0.45202294  1  0.396653  0  0.08665  0.168917  0  4.050161  0
C  C157  1  0.66077043  0.10678867  0.40052111  1  0.044439  0  0.002457  -0.054742  0  3.979766  0
C  C158  1  0.67811414  0.01204404  0.39432780  1  0.377874  0  0.087207  0.173983  0  4.047293  0
C  C159  1  0.65403880  0.96622582  0.33592375  1  -0.07456  0  -0.105728  -0.177281  0  4.004735  0
C  C160  1  0.67529269  0.87417906  0.35004250  1  -0.053212  0  -0.111138  -0.193901  0  4.029126  0
C  C161  1  0.71162348  0.86326377  0.41756329  1  0.413618  0  0.08648  0.171577  0  4.048207  0
C  C162  1  0.73093364  0.77744560  0.45428815  1  0.011722  0  -0.004072  -0.070676  0  3.992438  0
C  C163  1  0.95546298  0.79303948  0.69572451  1  0.025401  0  -0.014122  0.060882  0  4.016218  0
C  C164  1  0.03989656  0.72291802  0.67184318  1  -0.05268  0  -0.085619  -0.100759  0  3.980842  0
C  C165  1  0.07912585  0.67083800  0.72640761  1  -0.040775  0  -0.102089  -0.198944  0  4.009891  0
C  C166  1  0.03371997  0.68706625  0.80706781  1  0.433492  0  0.080501  0.240886  0  4.085882  0
C  C167  1  0.94957478  0.75635182  0.83223307  1  0.017738  0  -0.11819  -0.229091  0  4.046396  0
C  C168  1  0.91204585  0.80890803  0.77629120  1  -0.129243  0  -0.088908  -0.10512  0  4.006344  0
C  C169  1  0.04057704  0.64334556  0.93749758  1  0.43064  0  -0.05917  -0.122753  0  3.907107  0
C  C170  1  0.13205195  0.60009253  0.96865318  1  1.59198  0  0.230111  0.610554  0  4.110601  0
C  C171  1  0.87292987  0.26025756  0.60974277  1  -0.053911  0  -0.013288  0.064514  0  3.997886  0
C  C172  1  0.84557515  0.25954255  0.69218286  1  -0.023862  0  -0.08595  -0.098753  0  3.993411  0
C  C173  1  0.85252968  0.33869371  0.72700664  1  -0.034124  0  -0.114702  -0.226856  0  4.025478  0
C  C174  1  0.88571312  0.42187195  0.67876610  1  0.400415  0  0.081414  0.258424  0  4.061568  0
C  C175  1  0.91638007  0.42370268  0.59611532  1  -0.014265  0  -0.105208  -0.201458  0  4.000026  0
C  C176  1  0.91099194  0.34381430  0.56225442  1  0.020114  0  -0.087483  -0.107912  0  4.000072  0
C  C177  1  0.87008509  0.50393709  0.78917628  1  0.414793  0  -0.071119  -0.148893  0  3.923221  0
C  C178  1  0.74631782  0.48757981  0.84602111  1  1.592319  0  0.213382  0.595641  0  4.196132  0
C  C179  1  0.60864304  0.16198780  0.34720003  1  -0.002891  0  -0.01906  0.051449  0  4.024107  0
C  C180  1  0.67508966  0.22685870  0.28715080  1  -0.068496  0  -0.09384  -0.110893  0  3.994581  0
C  C181  1  0.63364534  0.27379606  0.23144164  1  0.011191  0  -0.105844  -0.199032  0  3.983221  0
C  C182  1  0.52293163  0.25609957  0.23481204  1  0.373654  0  0.078552  0.245941  0  4.056771  0
C  C183  1  0.45316870  0.19435083  0.29583204  1  -0.058113  0  -0.116537  -0.226887  0  4.016569  0
C  C184  1  0.49668589  0.14764958  0.35133049  1  -0.01802  0  -0.090137  -0.107674  0  3.988773  0
C  C185  1  0.39307136  0.27170434  0.16414511  1  0.394768  0  -0.056635  -0.118365  0  3.904824  0
C  C186  1  0.39427431  0.30882391  0.08180535  1  1.575089  0  0.235963  0.623816  0  4.082802  0
C  C187  1  0.70012664  0.69167546  0.43013008  1  -0.028915  0  -0.018527  0.048963  0  4.02002  0
C  C188  1  0.77547907  0.61417084  0.41359796  1  -0.076122  0  -0.092124  -0.114871  0  4.007462  0
C  C189  1  0.74147039  0.53236912  0.39643484  1  -0.003219  0  -0.108561  -0.210828  0  4.005358  0
C  C190  1  0.63140517  0.52610321  0.39337434  1  0.442741  0  0.082632  0.250467  0  4.075964  0
C  C191  1  0.55593591  0.60286677  0.40822445  1  -0.064601  0  -0.112137  -0.219386  0  4.006428  0
C  C192  1  0.59067092  0.68386010  0.42662487  1  -0.010387  0  -0.087765  -0.102771  0  3.98551  0
C  C193  1  0.49321394  0.43139212  0.37701604  1  0.371824  0  -0.062116  -0.137387  0  3.898114  0
C  C194  1  0.47117327  0.47691935  0.30346701  1  1.591517  0  0.226442  0.595178  0  4.121777  0
C  C195  1  0.77335305  0.70464163  0.08894970  1  1.387909  0  0.181306  0.292249  0  4.131853  0
C  C196  1  0.80918179  0.57948002  0.17980950  1  0.203753  0  -0.136235  -0.276918  0  3.850901  0
C  C197  1  0.87455639  0.73803381  0.17477191  1  0.24712  0  -0.124578  -0.275593  0  3.914856  0
N  N198  1  0.18841680  0.15566387  0.45746643  1  -1.144977  0  -0.346156  -0.293191  0  3.446086  0
N  N199  1  0.12755997  0.99471076  0.41530323  1  -1.112515  0  -0.34488  -0.290091  0  3.446657  0
N  N200  1  0.24047075  0.89048463  0.50302566  1  -1.141046  0  -0.343552  -0.292018  0  3.445787  0
N  N201  1  0.28239122  0.05106761  0.55726914  1  -1.121454  0  -0.344973  -0.292198  0  3.443224  0
N  N202  1  0.18376914  0.32454138  0.85470705  1  -1.216017  0  -0.273038  0.045511  0  3.727431  0
N  N203  1  0.81158358  0.84433907  0.54253530  1  -1.145375  0  -0.34611  -0.293043  0  3.446038  0
N  N204  1  0.87243697  0.00529216  0.58469990  1  -1.112689  0  -0.344911  -0.290118  0  3.446746  0
N  N205  1  0.75953658  0.10951626  0.49697345  1  -1.141398  0  -0.343525  -0.291979  0  3.445863  0
N  N206  1  0.71760845  0.94893049  0.44273542  1  -1.121843  0  -0.34506  -0.292338  0  3.443192  0
N  N207  1  0.81622619  0.67545946  0.14529224  1  -1.216076  0  -0.273076  0.045492  0  3.727639  0
O  O208  1  0.92174794  0.36897317  0.14470999  1  -1.084532  0  -0.169928  -0.164761  0  2.602316  0
O  O209  1  0.77024477  0.41787551  0.07643506  1  -1.167898  0  -0.35441  -0.527224  0  2.228023  0
O  O210  1  0.90394895  0.41332356  0.95295012  1  -1.194218  0  -0.338857  -0.521581  0  2.281723  0
O  O211  1  0.11019020  0.49509358  0.29330608  1  -1.080003  0  -0.178311  -0.174535  0  2.584007  0
O  O212  1  0.33607465  0.50397516  0.17883276  1  -1.197254  0  -0.353096  -0.573946  0  2.270986  0
O  O213  1  0.26562894  0.53069951  0.08065509  1  -1.180104  0  -0.339692  -0.561783  0  2.250463  0
O  O214  1  0.50919843  0.69680201  0.82471291  1  -1.083756  0  -0.190016  -0.193905  0  2.585658  0
O  O215  1  0.68806067  0.72922833  0.93408735  1  -1.183839  0  -0.339563  -0.503328  0  2.300889  0
O  O216  1  0.53894338  0.63332128  0.96315712  1  -1.165726  0  -0.374036  -0.559204  0  2.183032  0
O  O217  1  0.39373228  0.55687468  0.62477624  1  -1.071919  0  -0.173857  -0.174054  0  2.591474  0
O  O218  1  0.63956129  0.52696153  0.68556966  1  -1.17991  0  -0.33255  -0.489717  0  2.31954  0
O  O219  1  0.45338798  0.49087285  0.75725915  1  -1.163638  0  -0.336857  -0.52442  0  2.153754  0
O  O220  1  0.27671737  0.34498521  0.94053538  1  -1.171187  0  -0.324239  -0.477629  0  2.304186  0
O  O221  1  0.07823495  0.63101515  0.85529406  1  -1.084418  0  -0.169984  -0.16463  0  2.602389  0
O  O222  1  0.22973762  0.58210380  0.92356552  1  -1.167091  0  -0.354575  -0.52749  0  2.227991  0
O  O223  1  0.09604219  0.58667311  0.04705501  1  -1.194363  0  -0.338821  -0.521465  0  2.281743  0
O  O224  1  0.88980664  0.50491349  0.70669117  1  -1.080189  0  -0.178351  -0.174344  0  2.583966  0
O  O225  1  0.66392599  0.49602154  0.82116395  1  -1.197422  0  -0.353103  -0.573991  0  2.271037  0
O  O226  1  0.73437492  0.46930343  0.91934081  1  -1.180081  0  -0.339675  -0.56175  0  2.250507  0
O  O227  1  0.49080133  0.30319470  0.17528734  1  -1.083625  0  -0.190042  -0.193972  0  2.585571  0
O  O228  1  0.31194080  0.27076907  0.06591019  1  -1.183814  0  -0.339625  -0.503374  0  2.300824  0
O  O229  1  0.46105901  0.36667405  0.03684150  1  -1.165701  0  -0.373979  -0.559168  0  2.183067  0
O  O230  1  0.60627144  0.44313173  0.37521993  1  -1.072236  0  -0.173914  -0.174183  0  2.591375  0
O  O231  1  0.36043749  0.47303863  0.31443051  1  -1.179979  0  -0.332504  -0.489713  0  2.319521  0
O  O232  1  0.54661425  0.50912732  0.24273796  1  -1.163659  0  -0.336857  -0.524499  0  2.153428  0
O  O233  1  0.72328326  0.65501149  0.05946244  1  -1.171326  0  -0.324293  -0.477674  0  2.304283  0
