# generated using pymatgen
data_MnH17C24N5O4
_symmetry_space_group_name_H-M   'P 1'
_cell_length_a   8.43972240
_cell_length_b   10.37786611
_cell_length_c   14.56873674
_cell_angle_alpha   99.24336901
_cell_angle_beta   91.91149978
_cell_angle_gamma   109.19222539
_symmetry_Int_Tables_number   1
_chemical_formula_structural   MnH17C24N5O4
_chemical_formula_sum   'Mn2 H34 C48 N10 O8'
_cell_volume   1184.36158092
_cell_formula_units_Z   2
loop_
 _symmetry_equiv_pos_site_id
 _symmetry_equiv_pos_as_xyz
  1  'x, y, z'
loop_
 _atom_site_type_symbol
 _atom_site_label
 _atom_site_symmetry_multiplicity
 _atom_site_fract_x
 _atom_site_fract_y
 _atom_site_fract_z
 _atom_site_occupancy
 _atom_site_hle17_ddec_charge
 _atom_site_hle17_ddec_spin_density
 _atom_site_hle17_ddec_sum_bond_order
 _atom_site_hle17_magmom
 _atom_site_hse06_10hf_ddec_charge
 _atom_site_hse06_10hf_ddec_spin_density
 _atom_site_hse06_10hf_ddec_sum_bond_order
 _atom_site_hse06_10hf_magmom
 _atom_site_hse06_ddec_charge
 _atom_site_hse06_ddec_spin_density
 _atom_site_hse06_ddec_sum_bond_order
 _atom_site_hse06_magmom
 _atom_site_pbe_cm5_charge
 _atom_site_pbe_ddec_charge
 _atom_site_pbe_ddec_spin_density
 _atom_site_pbe_ddec_sum_bond_order
 _atom_site_pbe_magmom
Mn  Mn0  1  0.77283820  0.23242737  0.24313239  1  1.047536  4.800461  1.880404  4.649  0.870378  4.718601  2.392001  4.492  0.931035  4.771247  2.321392  4.567  0.607767  0.824657  4.661395  2.444929  4.414
Mn  Mn1  1  0.22716368  0.76757263  0.75686769  1  1.047576  -4.800471  1.880373  -4.649  0.870423  -4.718601  2.391948  -4.492  0.931106  -4.771245  2.321288  -4.567  0.607775  0.8247  -4.661401  2.444874  -4.414
H  H2  1  0.80582495  0.27349249  0.59988550  1  0.321184  0.000282  0.842386  0.0  0.316979  0.000519  0.879585  0.0  0.323132  0.000366  0.875794  0.0  0.346895  0.312405  0.000691  0.882863  0.0
H  H3  1  0.19415772  0.72650121  0.40011158  1  0.321097  -0.000282  0.842322  0.0  0.316842  -0.000519  0.879604  0.0  0.322993  -0.000366  0.875817  0.0  0.346867  0.312259  -0.00069  0.882871  0.0
H  H4  1  0.40784891  0.40085376  0.11907980  1  0.10803  -0.000185  0.947288  0.0  0.116275  -3.4e-05  1.011754  0.0  0.120526  -0.000119  1.008416  0.0  0.105335  0.113259  5e-05  1.013991  0.0
H  H5  1  0.59214315  0.59914537  0.88092346  1  0.108075  0.000191  0.94723  0.0  0.116302  3.4e-05  1.011714  0.0  0.120569  0.000119  1.008352  0.0  0.105354  0.113288  -5e-05  1.013945  0.0
H  H6  1  0.81530442  0.75657939  0.26058304  1  0.107923  -0.000188  0.951366  0.0  0.113637  -5.9e-05  1.019243  0.0  0.118885  -0.000112  1.013946  0.0  0.103581  0.109935  8e-06  1.023009  0.0
H  H7  1  0.18470148  0.24340732  0.73942065  1  0.108012  0.000186  0.951345  0.0  0.113717  5.9e-05  1.019208  0.0  0.118969  0.000113  1.013907  0.0  0.103587  0.110019  -8e-06  1.022974  0.0
H  H8  1  0.43124539  0.81457416  0.08770174  1  0.11489  -0.000125  0.936251  0.0  0.124182  1.4e-05  0.996092  0.0  0.128816  -5.6e-05  0.992133  0.0  0.109001  0.120839  6.3e-05  0.998835  0.0
H  H9  1  0.56877572  0.18543215  0.91230203  1  0.114838  0.000126  0.936336  0.0  0.124159  -1.5e-05  0.99616  0.0  0.128793  5.6e-05  0.992202  0.0  0.109029  0.12082  -6.3e-05  0.998897  0.0
H  H10  1  0.18828530  0.62349843  0.02380010  1  0.08197  0.000139  0.955471  0.0  0.092575  0.000225  1.024663  0.0  0.092857  0.000207  1.025538  0.0  0.111668  0.092273  0.000239  1.024196  0.0
H  H11  1  0.81172540  0.37650570  0.97620053  1  0.08203  -0.000148  0.955422  0.0  0.092563  -0.000225  1.024651  0.0  0.092845  -0.000207  1.025521  0.0  0.111671  0.092262  -0.000238  1.024187  0.0
H  H12  1  0.27881705  0.51336616  0.95615985  1  0.091116  8e-05  0.948993  0.0  0.107119  0.000156  1.010067  0.0  0.10714  0.000142  1.011182  0.0  0.115428  0.106893  0.000159  1.009571  0.0
H  H13  1  0.72119618  0.48664117  0.04384319  1  0.091098  -9.8e-05  0.948955  0.0  0.107083  -0.000156  1.010019  0.0  0.107079  -0.000143  1.011158  0.0  0.115389  0.106863  -0.000159  1.009519  0.0
H  H14  1  0.04052885  0.51119001  0.17647942  1  0.106109  -0.000246  0.946178  0.0  0.115433  1.8e-05  1.007598  0.0  0.118616  -4.8e-05  1.004021  0.0  0.136407  0.113091  9.6e-05  1.010217  0.0
H  H15  1  0.95948064  0.48881406  0.82351981  1  0.106075  0.00025  0.946161  0.0  0.115358  -1.8e-05  1.007634  0.0  0.118535  4.8e-05  1.004066  0.0  0.13636  0.113017  -9.6e-05  1.010266  0.0
H  H16  1  0.88497544  0.09602939  0.03661374  1  0.113762  -0.000154  0.937627  0.0  0.125721  7.3e-05  0.989681  0.0  0.128289  -8e-06  0.988831  0.0  0.1264  0.123808  0.000163  0.990424  0.0
H  H17  1  0.11503008  0.90397368  0.96338601  1  0.113831  0.000153  0.937636  0.0  0.125771  -7.3e-05  0.989709  0.0  0.128342  8e-06  0.988854  0.0  0.126422  0.12386  -0.000162  0.990451  0.0
H  H18  1  0.12616661  0.25963196  0.93707044  1  0.120789  0.000264  0.968978  0.0  0.129949  0.000342  1.02975  0.0  0.132049  0.000268  1.029934  0.0  0.121988  0.128373  0.000414  1.02983  0.0
H  H19  1  0.87384480  0.74037103  0.06292804  1  0.120822  -0.000259  0.969087  0.0  0.129982  -0.000341  1.029861  0.0  0.132082  -0.000268  1.030044  0.0  0.122014  0.128402  -0.000414  1.029939  0.0
H  H20  1  0.18421463  0.34436075  0.24903183  1  0.075537  -3.2e-05  0.953438  0.0  0.08321  0.000495  1.017318  0.0  0.085532  0.000294  1.015749  0.0  0.117661  0.081157  0.000705  1.018983  0.0
H  H21  1  0.81578809  0.65563836  0.75097162  1  0.075518  3.3e-05  0.953419  0.0  0.083225  -0.000494  1.01726  0.0  0.085549  -0.000293  1.01569  0.0  0.117683  0.081173  -0.000705  1.018929  0.0
H  H22  1  0.43073375  0.43933617  0.36629172  1  0.104565  0.000145  0.960421  0.0  0.113631  0.000157  1.021773  0.0  0.116737  8.1e-05  1.020476  0.0  0.107486  0.111371  0.000254  1.022736  0.0
H  H23  1  0.56926263  0.56067339  0.63371398  1  0.104594  -0.000148  0.96056  0.0  0.113681  -0.000157  1.021849  0.0  0.116796  -8.1e-05  1.020523  0.0  0.107496  0.111376  -0.000254  1.022873  0.0
H  H24  1  0.37971169  0.45926027  0.53865492  1  0.088623  -0.000122  0.962846  0.0  0.101001  4.7e-05  1.022382  0.0  0.103348  2.2e-05  1.020832  0.0  0.107265  0.099357  9.2e-05  1.023608  0.0
H  H25  1  0.62028147  0.54074722  0.46135052  1  0.088711  0.00011  0.962721  0.0  0.101082  -4.7e-05  1.022245  0.0  0.103429  -2.2e-05  1.020696  0.0  0.107283  0.099433  -9.2e-05  1.023476  0.0
H  H26  1  0.08968743  0.38086658  0.58229760  1  0.126483  0.000375  0.978725  0.0  0.133476  0.000392  1.04267  0.0  0.138081  0.000364  1.039506  0.0  0.107832  0.130074  0.00041  1.045014  0.0
H  H27  1  0.91030371  0.61913034  0.41770269  1  0.126475  -0.000374  0.978614  0.0  0.133464  -0.000392  1.042574  0.0  0.13807  -0.000364  1.03941  0.0  0.107842  0.130061  -0.00041  1.044907  0.0
H  H28  1  0.34051102  0.09938597  0.30364101  1  0.12106  3.1e-05  0.922758  0.0  0.135514  0.000103  0.971585  0.0  0.13872  4.1e-05  0.969962  0.0  0.116243  0.132889  0.000171  0.973209  0.0
H  H29  1  0.65947722  0.90062411  0.69635292  1  0.120972  -3.7e-05  0.922826  0.0  0.135424  -0.000103  0.971689  0.0  0.138629  -4.2e-05  0.970067  0.0  0.116225  0.132793  -0.00017  0.973315  0.0
H  H30  1  0.10758681  0.02933033  0.40594940  1  0.095778  -0.000111  0.954155  0.0  0.108208  -0.000104  1.012032  0.0  0.11105  -0.000105  1.010766  0.0  0.099679  0.106129  -9.5e-05  1.013144  0.0
H  H31  1  0.89240249  0.97067661  0.59404357  1  0.095808  0.000118  0.954324  0.0  0.108254  0.000104  1.012169  0.0  0.111096  0.000106  1.010905  0.0  0.099696  0.106173  9.5e-05  1.013283  0.0
H  H32  1  0.16982306  0.05954542  0.57891389  1  0.094684  0.000133  0.963425  0.0  0.104515  0.000122  1.026354  0.0  0.107214  0.000132  1.025297  0.0  0.099023  0.102512  0.000104  1.027263  0.0
H  H33  1  0.83016025  0.94045848  0.42108005  1  0.094687  -0.00014  0.963543  0.0  0.104549  -0.000122  1.026419  0.0  0.107244  -0.000132  1.025371  0.0  0.099005  0.102543  -0.000104  1.027332  0.0
H  H34  1  0.46148226  0.16413688  0.65310735  1  0.108687  0.000159  0.969638  0.0  0.119086  0.000259  1.028104  0.0  0.12117  0.000221  1.028379  0.0  0.102881  0.117365  0.000291  1.028096  0.0
H  H35  1  0.53850179  0.83586594  0.34688582  1  0.108782  -0.000155  0.969403  0.0  0.119144  -0.000259  1.027928  0.0  0.121243  -0.00022  1.028172  0.0  0.102922  0.117383  -0.000291  1.027954  0.0
C  C36  1  0.40109049  0.60060981  0.09502717  1  0.060548  -0.001559  3.761264  -0.001  0.083166  -0.000698  4.007987  -0.001  0.079831  -0.000986  4.033161  -0.001  -0.016754  0.08514  -0.000491  3.990669  -0.001
C  C37  1  0.59891508  0.39939335  0.90497466  1  0.060452  0.001519  3.761715  0.001  0.082983  0.000699  4.00846  0.001  0.079648  0.000984  4.033632  0.001  -0.01675  0.084958  0.000491  3.991152  0.001
C  C38  1  0.46815680  0.51341186  0.13471832  1  -0.116805  0.002884  3.707049  0.003  -0.153639  0.003526  3.961368  0.003  -0.152387  0.002919  3.979866  0.002  -0.085922  -0.153606  0.00322  3.948289  0.003
C  C39  1  0.53184268  0.48658515  0.86528418  1  -0.116879  -0.002852  3.707227  -0.002  -0.153685  -0.003526  3.961569  -0.003  -0.152445  -0.002915  3.980067  -0.002  -0.085923  -0.15365  -0.00322  3.948487  -0.003
C  C40  1  0.61789933  0.56906234  0.19411638  1  -0.077608  -0.001388  3.79541  -0.001  -0.050791  -0.00084  4.031563  -0.001  -0.059301  -0.001242  4.054698  -0.001  -0.026158  -0.045475  -0.000317  4.016114  0.0
C  C41  1  0.38209845  0.43093055  0.80588639  1  -0.07737  0.001332  3.795518  0.001  -0.050557  0.00084  4.031622  0.001  -0.059067  0.001239  4.054768  0.001  -0.026062  -0.045239  0.000317  4.016174  0.0
C  C42  1  0.69889130  0.71276912  0.21461347  1  -0.086258  0.001939  3.735224  0.002  -0.123056  0.002256  3.985608  0.002  -0.120966  0.001946  4.002967  0.002  -0.082773  -0.124206  0.003981  3.974196  0.003
C  C43  1  0.30111597  0.28722379  0.78539015  1  -0.086715  -0.001883  3.735382  -0.002  -0.123461  -0.002253  3.985739  -0.002  -0.121375  -0.001944  4.003099  -0.002  -0.082924  -0.124613  -0.003981  3.974339  -0.003
C  C44  1  0.63089644  0.80093299  0.17694542  1  -0.066397  -0.002251  3.791028  -0.002  -0.039856  -0.001776  4.023975  -0.002  -0.04752  -0.002024  4.045971  -0.002  -0.02165  -0.03541  -0.001433  4.009774  -0.002
C  C45  1  0.36912086  0.19906408  0.82305947  1  -0.066197  0.002208  3.790751  0.002  -0.039701  0.001774  4.023745  0.002  -0.047364  0.002024  4.045743  0.002  -0.021515  -0.035258  0.001434  4.009561  0.002
C  C46  1  0.48226398  0.74429879  0.11683259  1  -0.110303  0.002956  3.691427  0.003  -0.14261  0.003472  3.932487  0.003  -0.14098  0.002931  3.949747  0.002  -0.080532  -0.143061  0.003036  3.920638  0.002
C  C47  1  0.51775142  0.25570234  0.88317058  1  -0.110124  -0.00292  3.691658  -0.003  -0.142444  -0.003472  3.93274  -0.003  -0.140811  -0.00293  3.950001  -0.002  -0.08056  -0.142891  -0.003036  3.920883  -0.002
C  C48  1  0.24555271  0.54320771  0.02664206  1  -0.039679  0.00065  3.644725  0.001  -0.106502  0.000769  3.892673  0.001  -0.101592  0.000602  3.90339  0.0  -0.047003  -0.109718  0.000947  3.885588  0.001
C  C49  1  0.75445650  0.45679852  0.97335943  1  -0.039768  -0.000602  3.644805  -0.001  -0.106378  -0.000769  3.892486  -0.001  -0.101449  -0.000601  3.90321  0.0  -0.046998  -0.109608  -0.000947  3.885422  -0.001
C  C50  1  0.03136439  0.41961871  0.12577635  1  0.142545  0.004766  3.668655  0.005  0.081058  0.00715  3.94206  0.006  0.093512  0.006136  3.954964  0.006  0.140779  0.073142  0.008233  3.93265  0.007
C  C51  1  0.96864434  0.58038640  0.87422297  1  0.142681  -0.004772  3.66856  -0.005  0.081197  -0.007151  3.94199  -0.006  0.093651  -0.006137  3.954902  -0.006  0.140864  0.073279  -0.008233  3.932593  -0.007
C  C52  1  0.95422498  0.20660371  0.05101547  1  -0.001415  0.001966  3.751863  0.003  -0.032903  0.003473  4.013245  0.004  -0.031088  0.002809  4.032775  0.003  0.0053  -0.034323  0.004121  4.00016  0.004
C  C53  1  0.04579062  0.79340655  0.94898377  1  -0.001384  -0.001942  3.751426  -0.003  -0.032854  -0.003475  4.012779  -0.004  -0.03104  -0.002809  4.032313  -0.003  0.005277  -0.034278  -0.004123  3.999691  -0.004
C  C54  1  0.07232986  0.28563254  0.00104463  1  -0.079207  -0.000668  3.68307  -0.001  -0.116104  8.6e-05  3.936739  0.0  -0.115176  -0.000357  3.956306  0.0  -0.000483  -0.116725  0.000465  3.923799  0.0
C  C55  1  0.92767226  0.71437081  0.99896127  1  -0.079272  0.000631  3.68253  0.0  -0.116188  -8.5e-05  3.936233  0.0  -0.115261  0.000356  3.955797  0.0  -0.000494  -0.116802  -0.000466  3.92328  0.0
C  C56  1  0.69764344  0.47512704  0.23122196  1  0.616055  0.004361  3.955311  0.003  0.569764  0.008351  4.248906  0.006  0.603221  0.006575  4.244352  0.005  0.194858  0.546928  0.010204  4.250339  0.007
C  C57  1  0.30235056  0.52485960  0.76877946  1  0.61603  -0.004344  3.955665  -0.003  0.569722  -0.00835  4.249292  -0.006  0.603176  -0.006573  4.244744  -0.005  0.194782  0.546894  -0.010203  4.25072  -0.007
C  C58  1  0.71529515  0.95556733  0.20395472  1  0.611873  0.006005  3.95855  0.004  0.568462  0.010718  4.246495  0.007  0.601546  0.00862  4.243368  0.006  0.193555  0.545795  0.012903  4.246618  0.009
C  C59  1  0.28472715  0.04442753  0.79604729  1  0.611914  -0.006003  3.95873  -0.004  0.568486  -0.010717  4.24671  -0.007  0.60157  -0.008619  4.243586  -0.006  0.193541  0.54581  -0.012902  4.24684  -0.009
C  C60  1  0.16661187  0.35549594  0.32320604  1  0.141486  0.004441  3.704224  0.004  0.110506  0.007072  3.958983  0.006  0.117568  0.005748  3.974539  0.005  0.056585  0.105237  0.008659  3.949717  0.007
C  C61  1  0.83338640  0.64450103  0.67679576  1  0.141621  -0.004417  3.704247  -0.004  0.110586  -0.007072  3.958986  -0.006  0.117645  -0.005744  3.974548  -0.005  0.056614  0.105317  -0.008658  3.949714  -0.007
C  C62  1  0.30482992  0.40934541  0.38985968  1  -0.123028  -0.002183  3.735045  -0.002  -0.1401  -0.000803  3.996119  -0.001  -0.144552  -0.001744  4.014335  -0.001  -0.083643  -0.137596  0.000353  3.985632  0.0
C  C63  1  0.69516667  0.59065893  0.61014484  1  -0.123051  0.002139  3.735315  0.002  -0.140119  0.000804  3.996363  0.001  -0.144566  0.001739  4.014585  0.001  -0.083652  -0.137584  -0.000352  3.985889  0.0
C  C64  1  0.27613019  0.41902706  0.48396290  1  0.008811  0.004387  3.7186  0.004  -0.013634  0.006909  3.976333  0.005  -0.009308  0.005354  3.99317  0.004  -0.068297  -0.017667  0.009596  3.967158  0.007
C  C65  1  0.72386034  0.58097412  0.51603984  1  0.008655  -0.004311  3.718571  -0.004  -0.013783  -0.006911  3.976285  -0.005  -0.009458  -0.00535  3.993119  -0.004  -0.068325  -0.017818  -0.009596  3.967093  -0.007
C  C66  1  0.11160755  0.37298304  0.50846747  1  -0.138141  -0.002232  3.685135  -0.002  -0.160512  -0.001258  3.937306  -0.001  -0.165977  -0.00176  3.955577  -0.002  -0.0812  -0.15689  -0.00109  3.926568  -0.002
C  C67  1  0.88838126  0.62701399  0.49153485  1  -0.138022  0.002181  3.685097  0.002  -0.160424  0.001258  3.937224  0.001  -0.165888  0.001758  3.95549  0.002  -0.081212  -0.15679  0.00109  3.926469  0.002
C  C68  1  0.98033594  0.31962162  0.43696548  1  0.143673  0.003388  3.792269  0.003  0.143982  0.006904  4.035826  0.006  0.148888  0.004994  4.054726  0.004  0.123806  0.139829  0.009849  4.023883  0.008
C  C69  1  0.01965190  0.68037019  0.56303564  1  0.143622  -0.003364  3.792417  -0.003  0.144032  -0.006902  4.035842  -0.006  0.14894  -0.004994  4.05474  -0.004  0.123824  0.139871  -0.009848  4.023901  -0.008
C  C70  1  0.80337139  0.26477298  0.45291206  1  0.320724  0.005177  3.77033  0.005  0.284874  0.00948  4.045182  0.008  0.30067  0.007707  4.058314  0.007  0.235587  0.274216  0.011755  4.037147  0.01
C  C71  1  0.19661932  0.73522291  0.54708812  1  0.320705  -0.005207  3.770147  -0.005  0.284728  -0.009476  4.045159  -0.008  0.300524  -0.007708  4.058292  -0.007  0.235583  0.274063  -0.011753  4.037123  -0.01
C  C72  1  0.56458052  0.19045069  0.51966470  1  0.155914  3e-06  3.794725  0.0  0.147512  0.000451  4.044184  0.0  0.151079  7.7e-05  4.067173  0.0  0.096193  0.145095  0.000757  4.029214  0.001
C  C73  1  0.43541342  0.80955020  0.48033189  1  0.155754  8.8e-05  3.794939  0.0  0.147489  -0.000454  4.044129  0.0  0.151055  -7.3e-05  4.067121  0.0  0.096171  0.145057  -0.000758  4.029152  -0.001
C  C74  1  0.53144736  0.17179423  0.42123190  1  0.152333  0.002314  3.813589  0.003  0.151254  0.00344  4.060319  0.004  0.153815  0.002791  4.084932  0.004  0.095938  0.149684  0.004116  4.043095  0.005
C  C75  1  0.46854109  0.82820771  0.57876470  1  0.152164  -0.002415  3.813983  -0.003  0.15119  -0.003437  4.060512  -0.004  0.153752  -0.002795  4.085125  -0.004  0.095962  0.149619  -0.004114  4.043291  -0.005
C  C76  1  0.36605432  0.11216737  0.37894250  1  -0.134002  -0.001298  3.732403  -0.001  -0.154333  -0.000977  3.984168  -0.001  -0.156587  -0.001123  4.004125  -0.001  -0.085907  -0.152738  -0.000854  3.971033  -0.001
C  C77  1  0.63393416  0.88783756  0.62105164  1  -0.133807  0.001462  3.732247  0.001  -0.154205  0.000976  3.984015  0.001  -0.156461  0.001128  4.003976  0.001  -0.085926  -0.152602  0.000854  3.970881  0.001
C  C78  1  0.23771449  0.07298781  0.43706311  1  -0.086312  0.001025  3.784827  0.001  -0.105361  0.001196  4.046837  0.001  -0.10855  0.001017  4.070629  0.001  -0.10109  -0.103268  0.001594  4.031865  0.001
C  C79  1  0.76227205  0.92701815  0.56293109  1  -0.086422  -0.001173  3.784786  -0.001  -0.105494  -0.001195  4.046835  -0.001  -0.108683  -0.001022  4.070625  -0.001  -0.10115  -0.103402  -0.001593  4.031867  -0.001
C  C80  1  0.27220116  0.09180141  0.53477185  1  -0.062426  -0.000969  3.763583  -0.001  -0.082554  -0.000606  4.026575  -0.001  -0.085118  -0.000765  4.05065  -0.001  -0.096434  -0.081008  -0.000486  4.011321  -0.001
C  C81  1  0.72778765  0.90820144  0.46522209  1  -0.062354  0.001106  3.76359  0.001  -0.082487  0.000604  4.026566  0.001  -0.085054  0.000773  4.050646  0.001  -0.096298  -0.080941  0.000486  4.011301  0.001
C  C82  1  0.43603824  0.15060204  0.57785467  1  -0.156541  0.001287  3.754523  0.001  -0.173713  0.00142  4.006672  0.001  -0.177329  0.001288  4.028891  0.001  -0.096904  -0.171231  0.00179  3.991877  0.001
C  C83  1  0.56394782  0.84939986  0.42214120  1  -0.156623  -0.001413  3.754398  -0.001  -0.173833  -0.001416  4.006543  -0.001  -0.177455  -0.001297  4.028736  -0.001  -0.097032  -0.171309  -0.001789  3.991759  -0.001
N  N84  1  0.00744143  0.31289090  0.34528283  1  -0.328237  0.024968  3.223687  0.012  -0.265188  0.031406  3.492096  0.014  -0.281061  0.026606  3.504153  0.01  -0.301699  -0.254284  0.037067  3.484588  0.019
N  N85  1  0.99255600  0.68710403  0.65471943  1  -0.328358  -0.024992  3.223782  -0.012  -0.265278  -0.031406  3.492112  -0.014  -0.281155  -0.026609  3.504172  -0.01  -0.301749  -0.25437  -0.037067  3.484608  -0.019
N  N86  1  0.68247077  0.21956766  0.38248042  1  -0.436642  0.026574  3.135846  0.012  -0.380367  0.030371  3.420184  0.011  -0.401279  0.027048  3.431432  0.009  -0.328796  -0.365862  0.034003  3.41249  0.014
N  N87  1  0.31752703  0.78043111  0.61751536  1  -0.436534  -0.026529  3.135928  -0.012  -0.380285  -0.03037  3.420299  -0.011  -0.401203  -0.027041  3.431558  -0.009  -0.328806  -0.365787  -0.033999  3.412615  -0.014
N  N88  1  0.73809220  0.24997018  0.53693303  1  -0.372127  0.002063  3.367134  0.002  -0.319859  0.004508  3.599475  0.004  -0.336372  0.00329  3.611386  0.003  -0.370681  -0.309382  0.005961  3.593488  0.005
N  N89  1  0.26189484  0.75002549  0.46306226  1  -0.37186  -0.002071  3.366874  -0.002  -0.319582  -0.004507  3.599246  -0.004  -0.336096  -0.003291  3.611162  -0.003  -0.370623  -0.30908  -0.00596  3.593231  -0.005
N  N90  1  0.93000790  0.29141300  0.12860216  1  -0.368427  0.026732  3.242773  0.011  -0.30065  0.031111  3.538162  0.01  -0.320754  0.027986  3.551594  0.008  -0.342938  -0.2861  0.034198  3.528654  0.012
N  N91  1  0.07000070  0.70858894  0.87139548  1  -0.368662  -0.026738  3.242942  -0.011  -0.300867  -0.03112  3.538327  -0.01  -0.320974  -0.027993  3.551757  -0.008  -0.343034  -0.28632  -0.034207  3.528831  -0.012
N  N92  1  0.11971472  0.42053308  0.04959735  1  -0.067094  0.001191  3.601352  0.001  0.026389  0.002602  3.822448  0.003  0.011751  0.002019  3.8487  0.002  -0.247111  0.036091  0.003185  3.80449  0.003
N  N93  1  0.88029239  0.57947097  0.95040115  1  -0.066997  -0.001192  3.601129  -0.001  0.026439  -0.002602  3.822213  -0.003  0.011801  -0.002019  3.848458  -0.002  -0.247063  0.036147  -0.003185  3.804256  -0.003
O  O94  1  0.61419895  0.34426477  0.21172351  1  -0.630372  0.036465  1.97838  0.027  -0.566199  0.040943  2.230061  0.027  -0.597285  0.035914  2.217521  0.022  -0.327599  -0.542645  0.045771  2.238244  0.031
O  O95  1  0.38578900  0.65572163  0.78827229  1  -0.630443  -0.036473  1.978557  -0.027  -0.56628  -0.040945  2.230276  -0.027  -0.597373  -0.03592  2.217736  -0.022  -0.327642  -0.542722  -0.045771  2.238455  -0.031
O  O96  1  0.84210350  0.52766533  0.27561083  1  -0.642659  0.007176  1.920941  0.005  -0.599114  0.014891  2.151017  0.012  -0.62313  0.012142  2.140872  0.01  -0.330796  -0.580903  0.017537  2.156629  0.015
O  O97  1  0.15788885  0.47231728  0.72439292  1  -0.642595  -0.007179  1.920994  -0.005  -0.599025  -0.014887  2.151039  -0.012  -0.623043  -0.012138  2.140901  -0.01  -0.330731  -0.580816  -0.017531  2.156656  -0.015
O  O98  1  0.63686555  0.03151557  0.17461736  1  -0.638149  0.039486  1.960726  0.029  -0.572834  0.041697  2.207791  0.027  -0.605596  0.036506  2.195002  0.022  -0.335287  -0.547097  0.046146  2.215472  0.031
O  O99  1  0.36316321  0.96848346  0.82538585  1  -0.638208  -0.039488  1.96103  -0.029  -0.572882  -0.041693  2.208091  -0.027  -0.605649  -0.036506  2.195306  -0.022  -0.335275  -0.54714  -0.046144  2.215767  -0.031
O  O100  1  0.85320329  0.00391565  0.25420002  1  -0.620909  0.011108  1.880942  0.008  -0.578016  0.020568  2.099394  0.017  -0.603212  0.016808  2.091854  0.014  -0.325478  -0.558386  0.02459  2.102913  0.021
O  O101  1  0.14682126  0.99607606  0.74580105  1  -0.620906  -0.01111  1.880837  -0.008  -0.578019  -0.020574  2.099338  -0.017  -0.60322  -0.016812  2.091795  -0.014  -0.325496  -0.558382  -0.024596  2.102855  -0.021
