# generated using pymatgen
data_ZnH19C26(NO3)2
_symmetry_space_group_name_H-M   'P 1'
_cell_length_a   9.78909421
_cell_length_b   9.67063523
_cell_length_c   12.40757134
_cell_angle_alpha   74.60160454
_cell_angle_beta   77.55661339
_cell_angle_gamma   78.22378744
_symmetry_Int_Tables_number   1
_chemical_formula_structural   ZnH19C26(NO3)2
_chemical_formula_sum   'Zn2 H38 C52 N4 O12'
_cell_volume   1092.27916211
_cell_formula_units_Z   2
loop_
 _symmetry_equiv_pos_site_id
 _symmetry_equiv_pos_as_xyz
  1  'x, y, z'
loop_
 _atom_site_type_symbol
 _atom_site_label
 _atom_site_symmetry_multiplicity
 _atom_site_fract_x
 _atom_site_fract_y
 _atom_site_fract_z
 _atom_site_occupancy
 _atom_site_hle17_bader_spin_density
 _atom_site_hle17_ddec_charge
 _atom_site_hle17_ddec_spin_density
 _atom_site_hle17_ddec_sum_bond_order
 _atom_site_hle17_magmom
 _atom_site_hse06_10hf_bader_spin_density
 _atom_site_hse06_10hf_ddec_charge
 _atom_site_hse06_10hf_ddec_spin_density
 _atom_site_hse06_10hf_ddec_sum_bond_order
 _atom_site_hse06_10hf_magmom
 _atom_site_hse06_bader_spin_density
 _atom_site_hse06_ddec_charge
 _atom_site_hse06_ddec_spin_density
 _atom_site_hse06_ddec_sum_bond_order
 _atom_site_hse06_magmom
 _atom_site_pbe_bader_spin_density
 _atom_site_pbe_cm5_charge
 _atom_site_pbe_ddec_charge
 _atom_site_pbe_ddec_spin_density
 _atom_site_pbe_ddec_sum_bond_order
 _atom_site_pbe_magmom
Zn  Zn0  1  0.40333208  0.62270869  0.94688401  1  0  1.041707  0  1.871233  0  0  0.869135  0  2.344285  0  0  0.921754  0  2.27832  0  0  0.67614  0.832461  0  2.389205  0
Zn  Zn1  1  0.59666656  0.37729248  0.05311662  1  0  1.041678  0  1.871326  0  0  0.869133  0  2.344385  0  0  0.921743  0  2.27842  0  0  0.67611  0.832452  0  2.389304  0
H  H2  1  0.04373065  0.62700713  0.23127833  1  0  0.114301  0  0.98889  0  0  0.1228  0  1.05708  0  0  0.126683  0  1.054344  0  0  0.10321  0.120001  0  1.059308  0
H  H3  1  0.95626936  0.37299183  0.76872013  1  0  0.114309  0  0.988887  0  0  0.122828  0  1.057049  0  0  0.12671  0  1.054316  0  0  0.103225  0.120029  0  1.059279  0
H  H4  1  0.87578583  0.31465573  0.52317518  1  0  0.122864  0  0.982467  0  0  0.129734  0  1.052607  0  0  0.133179  0  1.051199  0  0  0.106508  0.127405  0  1.053496  0
H  H5  1  0.12421732  0.68534320  0.47682356  1  0  0.122867  0  0.982476  0  0  0.129748  0  1.052607  0  0  0.133194  0  1.051199  0  0  0.106509  0.127418  0  1.053495  0
H  H6  1  0.29995338  0.21492336  0.34378800  1  0  0.125864  0  0.947747  0  0  0.133329  0  1.014152  0  0  0.138099  0  1.010103  0  0  0.107474  0.129861  0  1.017177  0
H  H7  1  0.70005364  0.78507775  0.65621203  1  0  0.125834  0  0.947851  0  0  0.13329  0  1.014268  0  0  0.138056  0  1.010223  0  0  0.107464  0.129823  0  1.017293  0
H  H8  1  0.93062938  0.05220939  0.61499746  1  0  0.080358  0  0.941005  0  0  0.08338  0  1.016471  0  0  0.08576  0  1.013226  0  0  0.104168  0.081455  0  1.018913  0
H  H9  1  0.06937153  0.94779064  0.38500061  1  0  0.080359  0  0.941033  0  0  0.0834  0  1.016467  0  0  0.085782  0  1.013225  0  0  0.104191  0.081473  0  1.018916  0
H  H10  1  0.99266730  0.18838763  0.65678859  1  0  0.075488  0  0.923546  0  0  0.090293  0  0.984625  0  0  0.090478  0  0.984152  0  0  0.109572  0.089854  0  0.985428  0
H  H11  1  0.00733151  0.81161245  0.34321224  1  0  0.075477  0  0.92357  0  0  0.090288  0  0.984642  0  0  0.090472  0  0.984171  0  0  0.109575  0.08985  0  0.985444  0
H  H12  1  0.27184747  0.11133289  0.68205172  1  0  0.116282  0  0.955955  0  0  0.122548  0  1.021459  0  0  0.125515  0  1.021638  0  0  0.109785  0.120361  0  1.021522  0
H  H13  1  0.72815197  0.88866283  0.31794833  1  0  0.116276  0  0.95595  0  0  0.122539  0  1.021459  0  0  0.125508  0  1.021639  0  0  0.109773  0.120351  0  1.021522  0
H  H14  1  0.41462477  0.92050757  0.81200079  1  0  0.093801  0  0.923761  0  0  0.103271  0  0.982712  0  0  0.105655  0  0.981029  0  0  0.123741  0.101305  0  0.984223  0
H  H15  1  0.58537573  0.07948811  0.18799667  1  0  0.093807  0  0.923776  0  0  0.103309  0  0.982698  0  0  0.105696  0  0.981008  0  0  0.12373  0.101341  0  0.984209  0
H  H16  1  0.13067144  0.63415202  0.86973737  1  0  0.086342  0  0.933743  0  0  0.096351  0  0.993684  0  0  0.098649  0  0.991431  0  0  0.121611  0.094529  0  0.995674  0
H  H17  1  0.86932574  0.36584480  0.13026364  1  0  0.086319  0  0.933802  0  0  0.096336  0  0.993726  0  0  0.098635  0  0.991473  0  0  0.12162  0.094513  0  0.995716  0
H  H18  1  0.97509798  0.81249018  0.74306318  1  0  0.11368  0  0.958211  0  0  0.123467  0  1.018026  0  0  0.125146  0  1.020293  0  0  0.108972  0.122359  0  1.016341  0
H  H19  1  0.02489993  0.18750882  0.25693804  1  0  0.113701  0  0.958189  0  0  0.123495  0  1.017996  0  0  0.12517  0  1.020266  0  0  0.108979  0.122389  0  1.016307  0
H  H20  1  0.71436784  0.53689788  0.54412056  1  0  0.06465  0  0.949128  0  0  0.0743  0  1.01815  0  0  0.073899  0  1.019669  0  0  0.100112  0.074562  0  1.017064  0
H  H21  1  0.28563935  0.46310210  0.45587646  1  0  0.064633  0  0.949135  0  0  0.074286  0  1.018136  0  0  0.073883  0  1.019657  0  0  0.100118  0.074552  0  1.017046  0
H  H22  1  0.68711071  0.43081151  0.45414951  1  0  0.057079  0  0.958238  0  0  0.069678  0  1.022994  0  0  0.069372  0  1.024268  0  0  0.100574  0.069904  0  1.022122  0
H  H23  1  0.31289318  0.56918958  0.54584783  1  0  0.057127  0  0.958191  0  0  0.069706  0  1.02295  0  0  0.069405  0  1.024214  0  0  0.100578  0.069914  0  1.022099  0
H  H24  1  0.58186123  0.57949937  0.26885044  1  0  0.124446  0  0.946243  0  0  0.134229  0  1.003989  0  0  0.137733  0  1.002964  0  0  0.109143  0.131721  0  1.004821  0
H  H25  1  0.41813846  0.42050178  0.73115002  1  0  0.124446  0  0.946214  0  0  0.134236  0  1.00395  0  0  0.137739  0  1.002927  0  0  0.109145  0.131723  0  1.004796  0
H  H26  1  0.37639290  0.76406929  0.21368411  1  0  0.080211  0  0.941094  0  0  0.088659  0  1.002876  0  0  0.090725  0  1.002224  0  0  0.110564  0.087136  0  1.003351  0
H  H27  1  0.62360306  0.23592867  0.78632008  1  0  0.080228  0  0.941092  0  0  0.088668  0  1.002886  0  0  0.090734  0  1.002233  0  0  0.110574  0.08714  0  1.003368  0
H  H28  1  0.33288917  0.92875950  0.49721814  1  0  0.0709  0  0.965845  0  0  0.072739  0  1.038903  0  0  0.075745  0  1.037158  0  0  0.104299  0.070757  0  1.039678  0
H  H29  1  0.66711130  0.07123626  0.50278576  1  0  0.070914  0  0.965818  0  0  0.072735  0  1.038895  0  0  0.075739  0  1.037151  0  0  0.104297  0.070751  0  1.039668  0
H  H30  1  0.53664465  0.74785209  0.56647783  1  0  0.110742  0  0.957493  0  0  0.12052  0  1.018902  0  0  0.123741  0  1.01784  0  0  0.105602  0.118204  0  1.019579  0
H  H31  1  0.46335672  0.25214474  0.43352488  1  0  0.110699  0  0.957516  0  0  0.120443  0  1.018971  0  0  0.12366  0  1.01791  0  0  0.105572  0.118125  0  1.019647  0
H  H32  1  0.12514496  0.39165156  0.89601494  1  0  0.095051  0  0.957255  0  0  0.104297  0  1.021064  0  0  0.107833  0  1.018094  0  0  0.100792  0.101573  0  1.023606  0
H  H33  1  0.87485354  0.60835068  0.10398469  1  0  0.095083  0  0.957205  0  0  0.104304  0  1.02105  0  0  0.107843  0  1.018077  0  0  0.100803  0.101579  0  1.023592  0
H  H34  1  0.93800104  0.24694561  0.91710225  1  0  0.093581  0  1.002989  0  0  0.102587  0  1.06841  0  0  0.106137  0  1.06568  0  0  0.098035  0.099726  0  1.070839  0
H  H35  1  0.06200033  0.75305117  0.08289725  1  0  0.093579  0  1.002987  0  0  0.102601  0  1.068391  0  0  0.106131  0  1.065686  0  0  0.098028  0.099739  0  1.070821  0
H  H36  1  0.20364120  0.86544045  0.07615903  1  0  0.099226  0  0.969861  0  0  0.109565  0  1.032709  0  0  0.112718  0  1.030889  0  0  0.101672  0.107322  0  1.033911  0
H  H37  1  0.79636195  0.13455848  0.92383890  1  0  0.099254  0  0.969895  0  0  0.109561  0  1.032771  0  0  0.112712  0  1.030953  0  0  0.101666  0.107316  0  1.033976  0
H  H38  1  0.38568726  0.01377558  0.05916108  1  0  0.102073  0  0.954008  0  0  0.109099  0  1.02164  0  0  0.112683  0  1.018657  0  0  0.104014  0.106736  0  1.023102  0
H  H39  1  0.61431348  0.98622556  0.94083839  1  0  0.102089  0  0.953991  0  0  0.109117  0  1.021614  0  0  0.112699  0  1.018633  0  0  0.104025  0.106755  0  1.023078  0
C  C40  1  0.30372350  0.47005517  0.18325241  1  0  0.657381  0  3.879425  0  0  0.608962  0  4.162996  0  0  0.643441  0  4.155798  0  0  0.212603  0.585884  0  4.166544  0
C  C41  1  0.69626794  0.52995249  0.81674241  1  0  0.657545  0  3.879328  0  0  0.609022  0  4.163012  0  0  0.643501  0  4.155813  0  0  0.212648  0.585945  0  4.166564  0
C  C42  1  0.18477320  0.42647137  0.27803453  1  0  -0.024451  0  3.808256  0  0  0.003059  0  4.039475  0  0  -2.7e-05  0  4.060131  0  0  -0.022549  0.005037  0  4.025395  0
C  C43  1  0.81522649  0.57352979  0.72196593  1  0  -0.024563  0  3.808275  0  0  0.003011  0  4.039462  0  0  -7.3e-05  0  4.060115  0  0  -0.022579  0.004993  0  4.025384  0
C  C44  1  0.05752125  0.52159739  0.28964406  1  0  -0.222181  0  3.742484  0  0  -0.263054  0  4.003242  0  0  -0.267892  0  4.021057  0  0  -0.116165  -0.260005  0  3.991483  0
C  C45  1  0.94247949  0.47840376  0.71035622  1  0  -0.222175  0  3.742558  0  0  -0.263081  0  4.003293  0  0  -0.26792  0  4.021108  0  0  -0.116187  -0.260028  0  3.991529  0
C  C46  1  0.94597945  0.48060696  0.37638026  1  0  0.298933  0  3.837805  0  0  0.292809  0  4.098252  0  0  0.305244  0  4.113323  0  0  0.080179  0.284026  0  4.088191  0
C  C47  1  0.05402354  0.51939311  0.62362148  1  0  0.298872  0  3.837858  0  0  0.292798  0  4.098279  0  0  0.305232  0  4.113352  0  0  0.080174  0.284014  0  4.08822  0
C  C48  1  0.96155980  0.34632298  0.45463075  1  0  -0.327452  0  3.72898  0  0  -0.357735  0  3.986221  0  0  -0.365132  0  4.003257  0  0  -0.124143  -0.352572  0  3.974465  0
C  C49  1  0.03844392  0.65367925  0.54537040  1  0  -0.327405  0  3.728987  0  0  -0.35771  0  3.986182  0  0  -0.365107  0  4.003219  0  0  -0.124136  -0.352544  0  3.974424  0
C  C50  1  0.09131713  0.25324411  0.44288549  1  0  0.303009  0  3.820018  0  0  0.293327  0  4.08706  0  0  0.306657  0  4.099987  0  0  0.083319  0.284147  0  4.07795  0
C  C51  1  0.90868899  0.74675595  0.55711734  1  0  0.302864  0  3.820095  0  0  0.293268  0  4.087069  0  0  0.306596  0  4.099998  0  0  0.083295  0.284091  0  4.077958  0
C  C52  1  0.20189554  0.29063919  0.35372382  1  0  -0.224073  0  3.728836  0  0  -0.263457  0  3.993474  0  0  -0.267254  0  4.007913  0  0  -0.112366  -0.260578  0  3.983485  0
C  C53  1  0.79810682  0.70936523  0.64627790  1  0  -0.224008  0  3.728966  0  0  -0.263406  0  3.993549  0  0  -0.267199  0  4.00799  0  0  -0.112342  -0.260529  0  3.983561  0
C  C54  1  0.02589444  0.08935586  0.62362711  1  0  0.043369  0  3.596315  0  0  -0.016176  0  3.849998  0  0  -0.007789  0  3.851618  0  0  -0.056708  -0.021829  0  3.849242  0
C  C55  1  0.97410662  0.91064312  0.37637358  1  0  0.04336  0  3.596271  0  0  -0.016171  0  3.849955  0  0  -0.007785  0  3.851578  0  0  -0.056752  -0.021825  0  3.849199  0
C  C56  1  0.11205930  0.97638360  0.70172000  1  0  0.12523  0  3.71061  0  0  0.13912  0  3.949109  0  0  0.143299  0  3.969946  0  0  0.014114  0.136328  0  3.935156  0
C  C57  1  0.88794086  0.02361430  0.29828107  1  0  0.12525  0  3.710648  0  0  0.139162  0  3.949101  0  0  0.143344  0  3.969933  0  0  0.014156  0.136367  0  3.935148  0
C  C58  1  0.23751832  0.00643580  0.72144018  1  0  -0.155142  0  3.695656  0  0  -0.176226  0  3.948285  0  0  -0.183892  0  3.97001  0  0  -0.078788  -0.171264  0  3.933845  0
C  C59  1  0.76248049  0.99356425  0.27855825  1  0  -0.155136  0  3.695725  0  0  -0.176214  0  3.948329  0  0  -0.183885  0  3.97006  0  0  -0.078757  -0.171253  0  3.933885  0
C  C60  1  0.31716889  0.90173424  0.79302474  1  0  0.136921  0  3.686063  0  0  0.106072  0  3.935157  0  0  0.112812  0  3.954481  0  0  0.052664  0.101724  0  3.922109  0
C  C61  1  0.68283249  0.09826251  0.20697234  1  0  0.136878  0  3.686138  0  0  0.106003  0  3.93524  0  0  0.112743  0  3.954562  0  0  0.052627  0.101653  0  3.922191  0
C  C62  1  0.15735690  0.74134008  0.82614733  1  0  0.146402  0  3.678983  0  0  0.11506  0  3.928034  0  0  0.122609  0  3.946777  0  0  0.055836  0.110203  0  3.91556  0
C  C63  1  0.84264463  0.25865563  0.17385317  1  0  0.146439  0  3.67907  0  0  0.115089  0  3.928141  0  0  0.122637  0  3.946878  0  0  0.05585  0.110231  0  3.915664  0
C  C64  1  0.07198088  0.84090534  0.75523502  1  0  -0.155658  0  3.697828  0  0  -0.173858  0  3.941408  0  0  -0.182837  0  3.966126  0  0  -0.076136  -0.168207  0  3.924973  0
C  C65  1  0.92801599  0.15909368  0.24476718  1  0  -0.155773  0  3.697997  0  0  -0.173989  0  3.941593  0  0  -0.182968  0  3.966313  0  0  -0.076208  -0.168339  0  3.925159  0
C  C66  1  0.70134452  0.53950725  0.45769128  1  0  0.042328  0  3.637094  0  0  -0.018783  0  3.891107  0  0  -0.010833  0  3.895358  0  0  -0.064626  -0.024397  0  3.888304  0
C  C67  1  0.29865953  0.46049275  0.54230627  1  0  0.042221  0  3.636977  0  0  -0.018812  0  3.890971  0  0  -0.010854  0  3.895206  0  0  -0.064646  -0.024425  0  3.888199  0
C  C68  1  0.57718127  0.64971590  0.42236375  1  0  0.099706  0  3.75437  0  0  0.114952  0  3.992539  0  0  0.117927  0  4.014099  0  0  -0.00094  0.113275  0  3.977502  0
C  C69  1  0.42282205  0.35028196  0.57763519  1  0  0.099789  0  3.754335  0  0  0.114973  0  3.992549  0  0  0.117945  0  4.014109  0  0  -0.00092  0.113302  0  3.97751  0
C  C70  1  0.53021935  0.65499357  0.32227064  1  0  -0.15771  0  3.680399  0  0  -0.176876  0  3.924974  0  0  -0.18389  0  3.946964  0  0  -0.084771  -0.172333  0  3.910067  0
C  C71  1  0.46978051  0.34500648  0.67772841  1  0  -0.157786  0  3.680392  0  0  -0.176921  0  3.924974  0  0  -0.183935  0  3.946967  0  0  -0.084781  -0.172373  0  3.910068  0
C  C72  1  0.41503225  0.75889584  0.29122707  1  0  0.107778  0  3.734267  0  0  0.087873  0  3.989476  0  0  0.091877  0  4.009066  0  0  0.037591  0.085222  0  3.976201  0
C  C73  1  0.58496551  0.24110427  0.70877555  1  0  0.107822  0  3.73426  0  0  0.087917  0  3.989469  0  0  0.091921  0  4.009061  0  0  0.037606  0.08527  0  3.976197  0
C  C74  1  0.39128530  0.84965318  0.44862996  1  0  0.104082  0  3.763064  0  0  0.084031  0  4.020117  0  0  0.088936  0  4.03743  0  0  0.033108  0.080607  0  4.007841  0
C  C75  1  0.60871606  0.15034366  0.55137356  1  0  0.104037  0  3.763115  0  0  0.084005  0  4.020149  0  0  0.088912  0  4.03746  0  0  0.03307  0.080582  0  4.007871  0
C  C76  1  0.50536210  0.74938854  0.48688279  1  0  -0.17549  0  3.7244  0  0  -0.191625  0  3.963674  0  0  -0.198309  0  3.984622  0  0  -0.08846  -0.186586  0  3.948506  0
C  C77  1  0.49463895  0.25061045  0.51311870  1  0  -0.175434  0  3.724396  0  0  -0.191521  0  3.963686  0  0  -0.1982  0  3.984632  0  0  -0.088426  -0.186481  0  3.948517  0
C  C78  1  0.37458859  0.30554493  0.97033423  1  0  0.658608  0  3.892949  0  0  0.606507  0  4.18164  0  0  0.641926  0  4.174965  0  0  0.213152  0.582517  0  4.185363  0
C  C79  1  0.62539922  0.69446603  0.02966292  1  0  0.658729  0  3.892754  0  0  0.606593  0  4.181438  0  0  0.642008  0  4.174772  0  0  0.2131  0.582599  0  4.185163  0
C  C80  1  0.26798797  0.21256941  0.97588380  1  0  -0.080162  0  3.770399  0  0  -0.055727  0  4.000957  0  0  -0.065621  0  4.025928  0  0  -0.023778  -0.049228  0  3.984095  0
C  C81  1  0.73201084  0.78743067  0.02411704  1  0  -0.080346  0  3.770461  0  0  -0.05585  0  4.000924  0  0  -0.065731  0  4.025892  0  0  -0.023784  -0.049337  0  3.984055  0
C  C82  1  0.14128724  0.27592615  0.93519516  1  0  -0.054924  0  3.743742  0  0  -0.079465  0  3.99247  0  0  -0.077987  0  4.012069  0  0  -0.085426  -0.080558  0  3.979622  0
C  C83  1  0.85871319  0.72407715  0.06480310  1  0  -0.054848  0  3.74367  0  0  -0.079403  0  3.992394  0  0  -0.077929  0  4.011987  0  0  -0.08542  -0.0805  0  3.979542  0
C  C84  1  0.03725519  0.19296218  0.94552247  1  0  -0.130016  0  3.753977  0  0  -0.149964  0  4.005536  0  0  -0.15474  0  4.026667  0  0  -0.096764  -0.146358  0  3.991364  0
C  C85  1  0.96274554  0.80703899  0.05447942  1  0  -0.130033  0  3.753902  0  0  -0.14999  0  4.005472  0  0  -0.154758  0  4.026617  0  0  -0.096769  -0.146389  0  3.991299  0
C  C86  1  0.05588225  0.04327445  0.99553799  1  0  0.055923  0  3.773631  0  0  0.070351  0  4.003241  0  0  0.071988  0  4.027087  0  0  -0.006411  0.068993  0  3.98738  0
C  C87  1  0.94411850  0.95672668  0.00446149  1  0  0.055935  0  3.773576  0  0  0.070327  0  4.0032  0  0  0.071967  0  4.027048  0  0  -0.006394  0.068974  0  3.98734  0
C  C88  1  0.18340115  0.98082640  0.03673039  1  0  -0.115983  0  3.716525  0  0  -0.135766  0  3.96714  0  0  -0.140114  0  3.988136  0  0  -0.091553  -0.133051  0  3.952798  0
C  C89  1  0.81659975  0.01917365  0.96326929  1  0  -0.115941  0  3.716553  0  0  -0.135677  0  3.967168  0  0  -0.140031  0  3.988173  0  0  -0.091522  -0.132967  0  3.952831  0
C  C90  1  0.28766751  0.06388356  0.02713010  1  0  -0.053153  0  3.729549  0  0  -0.078229  0  3.980016  0  0  -0.076338  0  3.998769  0  0  -0.080987  -0.07917  0  3.96659  0
C  C91  1  0.71233293  0.93611972  0.97286736  1  0  -0.053171  0  3.729523  0  0  -0.078273  0  3.979959  0  0  -0.076389  0  3.99871  0  0  -0.081009  -0.079221  0  3.966534  0
N  N92  1  0.27742025  0.77106665  0.84488900  1  0  -0.319873  0  3.282124  0  0  -0.236929  0  3.554495  0  0  -0.25743  0  3.570036  0  0  -0.328955  -0.223117  0  3.543662  0
N  N93  1  0.72257992  0.22893122  0.15510966  1  0  -0.31978  0  3.282013  0  0  -0.236847  0  3.554404  0  0  -0.257339  0  3.569935  0  0  -0.32891  -0.223036  0  3.543566  0
N  N94  1  0.34552887  0.85555508  0.35260362  1  0  -0.324023  0  3.065377  0  0  -0.288418  0  3.33133  0  0  -0.29889  0  3.346265  0  0  -0.328368  -0.28103  0  3.321189  0
N  N95  1  0.65447024  0.14444287  0.64740085  1  0  -0.324049  0  3.06551  0  0  -0.288438  0  3.33145  0  0  -0.298909  0  3.346382  0  0  -0.328364  -0.281049  0  3.321307  0
O  O96  1  0.27623283  0.58524116  0.10705054  1  0  -0.637339  0  2.054183  0  0  -0.572003  0  2.316306  0  0  -0.60028  0  2.302913  0  0  -0.31713  -0.552025  0  2.324577  0
O  O97  1  0.72376131  0.41476220  0.89294958  1  0  -0.637424  0  2.054004  0  0  -0.57208  0  2.316206  0  0  -0.600357  0  2.302813  0  0  -0.31713  -0.552099  0  2.324478  0
O  O98  1  0.42266679  0.38782077  0.18546022  1  0  -0.634069  0  2.068766  0  0  -0.571452  0  2.326676  0  0  -0.598976  0  2.314013  0  0  -0.317025  -0.552512  0  2.33473  0
O  O99  1  0.57733188  0.61218029  0.81453237  1  0  -0.634101  0  2.068899  0  0  -0.571421  0  2.326829  0  0  -0.598947  0  2.314166  0  0  -0.317036  -0.552483  0  2.334885  0
O  O100  1  0.11882722  0.12100608  0.51570186  1  0  -0.287064  0  2.299364  0  0  -0.213849  0  2.531784  0  0  -0.231959  0  2.533317  0  0  -0.176779  -0.200815  0  2.530082  0
O  O101  1  0.88117577  0.87899400  0.48430069  1  0  -0.286933  0  2.299259  0  0  -0.213838  0  2.531734  0  0  -0.231945  0  2.533265  0  0  -0.176767  -0.200802  0  2.530029  0
O  O102  1  0.82501774  0.58054129  0.37783850  1  0  -0.285459  0  2.304535  0  0  -0.212536  0  2.534649  0  0  -0.230554  0  2.537519  0  0  -0.179037  -0.200082  0  2.532438  0
O  O103  1  0.17498542  0.41945764  0.62215943  1  0  -0.285376  0  2.304512  0  0  -0.212541  0  2.534662  0  0  -0.23056  0  2.537527  0  0  -0.179028  -0.200081  0  2.532452  0
O  O104  1  0.34251985  0.44123514  0.92817954  1  0  -0.657181  0  2.115498  0  0  -0.589345  0  2.385531  0  0  -0.617822  0  2.370845  0  0  -0.318957  -0.569127  0  2.394615  0
O  O105  1  0.65746967  0.55876401  0.07182871  1  0  -0.657324  0  2.115231  0  0  -0.589387  0  2.385119  0  0  -0.617889  0  2.370481  0  0  -0.318935  -0.569168  0  2.394204  0
O  O106  1  0.48826782  0.24542765  0.00919109  1  0  -0.626888  0  2.066203  0  0  -0.560654  0  2.332397  0  0  -0.58967  0  2.320363  0  0  -0.311739  -0.54036  0  2.339186  0
O  O107  1  0.51173052  0.75457563  0.99080511  1  0  -0.626838  0  2.066363  0  0  -0.560601  0  2.332583  0  0  -0.589589  0  2.320496  0  0  -0.311693  -0.540314  0  2.339382  0
