# generated using pymatgen
data_Zn3H24C54(NO8)2
_symmetry_space_group_name_H-M   'P 1'
_cell_length_a   21.83230768
_cell_length_b   21.83233820
_cell_length_c   31.98075555
_cell_angle_alpha   109.97298165
_cell_angle_beta   109.97213850
_cell_angle_gamma   89.98721039
_symmetry_Int_Tables_number   1
_chemical_formula_structural   Zn3H24C54(NO8)2
_chemical_formula_sum   'Zn6 H48 C108 N4 O32'
_cell_volume   13347.64631839
_cell_formula_units_Z   2
loop_
 _symmetry_equiv_pos_site_id
 _symmetry_equiv_pos_as_xyz
  1  'x, y, z'
loop_
 _atom_site_type_symbol
 _atom_site_label
 _atom_site_symmetry_multiplicity
 _atom_site_fract_x
 _atom_site_fract_y
 _atom_site_fract_z
 _atom_site_occupancy
 _atom_site_pbe_bader_charge
 _atom_site_pbe_bader_spin_density
 _atom_site_pbe_cm5_charge
 _atom_site_pbe_ddec_charge
 _atom_site_pbe_ddec_spin_density
 _atom_site_pbe_ddec_sum_bond_order
 _atom_site_pbe_magmom
Zn  Zn0  1  0.52273190  0.52271255  0.04543535  1  1.302941  0  0.734738  0.972595  0  2.070274  0
Zn  Zn1  1  0.00000020  0.55833841  0.99999288  1  1.292419  0  0.73297  0.970722  0  2.078072  0
Zn  Zn2  1  0.44166418  0.00000141  0.00000788  1  1.292476  0  0.73297  0.970657  0  2.078115  0
Zn  Zn3  1  0.99999790  0.44170458  0.00000185  1  1.296533  0  0.732871  0.970083  0  2.078104  0
Zn  Zn4  1  0.47728851  0.47726887  0.95456500  1  1.284993  0  0.734718  0.972583  0  2.070298  0
Zn  Zn5  1  0.55829638  0.00000264  0.99999676  1  1.296654  0  0.732854  0.969982  0  2.078188  0
H  H6  1  0.54205413  0.28031257  0.94547157  1  0.085903  0  0.108629  0.114598  0  0.988319  0
H  H7  1  0.66508928  0.54202285  0.94545302  1  0.10159  0  0.108697  0.114477  0  0.988928  0
H  H8  1  0.40337432  0.66514457  0.94543777  1  0.114628  0  0.10871  0.11444  0  0.988834  0
H  H9  1  0.28037789  0.40345324  0.94546461  1  0.093122  0  0.108445  0.114121  0  0.989078  0
H  H10  1  0.45798186  0.33491231  0.05454726  1  0.101624  0  0.108658  0.114493  0  0.988945  0
H  H11  1  0.33485548  0.59662556  0.05456431  1  0.114546  0  0.10874  0.114498  0  0.988797  0
H  H12  1  0.59654672  0.71962356  0.05453492  1  0.092725  0  0.108464  0.114143  0  0.989034  0
H  H13  1  0.71968608  0.45794713  0.05452548  1  0.085963  0  0.108686  0.114722  0  0.988299  0
H  H14  1  0.54612548  0.16652341  0.94784276  1  0.084928  0  0.108473  0.113489  0  0.989086  0
H  H15  1  0.78130350  0.54633695  0.94793038  1  0.094614  0  0.109121  0.114766  0  0.987512  0
H  H16  1  0.40165678  0.78135485  0.94791222  1  0.110894  0  0.108841  0.114032  0  0.988107  0
H  H17  1  0.16662772  0.40161916  0.94787847  1  0.079638  0  0.108973  0.113903  0  0.988301  0
H  H18  1  0.45366966  0.21869850  0.05207099  1  0.094744  0  0.109146  0.11482  0  0.987441  0
H  H19  1  0.21864524  0.59834447  0.05208888  1  0.110849  0  0.108841  0.114059  0  0.988093  0
H  H20  1  0.59838136  0.83337333  0.05212072  1  0.079623  0  0.108968  0.113859  0  0.988365  0
H  H21  1  0.83347576  0.45387752  0.05215433  1  0.085009  0  0.108464  0.113397  0  0.989115  0
H  H22  1  0.63040659  0.34979903  0.46567317  1  0.064508  0  0.10858  0.107761  0  1.002999  0
H  H23  1  0.34974313  0.83528729  0.46566382  1  0.049724  0  0.108253  0.107474  0  1.002808  0
H  H24  1  0.83536670  0.11592211  0.46567012  1  0.080886  0  0.108273  0.107421  0  1.002877  0
H  H25  1  0.11598413  0.63030460  0.46566563  1  0.052415  0  0.108101  0.107262  0  1.003234  0
H  H26  1  0.36965534  0.88405112  0.53433631  1  0.051991  0  0.108103  0.107381  0  1.003104  0
H  H27  1  0.65017600  0.36956101  0.53432772  1  0.065887  0  0.108525  0.107727  0  1.002941  0
H  H28  1  0.16475733  0.65021791  0.53433562  1  0.050747  0  0.108334  0.10755  0  1.002563  0
H  H29  1  0.88409799  0.16465692  0.53432596  1  0.080246  0  0.108266  0.107299  0  1.003071  0
H  H30  1  0.58980370  0.30640689  0.37724434  1  0.110499  0  0.11729  0.122829  0  0.978712  0
H  H31  1  0.30639104  0.78735126  0.37724199  1  0.106107  0  0.117127  0.12235  0  0.978751  0
H  H32  1  0.78745155  0.07078477  0.37725783  1  0.125176  0  0.117513  0.12308  0  0.978327  0
H  H33  1  0.07082258  0.58977087  0.37726751  1  0.10649  0  0.117168  0.122667  0  0.977949  0
H  H34  1  0.41019043  0.92920776  0.62273286  1  0.106525  0  0.117192  0.122526  0  0.978074  0
H  H35  1  0.69356527  0.41016428  0.62275521  1  0.111631  0  0.117365  0.12284  0  0.978658  0
H  H36  1  0.21268783  0.69357711  0.62275811  1  0.105875  0  0.117136  0.122328  0  0.979017  0
H  H37  1  0.92923413  0.21257375  0.62273860  1  0.12439  0  0.117515  0.123214  0  0.978064  0
H  H38  1  0.71630617  0.14196648  0.24025600  1  0.020424  0  0.111556  0.119824  0  0.978056  0
H  H39  1  0.09836880  0.71625543  0.24025711  1  0.0918  0  0.111573  0.120019  0  0.977926  0
H  H40  1  0.52410403  0.09836837  0.24023016  1  0.076492  0  0.111723  0.120248  0  0.97766  0
H  H41  1  0.14190450  0.52402140  0.24020388  1  0.054288  0  0.111724  0.120232  0  0.978214  0
H  H42  1  0.28373650  0.90160594  0.75974305  1  0.091554  0  0.111583  0.120157  0  0.977724  0
H  H43  1  0.90161237  0.47590403  0.75977016  1  0.075978  0  0.111723  0.120227  0  0.977698  0
H  H44  1  0.47598013  0.85811857  0.75979420  1  0.054756  0  0.111716  0.120297  0  0.978136  0
H  H45  1  0.85804542  0.28369233  0.75974221  1  0.020489  0  0.111546  0.119777  0  0.978086  0
H  H46  1  0.67136083  0.09734974  0.15081327  1  0.118791  0  0.10943  0.114857  0  0.989715  0
H  H47  1  0.05358431  0.67136230  0.15082001  1  0.108629  0  0.109391  0.115044  0  0.990172  0
H  H48  1  0.47957617  0.05353821  0.15078593  1  0.108604  0  0.109526  0.115132  0  0.989578  0
H  H49  1  0.09735000  0.47954576  0.15075909  1  0.114509  0  0.109383  0.11508  0  0.990401  0
H  H50  1  0.32862952  0.94638897  0.84918012  1  0.108993  0  0.10936  0.115044  0  0.990378  0
H  H51  1  0.94644532  0.52043003  0.84921493  1  0.108113  0  0.109526  0.115162  0  0.989612  0
H  H52  1  0.52045702  0.90267447  0.84923900  1  0.114165  0  0.109363  0.115068  0  0.990367  0
H  H53  1  0.90266596  0.32863680  0.84918484  1  0.11815  0  0.109478  0.114856  0  0.98999  0
C  C54  1  0.62258115  0.12256206  0.24501051  1  0.311592  0  0.095949  0.203024  0  4.002134  0
C  C55  1  0.22446239  0.72451815  0.44900079  1  0.039881  0  0.004617  0.00167  0  3.918226  0
C  C56  1  0.12272447  0.55603425  0.22040305  1  -0.018562  0  -0.081665  -0.150412  0  3.975796  0
C  C57  1  0.33554741  0.90219366  0.77955319  1  -0.041485  0  -0.081542  -0.150766  0  3.974662  0
C  C58  1  0.90220676  0.44391327  0.77957703  1  -0.027868  0  -0.081527  -0.150833  0  3.974849  0
C  C59  1  0.44396579  0.87728758  0.77959581  1  -0.019037  0  -0.081761  -0.150699  0  3.975629  0
C  C60  1  0.87721946  0.33551229  0.77954447  1  0.028996  0  -0.081488  -0.150181  0  3.97469  0
C  C61  1  0.63960400  0.09784219  0.17077438  1  -0.028197  0  -0.076887  -0.073886  0  3.959945  0
C  C62  1  0.07311003  0.63959901  0.17077058  1  0.065701  0  -0.077024  -0.074456  0  3.960987  0
C  C63  1  0.53129493  0.07307183  0.17074440  1  0.034166  0  -0.077237  -0.074412  0  3.958823  0
C  C64  1  0.09782231  0.53127110  0.17072882  1  0.03651  0  -0.076956  -0.074798  0  3.960118  0
C  C65  1  0.36039533  0.92687597  0.82922915  1  0.065359  0  -0.076916  -0.074551  0  3.961223  0
C  C66  1  0.27548484  0.77553627  0.55100046  1  0.040075  0  0.004692  0.001816  0  3.918193  0
C  C67  1  0.92691869  0.46871113  0.82925604  1  0.034577  0  -0.077237  -0.074543  0  3.958678  0
C  C68  1  0.46873059  0.90219103  0.82927120  1  0.036846  0  -0.076957  -0.074665  0  3.959747  0
C  C69  1  0.90216635  0.36039653  0.82922466  1  -0.027691  0  -0.076952  -0.074148  0  3.96055  0
C  C70  1  0.77563418  0.27562743  0.55099763  1  0.044773  0  0.004653  0.001608  0  3.914944  0
C  C71  1  0.57288523  0.07289443  0.14562494  1  0.026647  0  -0.016082  -0.034419  0  3.959033  0
C  C72  1  0.07292066  0.57288295  0.14561359  1  -0.066541  0  -0.015848  -0.033386  0  3.958249  0
C  C73  1  0.42711227  0.92707872  0.85438592  1  -0.066561  0  -0.015951  -0.033533  0  3.958224  0
C  C74  1  0.92710680  0.42711485  0.85437411  1  0.026845  0  -0.016094  -0.034209  0  3.958851  0
C  C75  1  0.61766889  0.49994197  0.99993531  1  1.540635  0  0.221224  0.602497  0  4.151626  0
C  C76  1  0.72436869  0.22436285  0.44900096  1  0.045445  0  0.004687  0.001799  0  3.91474  0
C  C77  1  0.49997342  0.61767421  0.99997372  1  1.559467  0  0.221253  0.601947  0  4.151258  0
C  C78  1  0.38232828  0.50002896  0.00002939  1  1.559201  0  0.221327  0.602007  0  4.151298  0
C  C79  1  0.50006052  0.38233217  0.00006631  1  1.540387  0  0.221252  0.602606  0  4.151547  0
C  C80  1  0.52406216  0.26661439  0.96933875  1  -0.007899  0  -0.08085  -0.095906  0  3.97437  0
C  C81  1  0.70270595  0.52411653  0.96936456  1  -0.058962  0  -0.080498  -0.095351  0  3.972879  0
C  C82  1  0.44522098  0.70272571  0.96935125  1  -0.022147  0  -0.080377  -0.096244  0  3.97264  0
C  C83  1  0.26666770  0.44530475  0.96935072  1  0.012588  0  -0.08019  -0.096392  0  3.972673  0
C  C84  1  0.47588984  0.29729587  0.03063554  1  -0.058588  0  -0.080421  -0.095346  0  3.972743  0
C  C85  1  0.29727485  0.55478037  0.03065006  1  -0.022077  0  -0.080415  -0.096306  0  3.97248  0
C  C86  1  0.55469561  0.73333328  0.03064967  1  0.012944  0  -0.080239  -0.096435  0  3.972442  0
C  C87  1  0.73338418  0.47593973  0.03065872  1  -0.00777  0  -0.080997  -0.096159  0  3.97455  0
C  C88  1  0.52571130  0.20341884  0.97030637  1  -0.03061  0  -0.079656  -0.093923  0  3.972683  0
C  C89  1  0.76689518  0.52592697  0.97039541  1  0.032295  0  -0.080296  -0.095171  0  3.969882  0
C  C90  1  0.44452455  0.76691503  0.97037875  1  -0.040277  0  -0.08  -0.093704  0  3.969884  0
C  C91  1  0.20349053  0.44452050  0.97034596  1  -0.020892  0  -0.080192  -0.093164  0  3.971379  0
C  C92  1  0.47407904  0.23310531  0.02960373  1  0.031422  0  -0.080457  -0.095443  0  3.970003  0
C  C93  1  0.23308456  0.55547549  0.02962196  1  -0.040227  0  -0.080046  -0.093823  0  3.970002  0
C  C94  1  0.55547875  0.79650966  0.02965355  1  -0.020866  0  -0.080167  -0.093098  0  3.971499  0
C  C95  1  0.79657878  0.47429044  0.02969097  1  -0.030131  0  -0.079611  -0.093695  0  3.97262  0
C  C96  1  0.49983982  0.18622508  0.99992434  1  -0.066593  0  -0.011717  -0.016893  0  3.957017  0
C  C97  1  0.65002507  0.30732689  0.44740290  1  -0.081917  0  -0.08089  -0.121964  0  3.969399  0
C  C98  1  0.81377448  0.50016597  0.00007473  1  -0.067531  0  -0.011737  -0.017131  0  3.957113  0
C  C99  1  0.50002615  0.81374729  0.00002501  1  -0.070797  0  -0.012156  -0.019086  0  3.958928  0
C  C100  1  0.18625348  0.49997503  0.99997558  1  -0.07078  0  -0.012205  -0.019163  0  3.958982  0
C  C101  1  0.50003247  0.31401262  0.00001922  1  -0.025262  0  -0.011682  -0.020327  0  3.96217  0
C  C102  1  0.68598767  0.49997152  0.99997837  1  -0.025562  0  -0.011625  -0.020294  0  3.962502  0
C  C103  1  0.49995137  0.68597869  0.99999026  1  -0.047026  0  -0.012167  -0.017872  0  3.958762  0
C  C104  1  0.30734316  0.79732110  0.44740565  1  -0.082478  0  -0.080463  -0.120762  0  3.969507  0
C  C105  1  0.31402123  0.50004723  0.00000944  1  -0.047027  0  -0.012118  -0.017744  0  3.958704  0
C  C106  1  0.54621170  0.04619415  0.09230488  1  1.524036  0  0.221024  0.599834  0  4.153477  0
C  C107  1  0.04620837  0.54621053  0.09229653  1  1.522287  0  0.220676  0.599921  0  4.152648  0
C  C108  1  0.45378631  0.95379267  0.90770303  1  1.522175  0  0.220636  0.599818  0  4.152426  0
C  C109  1  0.95380806  0.45378964  0.90769439  1  1.52391  0  0.221131  0.600037  0  4.153077  0
C  C110  1  0.79732420  0.14000419  0.44741168  1  0.014104  0  -0.080718  -0.121738  0  3.969245  0
C  C111  1  0.49983527  0.11795291  0.99993780  1  1.555412  0  0.221076  0.600899  0  4.153084  0
C  C112  1  0.88204781  0.50017109  0.00006185  1  1.555055  0  0.221164  0.601152  0  4.152994  0
C  C113  1  0.50005228  0.88203446  0.00002830  1  1.547894  0  0.221702  0.60138  0  4.155076  0
C  C114  1  0.11796728  0.49994839  0.99997160  1  1.547925  0  0.221706  0.601473  0  4.155036  0
C  C115  1  0.12251689  0.62251396  0.24500311  1  0.324369  0  0.09573  0.202631  0  4.002428  0
C  C116  1  0.14008537  0.65003001  0.44739910  1  0.031414  0  -0.080959  -0.12222  0  3.968168  0
C  C117  1  0.69784121  0.27859130  0.47391908  1  0.043858  0  0.005793  0.04069  0  3.977198  0
C  C118  1  0.27861417  0.77603977  0.47392224  1  -0.015999  0  0.005474  0.040034  0  3.979039  0
C  C119  1  0.77598971  0.19522161  0.47392743  1  0.033876  0  0.005811  0.041478  0  3.97591  0
C  C120  1  0.19528075  0.69791473  0.47392723  1  0.053233  0  0.006197  0.042101  0  3.977172  0
C  C121  1  0.30207114  0.80473389  0.52607334  1  0.053887  0  0.006185  0.041921  0  3.977319  0
C  C122  1  0.72140002  0.30214998  0.52608093  1  -0.030713  0  0.00592  0.040991  0  3.977142  0
C  C123  1  0.22397873  0.72137086  0.52607844  1  -0.016551  0  0.005583  0.040031  0  3.978705  0
C  C124  1  0.80478433  0.22401839  0.52606995  1  -0.032062  0  0.006023  0.041593  0  3.976035  0
C  C125  1  0.34994326  0.85993899  0.55260239  1  0.031254  0  -0.080771  -0.122145  0  3.968323  0
C  C126  1  0.69265598  0.34995211  0.55259755  1  -0.082003  0  -0.081083  -0.122165  0  3.969132  0
C  C127  1  0.20271118  0.69262751  0.55259475  1  -0.083051  0  -0.080608  -0.120784  0  3.969125  0
C  C128  1  0.86001098  0.20269382  0.55258326  1  0.014735  0  -0.080786  -0.121674  0  3.969554  0
C  C129  1  0.37748447  0.87748507  0.75499725  1  0.323873  0  0.095809  0.202798  0  4.002498  0
C  C130  1  0.62667100  0.28335346  0.39753659  1  0.041181  0  -0.067065  -0.064492  0  3.968399  0
C  C131  1  0.28340621  0.77073212  0.39754646  1  0.060644  0  -0.0669  -0.065404  0  3.969236  0
C  C132  1  0.77073511  0.11402693  0.39754776  1  -0.092071  0  -0.066975  -0.065551  0  3.968592  0
C  C133  1  0.11409808  0.62673575  0.39753374  1  -0.074199  0  -0.066976  -0.06554  0  3.9669  0
C  C134  1  0.37323834  0.88592127  0.60246599  1  -0.074116  0  -0.067222  -0.065521  0  3.967036  0
C  C135  1  0.71662799  0.37330540  0.60246433  1  0.038321  0  -0.066946  -0.064415  0  3.968451  0
C  C136  1  0.22929473  0.71656910  0.60245281  1  0.083488  0  -0.067206  -0.065772  0  3.970027  0
C  C137  1  0.87743566  0.37742253  0.75498827  1  0.310707  0  0.095856  0.202945  0  4.002195  0
C  C138  1  0.88598820  0.22928443  0.60244936  1  -0.055035  0  -0.06699  -0.065605  0  3.968638  0
C  C139  1  0.64993899  0.22904525  0.37259313  1  -0.002163  0  -0.012076  -0.074883  0  4.00457  0
C  C140  1  0.22915788  0.72246212  0.37260007  1  -0.031136  0  -0.011579  -0.071883  0  4.003507  0
C  C141  1  0.72236717  0.14324888  0.37259634  1  0.03139  0  -0.012134  -0.072883  0  4.002231  0
C  C142  1  0.14334549  0.65007246  0.37257672  1  0.019487  0  -0.011416  -0.07142  0  4.001666  0
C  C143  1  0.34991662  0.85666435  0.62742501  1  0.019096  0  -0.011367  -0.071398  0  4.001566  0
C  C144  1  0.77094140  0.35004509  0.62740681  1  0.000168  0  -0.012139  -0.07507  0  4.005104  0
C  C145  1  0.27754922  0.77083331  0.62739980  1  -0.053752  0  -0.011283  -0.071493  0  4.003016  0
C  C146  1  0.85675632  0.27764111  0.62740100  1  -0.004728  0  -0.012225  -0.073074  0  4.002422  0
C  C147  1  0.69876263  0.19876664  0.39791041  1  -0.090473  0  0.004781  0.037248  0  4.004474  0
C  C148  1  0.19889860  0.69893996  0.39790781  1  -0.06055  0  0.00396  0.03472  0  4.007145  0
C  C149  1  0.30106122  0.80110055  0.60209277  1  -0.060444  0  0.003944  0.034659  0  4.007095  0
C  C150  1  0.80122956  0.30123388  0.60208880  1  -0.091164  0  0.004747  0.037388  0  4.004472  0
C  C151  1  0.62373524  0.20449630  0.31979298  1  1.3108  0  0.240787  0.431898  0  4.104164  0
C  C152  1  0.20451637  0.69598988  0.31980395  1  1.314356  0  0.240982  0.432182  0  4.104042  0
C  C153  1  0.69601429  0.11518365  0.31979093  1  1.309008  0  0.240052  0.43067  0  4.102673  0
C  C154  1  0.11518562  0.62376551  0.31977300  1  1.297157  0  0.241495  0.43249  0  4.102779  0
C  C155  1  0.37621624  0.88482828  0.68022825  1  1.297273  0  0.241305  0.432123  0  4.103235  0
C  C156  1  0.79548963  0.37624946  0.68020640  1  1.311299  0  0.241209  0.432353  0  4.104233  0
C  C157  1  0.30402240  0.79547226  0.68019631  1  1.315046  0  0.241365  0.432571  0  4.103756  0
C  C158  1  0.88482563  0.30400102  0.68020650  1  1.311375  0  0.240097  0.430699  0  4.102942  0
C  C159  1  0.66448704  0.12278778  0.22045409  1  0.028213  0  -0.081519  -0.150405  0  3.974984  0
C  C160  1  0.09779250  0.66444804  0.22044665  1  -0.042138  0  -0.08159  -0.150798  0  3.974865  0
C  C161  1  0.55609051  0.09778165  0.22042207  1  -0.028503  0  -0.081619  -0.150968  0  3.974632  0
N  N162  1  0.64827600  0.14823382  0.29648383  1  -1.193561  0  -0.229706  -0.208097  0  3.559411  0
N  N163  1  0.14819690  0.64822578  0.29647387  1  -1.203317  0  -0.229931  -0.208856  0  3.560175  0
N  N164  1  0.35177187  0.85180322  0.70352583  1  -1.203802  0  -0.229936  -0.208921  0  3.560498  0
N  N165  1  0.85176452  0.35172474  0.70351459  1  -1.193663  0  -0.229818  -0.208253  0  3.559355  0
O  O166  1  0.61019610  0.50319307  0.03859318  1  -1.13981  0  -0.31711  -0.554161  0  2.270867  0
O  O167  1  0.53542384  0.61019500  0.03862829  1  -1.154485  0  -0.316694  -0.554011  0  2.270463  0
O  O168  1  0.42845917  0.53544500  0.03868862  1  -1.160483  0  -0.317024  -0.554605  0  2.271495  0
O  O169  1  0.50331480  0.42846478  0.03872976  1  -1.156101  0  -0.316706  -0.554047  0  2.271151  0
O  O170  1  0.38980613  0.46457463  0.96137086  1  -1.154086  0  -0.316765  -0.554112  0  2.27024  0
O  O171  1  0.46455389  0.57153996  0.96131121  1  -1.160343  0  -0.316978  -0.55457  0  2.271188  0
O  O172  1  0.57153548  0.49668535  0.96126845  1  -1.156103  0  -0.316789  -0.554036  0  2.27093  0
O  O173  1  0.49680953  0.38980594  0.96140567  1  -1.139769  0  -0.317175  -0.554237  0  2.270693  0
O  O174  1  0.58620362  0.04850636  0.07129752  1  -1.152459  0  -0.317062  -0.554244  0  2.27847  0
O  O175  1  0.02285486  0.58620477  0.07130038  1  -1.151833  0  -0.317055  -0.555018  0  2.278744  0
O  O176  1  0.48521037  0.02285808  0.07131134  1  -1.159147  0  -0.317705  -0.555685  0  2.27921  0
O  O177  1  0.04851565  0.48518962  0.07129674  1  -1.157433  0  -0.3176  -0.555544  0  2.278848  0
O  O178  1  0.41379331  0.97714630  0.92869980  1  -1.151904  0  -0.317011  -0.554887  0  2.27858  0
O  O179  1  0.97714492  0.51479009  0.92868875  1  -1.159216  0  -0.317742  -0.555787  0  2.279233  0
O  O180  1  0.51480789  0.95148603  0.92870227  1  -1.157199  0  -0.317599  -0.555493  0  2.278727  0
O  O181  1  0.95149549  0.41379602  0.92870108  1  -1.152204  0  -0.317138  -0.554424  0  2.27827  0
O  O182  1  0.54475005  0.08581917  0.98919649  1  -1.151335  0  -0.316098  -0.552876  0  2.275136  0
O  O183  1  0.90341292  0.54503551  0.98927738  1  -1.150787  0  -0.316346  -0.553146  0  2.273116  0
O  O184  1  0.44438611  0.90341113  0.98925553  1  -1.145664  0  -0.316278  -0.552963  0  2.27505  0
O  O185  1  0.08582956  0.44429908  0.98920987  1  -1.149047  0  -0.31642  -0.552614  0  2.274716  0
O  O186  1  0.45497103  0.09658850  0.01072243  1  -1.151057  0  -0.316262  -0.553027  0  2.273129  0
O  O187  1  0.09658932  0.55561438  0.01074569  1  -1.145687  0  -0.316289  -0.553033  0  2.275004  0
O  O188  1  0.55570128  0.91417089  0.01078924  1  -1.149106  0  -0.316448  -0.552623  0  2.274772  0
O  O189  1  0.91418160  0.45525699  0.01080382  1  -1.151196  0  -0.316156  -0.553014  0  2.275211  0
O  O190  1  0.58292401  0.23102427  0.29681290  1  -1.10422  0  -0.281209  -0.440206  0  2.069497  0
O  O191  1  0.23100770  0.71385552  0.29682128  1  -1.097761  0  -0.280984  -0.440249  0  2.070301  0
O  O192  1  0.71398046  0.06578829  0.29680308  1  -1.106515  0  -0.280375  -0.439462  0  2.068622  0
O  O193  1  0.06571784  0.58288535  0.29677564  1  -1.095442  0  -0.281682  -0.440986  0  2.069109  0
O  O194  1  0.41708319  0.93430501  0.70322419  1  -1.09559  0  -0.281522  -0.4407  0  2.069555  0
O  O195  1  0.76895393  0.41704726  0.70318620  1  -1.104542  0  -0.281457  -0.44038  0  2.069908  0
O  O196  1  0.28616553  0.76897718  0.70317864  1  -1.097872  0  -0.28133  -0.440555  0  2.070269  0
O  O197  1  0.93423243  0.28604913  0.70319413  1  -1.108957  0  -0.280342  -0.439458  0  2.068865  0
