# generated using pymatgen
data_DyH10C11NO7
_symmetry_space_group_name_H-M   'P 1'
_cell_length_a   8.30557929
_cell_length_b   8.94887162
_cell_length_c   10.50549058
_cell_angle_alpha   105.26760250
_cell_angle_beta   100.83969176
_cell_angle_gamma   95.35667401
_symmetry_Int_Tables_number   1
_chemical_formula_structural   DyH10C11NO7
_chemical_formula_sum   'Dy2 H20 C22 N2 O14'
_cell_volume   731.36806686
_cell_formula_units_Z   2
loop_
 _symmetry_equiv_pos_site_id
 _symmetry_equiv_pos_as_xyz
  1  'x, y, z'
loop_
 _atom_site_type_symbol
 _atom_site_label
 _atom_site_symmetry_multiplicity
 _atom_site_fract_x
 _atom_site_fract_y
 _atom_site_fract_z
 _atom_site_occupancy
 _atom_site_hle17_bader_spin_density
 _atom_site_hle17_ddec_charge
 _atom_site_hle17_ddec_spin_density
 _atom_site_hle17_ddec_sum_bond_order
 _atom_site_hle17_magmom
 _atom_site_hse06_10hf_bader_spin_density
 _atom_site_hse06_10hf_ddec_charge
 _atom_site_hse06_10hf_ddec_spin_density
 _atom_site_hse06_10hf_ddec_sum_bond_order
 _atom_site_hse06_10hf_magmom
 _atom_site_hse06_bader_spin_density
 _atom_site_hse06_ddec_charge
 _atom_site_hse06_ddec_spin_density
 _atom_site_hse06_ddec_sum_bond_order
 _atom_site_hse06_magmom
 _atom_site_pbe_bader_spin_density
 _atom_site_pbe_cm5_charge
 _atom_site_pbe_ddec_charge
 _atom_site_pbe_ddec_spin_density
 _atom_site_pbe_ddec_sum_bond_order
 _atom_site_pbe_magmom
Dy  Dy0  1  0.41727046  0.29402127  0.02938654  1  0  2.264934  0  1.667081  0  0  2.125668  0  2.138027  0  0  2.248412  0  1.958452  0  0  1.540906  2.08839  0  2.172108  0
Dy  Dy1  1  0.58272839  0.70597933  0.97061373  1  0  2.264923  0  1.667198  0  0  2.125621  0  2.138209  0  0  2.248405  0  1.958577  0  0  1.540878  2.088382  0  2.172206  0
H  H2  1  0.74681487  0.18661188  0.37799809  1  0  0.098841  0  0.960043  0  0  0.112676  0  1.014548  0  0  0.115932  0  1.013342  0  0  0.104208  0.110453  0  1.015338  0
H  H3  1  0.25318362  0.81338638  0.62200064  1  0  0.098825  0  0.960083  0  0  0.112662  0  1.014588  0  0  0.115912  0  1.013385  0  0  0.104202  0.110441  0  1.015377  0
H  H4  1  0.65239637  0.29063412  0.58629187  1  0  0.087371  0  0.945822  0  0  0.101052  0  1.001621  0  0  0.104631  0  0.998014  0  0  0.101067  0.098566  0  1.003939  0
H  H5  1  0.34759947  0.70936297  0.41370619  1  0  0.087393  0  0.94586  0  0  0.101073  0  1.001653  0  0  0.104652  0  0.998049  0  0  0.101075  0.098588  0  1.003966  0
H  H6  1  0.76095102  0.75996302  0.56246746  1  0  0.095032  0  0.932632  0  0  0.108081  0  0.987728  0  0  0.111807  0  0.984078  0  0  0.10445  0.105436  0  0.990302  0
H  H7  1  0.23904867  0.24003524  0.43753337  1  0  0.095013  0  0.932615  0  0  0.108056  0  0.987721  0  0  0.111794  0  0.984058  0  0  0.104448  0.105429  0  0.990277  0
H  H8  1  0.85806036  0.66084024  0.35394440  1  0  0.099822  0  0.959933  0  0  0.11364  0  1.014665  0  0  0.116774  0  1.013571  0  0  0.10566  0.111507  0  1.015597  0
H  H9  1  0.14194177  0.33915802  0.64605681  1  0  0.099792  0  0.959923  0  0  0.113617  0  1.01466  0  0  0.116746  0  1.01357  0  0  0.105642  0.111489  0  1.015589  0
H  H10  1  0.94231218  0.15038365  0.27822019  1  0  0.104101  0  0.920116  0  0  0.117282  0  0.981687  0  0  0.11926  0  0.979615  0  0  0.118375  0.116102  0  0.982758  0
H  H11  1  0.05768896  0.84961578  0.72177827  1  0  0.104117  0  0.920087  0  0  0.117303  0  0.981657  0  0  0.119279  0  0.979586  0  0  0.118387  0.116125  0  0.982729  0
H  H12  1  0.99560388  0.18400312  0.13375396  1  0  0.129594  0  0.902499  0  0  0.146486  0  0.955156  0  0  0.148757  0  0.953589  0  0  0.133232  0.144861  0  0.956267  0
H  H13  1  0.00439361  0.81599631  0.86624202  1  0  0.129586  0  0.902494  0  0  0.146499  0  0.955121  0  0  0.148769  0  0.953553  0  0  0.133241  0.144878  0  0.95623  0
H  H14  1  0.99797479  0.39997503  0.09001682  1  0  0.132505  0  0.945583  0  0  0.146477  0  1.001896  0  0  0.149456  0  1.000005  0  0  0.128602  0.144501  0  1.002995  0
H  H15  1  0.00203036  0.60002674  0.90998566  1  0  0.132569  0  0.945562  0  0  0.14648  0  1.001924  0  0  0.149459  0  1.000031  0  0  0.128592  0.144508  0  1.003014  0
H  H16  1  0.03391136  0.56047855  0.23572827  1  0  0.102959  0  0.927121  0  0  0.11229  0  0.993939  0  0  0.113977  0  0.992492  0  0  0.113532  0.110904  0  0.99459  0
H  H17  1  0.96609381  0.43952322  0.76427325  1  0  0.102937  0  0.927148  0  0  0.112282  0  0.993922  0  0  0.113969  0  0.992475  0  0  0.113526  0.1109  0  0.99457  0
H  H18  1  0.55007649  0.14890283  0.79132475  1  0  0.441434  0  0.805119  0  0  0.430499  0  0.84464  0  0  0.438429  0  0.833616  0  0  0.340023  0.425098  0  0.852366  0
H  H19  1  0.44991565  0.85109427  0.20867463  1  0  0.441394  0  0.80526  0  0  0.430447  0  0.844731  0  0  0.438377  0  0.833709  0  0  0.340024  0.425043  0  0.852463  0
H  H20  1  0.53399480  0.32346834  0.78383517  1  0  0.458222  0  0.835697  0  0  0.424754  0  0.902925  0  0  0.436989  0  0.885076  0  0  0.303184  0.41636  0  0.915302  0
H  H21  1  0.46600345  0.67652875  0.21616613  1  0  0.458201  0  0.835726  0  0  0.42473  0  0.902961  0  0  0.436966  0  0.88511  0  0  0.303149  0.416336  0  0.915334  0
C  C22  1  0.81809832  0.41537969  0.35118394  1  0  0.225609  0  3.782571  0  0  0.209842  0  4.038323  0  0  0.223104  0  4.058457  0  0  0.115487  0.200981  0  4.024808  0
C  C23  1  0.18190401  0.58461974  0.64881662  1  0  0.225601  0  3.782616  0  0  0.209812  0  4.038409  0  0  0.223079  0  4.058543  0  0  0.115545  0.200942  0  4.024911  0
C  C24  1  0.75443238  0.31281092  0.41837297  1  0  -0.191771  0  3.753362  0  0  -0.213032  0  4.017062  0  0  -0.221876  0  4.038014  0  0  -0.105763  -0.207157  0  4.002449  0
C  C25  1  0.24556752  0.68718851  0.58162625  1  0  -0.191701  0  3.753351  0  0  -0.212956  0  4.017058  0  0  -0.221793  0  4.037997  0  0  -0.105756  -0.207087  0  4.00245  0
C  C26  1  0.70043715  0.37142368  0.53603026  1  0  -0.035777  0  3.772584  0  0  -0.061637  0  4.027246  0  0  -0.056044  0  4.044339  0  0  -0.082333  -0.064488  0  4.014379  0
C  C27  1  0.29956134  0.62857458  0.46396848  1  0  -0.035826  0  3.772723  0  0  -0.061684  0  4.027379  0  0  -0.056096  0  4.044475  0  0  -0.082352  -0.064534  0  4.014502  0
C  C28  1  0.70469532  0.53312099  0.59165370  1  0  -0.11527  0  3.810914  0  0  -0.095922  0  4.05326  0  0  -0.108197  0  4.077476  0  0  -0.041588  -0.087124  0  4.035956  0
C  C29  1  0.29530332  0.46687845  0.40834723  1  0  -0.115379  0  3.810942  0  0  -0.096023  0  4.053267  0  0  -0.108294  0  4.077493  0  0  -0.041551  -0.087212  0  4.035953  0
C  C30  1  0.76042285  0.63452475  0.52182737  1  0  -0.023611  0  3.740908  0  0  -0.050895  0  3.996002  0  0  -0.045032  0  4.012465  0  0  -0.077868  -0.05481  0  3.984478  0
C  C31  1  0.23957804  0.36547351  0.47817460  1  0  -0.023586  0  3.74082  0  0  -0.050862  0  3.995931  0  0  -0.045013  0  4.012394  0  0  -0.07789  -0.054793  0  3.984409  0
C  C32  1  0.81501527  0.57800641  0.40417693  1  0  -0.177905  0  3.722312  0  0  -0.197582  0  3.983528  0  0  -0.205919  0  4.003785  0  0  -0.102411  -0.192033  0  3.969977  0
C  C33  1  0.18498685  0.42199185  0.59582523  1  0  -0.177848  0  3.722311  0  0  -0.197532  0  3.983537  0  0  -0.205872  0  4.003806  0  0  -0.102403  -0.191985  0  3.970003  0
C  C34  1  0.65646321  0.59426282  0.72031069  1  0  0.649437  0  3.921837  0  0  0.60351  0  4.216866  0  0  0.636843  0  4.218458  0  0  0.1896  0.57925  0  4.221902  0
C  C35  1  0.34353244  0.40573310  0.27968803  1  0  0.649581  0  3.921805  0  0  0.603661  0  4.216831  0  0  0.636993  0  4.218419  0  0  0.18965  0.579404  0  4.221857  0
C  C36  1  0.89874325  0.19621129  0.19257998  1  0  -0.169024  0  3.655323  0  0  -0.235102  0  3.909744  0  0  -0.234454  0  3.914697  0  0  -0.051741  -0.235147  0  3.904702  0
C  C37  1  0.10125789  0.80378814  0.80741848  1  0  -0.169102  0  3.655312  0  0  -0.235181  0  3.909762  0  0  -0.234523  0  3.914708  0  0  -0.051754  -0.235231  0  3.90472  0
C  C38  1  0.74103827  0.08896996  0.10324795  1  0  0.772665  0  3.806684  0  0  0.733891  0  4.09866  0  0  0.769133  0  4.089825  0  0  0.244425  0.710627  0  4.105671  0
C  C39  1  0.25895412  0.91104354  0.89675131  1  0  0.772604  0  3.806879  0  0  0.73379  0  4.098924  0  0  0.769021  0  4.090106  0  0  0.244373  0.710524  0  4.10594  0
C  C40  1  0.93823260  0.46433061  0.16818001  1  0  -0.168808  0  3.667575  0  0  -0.22604  0  3.912656  0  0  -0.226244  0  3.919114  0  0  -0.053806  -0.225224  0  3.906912  0
C  C41  1  0.06177030  0.53567233  0.83182142  1  0  -0.169012  0  3.667675  0  0  -0.226156  0  3.912708  0  0  -0.226354  0  3.919158  0  0  -0.053824  -0.225335  0  3.906947  0
C  C42  1  0.80709010  0.53895609  0.09538239  1  0  0.717307  0  3.822457  0  0  0.673152  0  4.121172  0  0  0.706566  0  4.119658  0  0  0.217051  0.649902  0  4.128475  0
C  C43  1  0.19291258  0.46104569  0.90462065  1  0  0.717401  0  3.822307  0  0  0.67318  0  4.121086  0  0  0.706593  0  4.119568  0  0  0.21704  0.649926  0  4.128395  0
N  N44  1  0.88178855  0.35960665  0.23925784  1  0  -0.130587  0  3.495252  0  0  -0.047921  0  3.728126  0  0  -0.067031  0  3.753953  0  0  -0.282976  -0.034385  0  3.709691  0
N  N45  1  0.11821522  0.64039395  0.76074225  1  0  -0.130419  0  3.495314  0  0  -0.04776  0  3.728165  0  0  -0.066879  0  3.754005  0  0  -0.282962  -0.034212  0  3.709724  0
O  O46  1  0.61727671  0.15123481  0.06447397  1  0  -0.779284  0  2.10155  0  0  -0.731634  0  2.367323  0  0  -0.769679  0  2.348925  0  0  -0.431704  -0.713649  0  2.375688  0
O  O47  1  0.38272697  0.84876579  0.93553182  1  0  -0.779315  0  2.101229  0  0  -0.731647  0  2.367024  0  0  -0.769702  0  2.348629  0  0  -0.43171  -0.713664  0  2.375391  0
O  O48  1  0.74791027  0.94378046  0.07322170  1  0  -0.725621  0  2.00875  0  0  -0.678297  0  2.256741  0  0  -0.714643  0  2.239338  0  0  -0.404009  -0.660376  0  2.264858  0
O  O49  1  0.25208626  0.05621312  0.92677378  1  0  -0.725502  0  2.0093  0  0  -0.678178  0  2.257309  0  0  -0.714507  0  2.239913  0  0  -0.403945  -0.660254  0  2.265435  0
O  O50  1  0.65148799  0.48790542  0.07135478  1  0  -0.821433  0  2.157608  0  0  -0.765174  0  2.424231  0  0  -0.80969  0  2.414721  0  0  -0.432138  -0.746196  0  2.430834  0
O  O51  1  0.34851811  0.51210221  0.92864819  1  0  -0.821427  0  2.157407  0  0  -0.765133  0  2.424032  0  0  -0.809651  0  2.41452  0  0  -0.432138  -0.746174  0  2.430674  0
O  O52  1  0.85645205  0.65535660  0.05793636  1  0  -0.674  0  1.95373  0  0  -0.6313  0  2.189278  0  0  -0.662483  0  2.177443  0  0  -0.370693  -0.615049  0  2.196764  0
O  O53  1  0.14355248  0.34464869  0.94206394  1  0  -0.673989  0  1.953753  0  0  -0.631298  0  2.189334  0  0  -0.662474  0  2.177498  0  0  -0.370688  -0.615036  0  2.196822  0
O  O54  1  0.60911102  0.49919035  0.78542845  1  0  -0.756645  0  2.071994  0  0  -0.698453  0  2.315162  0  0  -0.733341  0  2.306773  0  0  -0.398399  -0.679485  0  2.321569  0
O  O55  1  0.39088781  0.50081026  0.21457276  1  0  -0.756721  0  2.071914  0  0  -0.698528  0  2.315059  0  0  -0.733409  0  2.306663  0  0  -0.398411  -0.67955  0  2.321463  0
O  O56  1  0.66488209  0.74175366  0.77523328  1  0  -0.711545  0  1.910403  0  0  -0.670118  0  2.144357  0  0  -0.702418  0  2.133438  0  0  -0.399861  -0.654139  0  2.151295  0
O  O57  1  0.33511028  0.25824461  0.22476354  1  0  -0.711556  0  1.910484  0  0  -0.670132  0  2.144422  0  0  -0.702427  0  2.133502  0  0  -0.399894  -0.65415  0  2.151366  0
O  O58  1  0.48140422  0.23117330  0.80734303  1  0  -0.898585  0  1.793591  0  0  -0.856204  0  1.967062  0  0  -0.883054  0  1.929886  0  0  -0.624507  -0.84372  0  1.987937  0
O  O59  1  0.51859359  0.76882848  0.19265733  1  0  -0.898519  0  1.793724  0  0  -0.856128  0  1.967176  0  0  -0.882986  0  1.929994  0  0  -0.624496  -0.843656  0  1.98805  0
