# generated using pymatgen
data_MgH7C11SN2O3
_symmetry_space_group_name_H-M   'P 1'
_cell_length_a   6.80267332
_cell_length_b   35.91887537
_cell_length_c   35.92346996
_cell_angle_alpha   119.62097475
_cell_angle_beta   93.58012732
_cell_angle_gamma   93.63295108
_symmetry_Int_Tables_number   1
_chemical_formula_structural   MgH7C11SN2O3
_chemical_formula_sum   'Mg6 H42 C66 S6 N12 O18'
_cell_volume   7570.63705615
_cell_formula_units_Z   6
loop_
 _symmetry_equiv_pos_site_id
 _symmetry_equiv_pos_as_xyz
  1  'x, y, z'
loop_
 _atom_site_type_symbol
 _atom_site_label
 _atom_site_symmetry_multiplicity
 _atom_site_fract_x
 _atom_site_fract_y
 _atom_site_fract_z
 _atom_site_occupancy
 _atom_site_pbe_bader_charge
 _atom_site_pbe_bader_spin_density
 _atom_site_pbe_cm5_charge
 _atom_site_pbe_ddec_charge
 _atom_site_pbe_ddec_spin_density
 _atom_site_pbe_ddec_sum_bond_order
 _atom_site_pbe_magmom
Mg  Mg0  1  0.99595227  0.69568693  0.33268014  1  1.683364  0  0.908587  1.409566  0  1.3277  0
Mg  Mg1  1  0.30017377  0.63694204  0.30431951  1  1.681052  0  0.908423  1.409243  0  1.328137  0
Mg  Mg2  1  0.66301891  0.66734132  0.36304195  1  1.683638  0  0.90853  1.409128  0  1.328339  0
Mg  Mg3  1  0.30218179  0.30600498  0.67023742  1  1.682934  0  0.908831  1.40897  0  1.329181  0
Mg  Mg4  1  0.99622175  0.36435782  0.69406446  1  1.68228  0  0.908916  1.408982  0  1.328918  0
Mg  Mg5  1  0.63209794  0.32981021  0.63571074  1  1.682929  0  0.908684  1.408856  0  1.329024  0
H  H6  1  0.44447375  0.60270061  0.07295707  1  0.471455  0  0.316359  0.279203  0  0.935311  0
H  H7  1  0.84158085  0.47035492  0.39728444  1  0.457442  0  0.316673  0.279155  0  0.935998  0
H  H8  1  0.37176886  0.92679144  0.52954733  1  0.465094  0  0.316493  0.279223  0  0.936257  0
H  H9  1  0.92646809  0.56913574  0.04133965  1  0.085671  0  0.11253  0.121437  0  0.984029  0
H  H10  1  0.35731721  0.47217519  0.43096126  1  0.082399  0  0.112398  0.121591  0  0.984393  0
H  H11  1  0.88623551  0.95876486  0.52796996  1  0.075508  0  0.11248  0.121475  0  0.983809  0
H  H12  1  0.78375414  0.50123099  0.97635915  1  0.051085  0  0.103449  0.108127  0  1.007182  0
H  H13  1  0.28267652  0.47499188  0.49883160  1  0.062114  0  0.103386  0.108235  0  1.007084  0
H  H14  1  0.80865816  0.02373988  0.52500055  1  0.045366  0  0.103487  0.108367  0  1.0072  0
H  H15  1  0.84123464  0.42192722  0.92949528  1  0.465927  0  0.316974  0.279963  0  0.9347  0
H  H16  1  0.41949203  0.50740037  0.57805261  1  0.465486  0  0.317031  0.280334  0  0.934419  0
H  H17  1  0.91282919  0.07041860  0.49241959  1  0.477684  0  0.316856  0.279648  0  0.935335  0
H  H18  1  0.25652541  0.45894025  0.90433176  1  0.42451  0  0.310544  0.254485  0  0.97379  0
H  H19  1  0.79804475  0.44529969  0.54105751  1  0.449344  0  0.310545  0.254361  0  0.973749  0
H  H20  1  0.35320251  0.09569927  0.55454197  1  0.455978  0  0.310468  0.25379  0  0.974453  0
H  H21  1  0.04557281  0.37731862  0.79592261  1  0.135861  0  0.100663  0.137076  0  1.044471  0
H  H22  1  0.66882551  0.41869154  0.62277941  1  0.131978  0  0.101104  0.138093  0  1.044208  0
H  H23  1  0.25022546  0.20410788  0.58126299  1  0.130873  0  0.101256  0.138034  0  1.043738  0
H  H24  1  0.75965327  0.42839284  0.81641874  1  0.112258  0  0.104582  0.111225  0  0.997864  0
H  H25  1  0.33194897  0.38811980  0.57167860  1  0.102062  0  0.104606  0.111348  0  0.997375  0
H  H26  1  0.94366526  0.18361808  0.61185792  1  0.112123  0  0.104812  0.111567  0  0.998198  0
H  H27  1  0.57358745  0.45195005  0.88046619  1  0.052206  0  0.090792  0.096936  0  1.025058  0
H  H28  1  0.12240598  0.42855833  0.54808561  1  0.04312  0  0.090448  0.09633  0  1.025288  0
H  H29  1  0.69374188  0.11955317  0.57139018  1  0.045648  0  0.090473  0.096513  0  1.02509  0
H  H30  1  0.36042933  0.45550197  0.95989209  1  0.088017  0  0.111663  0.120304  0  0.988318  0
H  H31  1  0.90507041  0.50423541  0.54438126  1  0.082469  0  0.111567  0.120374  0  0.98847  0
H  H32  1  0.40168528  0.03999127  0.49555944  1  0.086605  0  0.111537  0.120278  0  0.989058  0
H  H33  1  0.50271294  0.52342444  0.02470606  1  0.070938  0  0.103873  0.10821  0  1.007191  0
H  H34  1  0.97933710  0.50126699  0.47652498  1  0.081789  0  0.103874  0.108366  0  1.007125  0
H  H35  1  0.47890730  0.97513643  0.49859033  1  0.064208  0  0.103742  0.108619  0  1.006549  0
H  H36  1  0.03224797  0.56200212  0.09512191  1  0.421932  0  0.308526  0.251225  0  0.981953  0
H  H37  1  0.46943651  0.53310653  0.43801366  1  0.455591  0  0.308714  0.250696  0  0.982486  0
H  H38  1  0.93719543  0.90489907  0.46683725  1  0.429184  0  0.308553  0.251024  0  0.982038  0
H  H39  1  0.25288012  0.63457223  0.20608660  1  0.125708  0  0.100931  0.137957  0  1.042546  0
H  H40  1  0.61779300  0.57159487  0.36548985  1  0.120339  0  0.101109  0.138438  0  1.04273  0
H  H41  1  0.04622117  0.79390353  0.42849086  1  0.129637  0  0.10101  0.138091  0  1.042878  0
H  H42  1  0.53710912  0.58341091  0.18252112  1  0.109978  0  0.10514  0.111412  0  0.997777  0
H  H43  1  0.95292835  0.59904077  0.41661351  1  0.093173  0  0.104899  0.111206  0  0.997852  0
H  H44  1  0.35434991  0.81756554  0.40089855  1  0.089353  0  0.105178  0.111852  0  0.99715  0
H  H45  1  0.72199692  0.56630878  0.11934375  1  0.00784  0  0.090532  0.096489  0  1.02481  0
H  H46  1  0.15483760  0.55301177  0.43372238  1  0.021847  0  0.090229  0.095863  0  1.024794  0
H  H47  1  0.60234323  0.88073528  0.44689434  1  0.042994  0  0.090403  0.096206  0  1.024291  0
C  C48  1  0.25672962  0.61008097  0.11618927  1  0.741904  0  0.221927  0.373331  0  4.158978  0
C  C49  1  0.64622563  0.50615637  0.38997781  1  0.70453  0  0.222386  0.372299  0  4.158636  0
C  C50  1  0.14018215  0.88374819  0.49383281  1  0.713404  0  0.221022  0.371994  0  4.160205  0
C  C51  1  0.22510234  0.55082539  0.03802644  1  0.347445  0  0.085961  0.222523  0  4.053373  0
C  C52  1  0.67422834  0.48719216  0.44919052  1  0.345737  0  0.086213  0.221097  0  4.053957  0
C  C53  1  0.18790118  0.96190298  0.51274466  1  0.337092  0  0.085944  0.221668  0  4.054813  0
C  C54  1  0.02102359  0.54380797  0.02421925  1  -0.00099  0  -0.096048  -0.175276  0  4.005073  0
C  C55  1  0.47726002  0.48035011  0.45624484  1  -0.024181  0  -0.095252  -0.174416  0  4.007317  0
C  C56  1  0.99784207  0.97581121  0.51965717  1  -0.029092  0  -0.095759  -0.175187  0  4.006697  0
C  C57  1  0.94113806  0.50581559  0.98747388  1  -0.059063  0  -0.09502  -0.164226  0  4.000006  0
C  C58  1  0.43544890  0.48151123  0.49420438  1  -0.060057  0  -0.096451  -0.165893  0  4.000352  0
C  C59  1  0.95482007  0.01257773  0.51843622  1  -0.003494  0  -0.095722  -0.164791  0  3.999977  0
C  C60  1  0.06138031  0.47371463  0.96316379  1  0.399668  0  0.086641  0.22364  0  4.05565  0
C  C61  1  0.58784705  0.48927837  0.52624464  1  0.417708  0  0.086979  0.225224  0  4.054509  0
C  C62  1  0.09938273  0.03680603  0.51054729  1  0.321606  0  0.086761  0.224056  0  4.055609  0
C  C63  1  0.03706982  0.41047018  0.88686895  1  0.697803  0  0.222065  0.371197  0  4.157593  0
C  C64  1  0.62699997  0.47633247  0.58953807  1  0.722597  0  0.222122  0.371382  0  4.159138  0
C  C65  1  0.15095728  0.11310602  0.52357457  1  0.694945  0  0.22182  0.371339  0  4.158806  0
C  C66  1  0.29658438  0.41560641  0.84210420  1  0.307336  0  0.096157  0.271091  0  4.051543  0
C  C67  1  0.88174975  0.42658069  0.58447933  1  0.349962  0  0.0959  0.271016  0  4.050145  0
C  C68  1  0.45513207  0.15791797  0.57340215  1  0.354907  0  0.095796  0.27119  0  4.050569  0
C  C69  1  0.20197054  0.38858234  0.80086269  1  0.055712  0  -0.112776  -0.306047  0  3.913131  0
C  C70  1  0.81399845  0.41237975  0.61152174  1  -0.042824  0  -0.11306  -0.307386  0  3.912762  0
C  C71  1  0.40165040  0.19916450  0.58759989  1  -0.02478  0  -0.114044  -0.30829  0  3.912456  0
C  C72  1  0.30564949  0.37503207  0.76440390  1  0.566787  0  0.09963  0.389748  0  4.073821  0
C  C73  1  0.93115003  0.38950010  0.62508206  1  0.627106  0  0.098923  0.389239  0  4.07176  0
C  C74  1  0.54165144  0.23563350  0.61051485  1  0.556895  0  0.100034  0.39074  0  4.07312  0
C  C75  1  0.51218983  0.38963789  0.77036823  1  -0.068539  0  -0.042988  -0.216179  0  3.951597  0
C  C76  1  0.12312049  0.38085658  0.61046263  1  -0.017076  0  -0.043483  -0.215217  0  3.952029  0
C  C77  1  0.74216867  0.22967453  0.61917542  1  0.004268  0  -0.043293  -0.216192  0  3.950477  0
C  C78  1  0.60254444  0.41769812  0.81255817  1  0.025582  0  -0.084814  -0.041936  0  4.035571  0
C  C79  1  0.18552127  0.39497183  0.58239437  1  -0.032524  0  -0.084753  -0.043011  0  4.036773  0
C  C80  1  0.79047013  0.18747836  0.60504057  1  -0.033074  0  -0.08424  -0.041555  0  4.034683  0
C  C81  1  0.49874276  0.43088333  0.84809578  1  -0.045352  0  -0.122748  -0.23682  0  4.048094  0
C  C82  1  0.06863037  0.41728257  0.56918165  1  -0.045031  0  -0.121623  -0.234638  0  4.047172  0
C  C83  1  0.65122523  0.15193430  0.58268744  1  -0.019905  0  -0.122265  -0.236283  0  4.0479  0
C  C84  1  0.63484380  0.37689440  0.73450264  1  1.504785  0  0.238059  0.678967  0  4.123873  0
C  C85  1  0.25837636  0.35773920  0.62320580  1  1.507266  0  0.237408  0.67691  0  4.125972  0
C  C86  1  0.90060854  0.26554313  0.64231346  1  1.505393  0  0.238006  0.67837  0  4.124185  0
C  C87  1  0.26561632  0.48081194  0.97687204  1  -0.094853  0  -0.097093  -0.177807  0  4.006516  0
C  C88  1  0.78493233  0.49591552  0.51910527  1  -0.126574  0  -0.096852  -0.178244  0  4.00695  0
C  C89  1  0.28986151  0.02304641  0.50390081  1  -0.030599  0  -0.097143  -0.177802  0  4.005878  0
C  C90  1  0.34534741  0.51882115  0.01361962  1  -0.023847  0  -0.094478  -0.160969  0  4.001469  0
C  C91  1  0.82660103  0.49472283  0.48112534  1  -0.01605  0  -0.09478  -0.160766  0  4.001361  0
C  C92  1  0.33270258  0.98627473  0.50513736  1  -0.047182  0  -0.094586  -0.161605  0  4.000066  0
C  C93  1  0.00018692  0.59977236  0.15892070  1  0.360683  0  0.095283  0.271813  0  4.049048  0
C  C94  1  0.39973862  0.55913480  0.40025339  1  0.304924  0  0.095803  0.272222  0  4.046166  0
C  C95  1  0.84082335  0.84111992  0.44086383  1  0.25806  0  0.09614  0.271927  0  4.0482  0
C  C96  1  0.09621403  0.62328173  0.20052683  1  0.020668  0  -0.112884  -0.308284  0  3.909303  0
C  C97  1  0.47237231  0.57726236  0.37676195  1  0.045661  0  -0.112813  -0.308452  0  3.908658  0
C  C98  1  0.89519204  0.79949456  0.42277508  1  0.07243  0  -0.112962  -0.307602  0  3.908866  0
C  C99  1  0.99305171  0.63325290  0.23653505  1  0.573284  0  0.099779  0.391418  0  4.071393  0
C  C100  1  0.35919272  0.60326679  0.36677445  1  0.603106  0  0.100111  0.391795  0  4.072172  0
C  C101  1  0.75606828  0.76349310  0.39675791  1  0.587185  0  0.099896  0.39038  0  4.072894  0
C  C102  1  0.78608582  0.61862577  0.22965452  1  -0.004217  0  -0.043873  -0.217359  0  3.952588  0
C  C103  1  0.16679298  0.61097631  0.38137693  1  -0.023005  0  -0.044084  -0.217675  0  3.954733  0
C  C104  1  0.55604361  0.77038508  0.38901351  1  -0.010428  0  -0.044145  -0.217463  0  3.953208  0
C  C105  1  0.69453567  0.59411984  0.18704227  1  -0.019214  0  -0.085398  -0.041843  0  4.03647  0
C  C106  1  0.09969240  0.59287581  0.40589613  1  -0.015138  0  -0.084878  -0.04152  0  4.037928  0
C  C107  1  0.50717379  0.81302031  0.40709217  1  -0.030002  0  -0.084856  -0.042008  0  4.036073  0
C  C108  1  0.79761666  0.58447645  0.15199718  1  -0.031995  0  -0.121338  -0.235803  0  4.050574  0
C  C109  1  0.21237842  0.56749280  0.41554635  1  -0.024632  0  -0.121276  -0.235319  0  4.049603  0
C  C110  1  0.64526966  0.84806817  0.43248247  1  -0.023785  0  -0.122388  -0.236329  0  4.049705  0
C  C111  1  0.66345959  0.62796275  0.26495829  1  1.514028  0  0.236664  0.676912  0  4.126503  0
C  C112  1  0.03493872  0.63693142  0.37202810  1  1.501174  0  0.236444  0.677468  0  4.125589  0
C  C113  1  0.39820346  0.73508036  0.36305633  1  1.505013  0  0.236847  0.67868  0  4.123975  0
S  S114  1  0.38643129  0.65608168  0.15240750  1  -0.045134  0  -0.217898  -0.411113  0  1.984261  0
S  S115  1  0.72992598  0.49637069  0.34396709  1  -0.026774  0  -0.217569  -0.410708  0  1.985175  0
S  S116  1  0.23282065  0.84750337  0.50367346  1  -0.031423  0  -0.217036  -0.410142  0  1.984483  0
S  S117  1  0.91491983  0.36240499  0.85386131  1  -0.016143  0  -0.214269  -0.406842  0  1.984899  0
S  S118  1  0.55287176  0.49145177  0.63761810  1  -0.040115  0  -0.214361  -0.406695  0  1.985416  0
S  S119  1  0.06125990  0.14607830  0.50855733  1  -0.007767  0  -0.214339  -0.407019  0  1.986195  0
N  N120  1  0.31221834  0.58909337  0.07460806  1  -1.250809  0  -0.413508  -0.384974  0  3.602494  0
N  N121  1  0.72296645  0.48559280  0.41095198  1  -1.22187  0  -0.414075  -0.383684  0  3.602361  0
N  N122  1  0.23804093  0.92525381  0.51433017  1  -1.205257  0  -0.413018  -0.383556  0  3.60372  0
N  N123  1  0.97287807  0.43523385  0.92716590  1  -1.239516  0  -0.411516  -0.380935  0  3.609038  0
N  N124  1  0.53778213  0.49175113  0.56472381  1  -1.226235  0  -0.4112  -0.381777  0  3.609982  0
N  N125  1  0.04680936  0.07277735  0.50803188  1  -1.228099  0  -0.411444  -0.381171  0  3.610437  0
N  N126  1  0.19603680  0.43004873  0.87917845  1  -1.233537  0  -0.396848  -0.331946  0  3.58862  0
N  N127  1  0.76663721  0.44912617  0.56999021  1  -1.248111  0  -0.396699  -0.332334  0  3.590444  0
N  N128  1  0.31766897  0.12082978  0.55079819  1  -1.274268  0  -0.396228  -0.330904  0  3.589339  0
N  N129  1  0.09818115  0.58886122  0.12203016  1  -1.252949  0  -0.396669  -0.330623  0  3.592417  0
N  N130  1  0.50863899  0.53317527  0.41116870  1  -1.263013  0  -0.397602  -0.330212  0  3.590953  0
N  N131  1  0.97583129  0.87798352  0.46682073  1  -1.244065  0  -0.396856  -0.330508  0  3.591952  0
O  O132  1  0.48236624  0.61246121  0.25741598  1  -1.243686  0  -0.357052  -0.641668  0  2.142004  0
O  O133  1  0.86919720  0.64486205  0.38749732  1  -1.238384  0  -0.35672  -0.641581  0  2.141516  0
O  O134  1  0.22469981  0.74263304  0.35511682  1  -1.239804  0  -0.356811  -0.641901  0  2.140716  0
O  O135  1  0.74323308  0.65303331  0.30420064  1  -1.30229  0  -0.402008  -0.770911  0  2.411922  0
O  O136  1  0.08991282  0.65112752  0.34698580  1  -1.294202  0  -0.40196  -0.771359  0  2.411356  0
O  O137  1  0.43884025  0.69582363  0.34885553  1  -1.292027  0  -0.401859  -0.771819  0  2.411272  0
O  O138  1  0.09616521  0.65579062  0.27559028  1  -1.315433  0  -0.448283  -0.774283  0  2.305808  0
O  O139  1  0.43988763  0.61977613  0.34422415  1  -1.312266  0  -0.448794  -0.774867  0  2.305861  0
O  O140  1  0.82016733  0.72442370  0.38023475  1  -1.310819  0  -0.448421  -0.773858  0  2.305994  0
O  O141  1  0.81562406  0.39225797  0.74087624  1  -1.243035  0  -0.35644  -0.641162  0  2.142372  0
O  O142  1  0.42378100  0.34871753  0.60780864  1  -1.241186  0  -0.35621  -0.64082  0  2.142659  0
O  O143  1  0.07493298  0.25917500  0.65131637  1  -1.242041  0  -0.356419  -0.641058  0  2.143244  0
O  O144  1  0.55522510  0.34899472  0.69595731  1  -1.304586  0  -0.402306  -0.772476  0  2.409018  0
O  O145  1  0.20650829  0.34711789  0.65111805  1  -1.295788  0  -0.401959  -0.771104  0  2.409491  0
O  O146  1  0.85941413  0.30408991  0.65295945  1  -1.295582  0  -0.402164  -0.772141  0  2.408883  0
O  O147  1  0.20273687  0.34929789  0.72579497  1  -1.310756  0  -0.449988  -0.77374  0  2.309157  0
O  O148  1  0.85377702  0.37660938  0.65079882  1  -1.306476  0  -0.449881  -0.773391  0  2.308116  0
O  O149  1  0.47723567  0.27424839  0.62342857  1  -1.304694  0  -0.450005  -0.77403  0  2.308612  0
