# generated using pymatgen
data_FeH24C36S4(N6Cl)2
_symmetry_space_group_name_H-M   'P 1'
_cell_length_a   8.78560599
_cell_length_b   9.15928762
_cell_length_c   13.51960542
_cell_angle_alpha   97.79574611
_cell_angle_beta   107.02868097
_cell_angle_gamma   97.00379205
_symmetry_Int_Tables_number   1
_chemical_formula_structural   FeH24C36S4(N6Cl)2
_chemical_formula_sum   'Fe1 H24 C36 S4 N12 Cl2'
_cell_volume   1015.49418547
_cell_formula_units_Z   1
loop_
 _symmetry_equiv_pos_site_id
 _symmetry_equiv_pos_as_xyz
  1  'x, y, z'
loop_
 _atom_site_type_symbol
 _atom_site_label
 _atom_site_symmetry_multiplicity
 _atom_site_fract_x
 _atom_site_fract_y
 _atom_site_fract_z
 _atom_site_occupancy
 _atom_site_hle17_bader_spin_density
 _atom_site_hle17_ddec_charge
 _atom_site_hle17_ddec_spin_density
 _atom_site_hle17_ddec_sum_bond_order
 _atom_site_hle17_magmom
 _atom_site_hse06_10hf_bader_spin_density
 _atom_site_hse06_10hf_ddec_charge
 _atom_site_hse06_10hf_ddec_spin_density
 _atom_site_hse06_10hf_ddec_sum_bond_order
 _atom_site_hse06_10hf_magmom
 _atom_site_hse06_bader_spin_density
 _atom_site_hse06_ddec_charge
 _atom_site_hse06_ddec_spin_density
 _atom_site_hse06_ddec_sum_bond_order
 _atom_site_hse06_magmom
 _atom_site_pbe_bader_spin_density
 _atom_site_pbe_cm5_charge
 _atom_site_pbe_ddec_charge
 _atom_site_pbe_ddec_spin_density
 _atom_site_pbe_ddec_sum_bond_order
 _atom_site_pbe_magmom
Fe  Fe0  1  0.50586311  0.50003378  0.48851259  1  0  0.419595  0  2.882959  0  0  0.381858  0  3.358814  0  0  0.424617  0  3.313119  0  0  0.540956  0.364511  0  3.377606  0
H  H1  1  0.04063873  0.63465796  0.21464723  1  0  0.116166  0  0.96077  0  0  0.118374  0  1.03279  0  0  0.120713  0  1.032502  0  0  0.106228  0.117011  0  1.032879  0
H  H2  1  0.95117583  0.36501231  0.78333034  1  0  0.114202  0  0.961279  0  0  0.11666  0  1.033756  0  0  0.119499  0  1.032604  0  0  0.104984  0.114875  0  1.034499  0
H  H3  1  0.23122569  0.47631465  0.29863032  1  0  0.085234  0  0.976257  0  0  0.08751  0  1.049397  0  0  0.090702  0  1.045267  0  0  0.105775  0.085022  0  1.052625  0
H  H4  1  0.77076968  0.52356121  0.68902729  1  0  0.085134  0  0.980018  0  0  0.087565  0  1.052809  0  0  0.091156  0  1.048308  0  0  0.104444  0.084766  0  1.056365  0
H  H5  1  0.44594018  0.80857435  0.56152166  1  0  0.07664  0  0.979286  0  0  0.083653  0  1.045967  0  0  0.08677  0  1.042231  0  0  0.105697  0.081225  0  1.048976  0
H  H6  1  0.56656281  0.18298028  0.43044397  1  0  0.071662  0  0.980202  0  0  0.079263  0  1.04601  0  0  0.081208  0  1.043482  0  0  0.106404  0.077805  0  1.047963  0
H  H7  1  0.25312139  0.97829351  0.49003663  1  0  0.120704  0  0.945919  0  0  0.124949  0  1.013559  0  0  0.129343  0  1.010922  0  0  0.108195  0.121818  0  1.015529  0
H  H8  1  0.75338364  0.01461299  0.51072960  1  0  0.120256  0  0.95128  0  0  0.123818  0  1.020723  0  0  0.127572  0  1.018922  0  0  0.107632  0.12112  0  1.022063  0
H  H9  1  0.85441013  0.19745008  0.36420093  1  0  0.079371  0  0.918395  0  0  0.089004  0  0.976346  0  0  0.091931  0  0.973423  0  0  0.117288  0.086674  0  0.978727  0
H  H10  1  0.15087946  0.80397619  0.63849683  1  0  0.079525  0  0.915975  0  0  0.09011  0  0.972654  0  0  0.092862  0  0.96989  0  0  0.118007  0.087801  0  0.975063  0
H  H11  1  0.73458703  0.16087501  0.16774615  1  0  0.107191  0  0.997002  0  0  0.116724  0  1.060558  0  0  0.119424  0  1.060682  0  0  0.097612  0.114755  0  1.060882  0
H  H12  1  0.27168318  0.84296968  0.83523863  1  0  0.107649  0  0.994918  0  0  0.11715  0  1.058311  0  0  0.120538  0  1.057862  0  0  0.097532  0.114587  0  1.059128  0
H  H13  1  0.76846605  0.26283284  0.87726703  1  0  0.077826  0  0.92987  0  0  0.083477  0  0.99669  0  0  0.087868  0  0.991654  0  0  0.113174  0.079998  0  1.000763  0
H  H14  1  0.22375798  0.73638516  0.12423906  1  0  0.078014  0  0.932912  0  0  0.083578  0  1.000269  0  0  0.086707  0  0.997052  0  0  0.114633  0.081105  0  1.002827  0
H  H15  1  0.63352183  0.23833261  0.01481788  1  0  0.103318  0  0.977222  0  0  0.11133  0  1.045316  0  0  0.116184  0  1.041898  0  0  0.097245  0.107624  0  1.048312  0
H  H16  1  0.35989647  0.76282560  0.98695521  1  0  0.10563  0  0.975971  0  0  0.11375  0  1.043482  0  0  0.117874  0  1.041445  0  0  0.099762  0.110785  0  1.045141  0
H  H17  1  0.51656225  0.24804536  0.13517670  1  0  0.084825  0  0.994993  0  0  0.093739  0  1.063302  0  0  0.096709  0  1.061974  0  0  0.094088  0.091799  0  1.064375  0
H  H18  1  0.49753041  0.74878682  0.87591806  1  0  0.083151  0  1.00261  0  0  0.090635  0  1.074261  0  0  0.092384  0  1.074339  0  0  0.092384  0.089612  0  1.074087  0
H  H19  1  0.45937943  0.26384691  0.30319460  1  0  0.080906  0  0.990847  0  0  0.087688  0  1.057466  0  0  0.091883  0  1.052137  0  0  0.104826  0.084676  0  1.061048  0
H  H20  1  0.56005635  0.73212745  0.70671813  1  0  0.076832  0  0.976563  0  0  0.081937  0  1.046372  0  0  0.085166  0  1.043411  0  0  0.103818  0.079632  0  1.048373  0
H  H21  1  0.64539108  0.71735781  0.38784494  1  0  0.094525  0  0.96889  0  0  0.102711  0  1.030257  0  0  0.107342  0  1.024547  0  0  0.109472  0.099357  0  1.034205  0
H  H22  1  0.32780502  0.29366637  0.60584599  1  0  0.092019  0  0.967469  0  0  0.099308  0  1.030894  0  0  0.102904  0  1.027492  0  0  0.10816  0.096676  0  1.033294  0
H  H23  1  0.71048948  0.71972277  0.22065597  1  0  0.114539  0  0.962573  0  0  0.121075  0  1.025842  0  0  0.124297  0  1.024944  0  0  0.107283  0.119027  0  1.026522  0
H  H24  1  0.26285502  0.28807855  0.77541910  1  0  0.11385  0  0.970317  0  0  0.120707  0  1.033958  0  0  0.122754  0  1.034697  0  0  0.107785  0.11949  0  1.033288  0
C  C25  1  0.12686299  0.67713406  0.29243807  1  0  -0.139561  0  3.721442  0  0  -0.158929  0  3.972192  0  0  -0.166849  0  3.992504  0  0  -0.082959  -0.153679  0  3.95832  0
C  C26  1  0.87026711  0.32078858  0.70410631  1  0  -0.139561  0  3.716373  0  0  -0.15993  0  3.968259  0  0  -0.167608  0  3.98838  0  0  -0.083839  -0.154692  0  3.954533  0
C  C27  1  0.23402438  0.58833258  0.33846689  1  0  0.118449  0  3.668569  0  0  0.087498  0  3.920914  0  0  0.097576  0  3.9351  0  0  0.036769  0.080532  0  3.912065  0
C  C28  1  0.76835409  0.40978758  0.65236143  1  0  0.120964  0  3.667671  0  0  0.089925  0  3.920873  0  0  0.099644  0  3.935046  0  0  0.037937  0.083085  0  3.912293  0
C  C29  1  0.35028419  0.77282298  0.48670712  1  0  0.102342  0  3.679492  0  0  0.072924  0  3.931497  0  0  0.083033  0  3.945044  0  0  0.034888  0.065513  0  3.924316  0
C  C30  1  0.65848837  0.22143053  0.50651193  1  0  0.105375  0  3.691402  0  0  0.077575  0  3.941365  0  0  0.08555  0  3.958605  0  0  0.037054  0.071352  0  3.931938  0
C  C31  1  0.24512213  0.86714542  0.44625691  1  0  -0.130598  0  3.701556  0  0  -0.150112  0  3.949977  0  0  -0.156601  0  3.967108  0  0  -0.077298  -0.146153  0  3.939044  0
C  C32  1  0.75960492  0.12703299  0.55197119  1  0  -0.130847  0  3.703943  0  0  -0.150314  0  3.951188  0  0  -0.15711  0  3.970245  0  0  -0.07787  -0.146068  0  3.939007  0
C  C33  1  0.13159361  0.82026581  0.34594478  1  0  0.040908  0  3.756349  0  0  0.051178  0  3.985734  0  0  0.055173  0  4.005015  0  0  0.007628  0.048654  0  3.972826  0
C  C34  1  0.86839261  0.17649848  0.65357529  1  0  0.039384  0  3.753929  0  0  0.050248  0  3.982526  0  0  0.053906  0  4.001875  0  0  0.008194  0.047848  0  3.96965  0
C  C35  1  0.02164683  0.91784706  0.29669072  1  0  0.367828  0  3.74852  0  0  0.357091  0  4.003156  0  0  0.37197  0  4.012429  0  0  0.24863  0.346321  0  3.997912  0
C  C36  1  0.97873743  0.08048415  0.70498641  1  0  0.367011  0  3.746229  0  0  0.356616  0  3.999692  0  0  0.371737  0  4.008781  0  0  0.248741  0.345591  0  3.994784  0
C  C37  1  0.88309518  0.10928750  0.31301681  1  0  0.186693  0  3.722172  0  0  0.159647  0  3.979858  0  0  0.170782  0  3.991282  0  0  0.06235  0.151962  0  3.973165  0
C  C38  1  0.12099059  0.89146630  0.68952472  1  0  0.188882  0  3.719214  0  0  0.160474  0  3.977809  0  0  0.172038  0  3.988734  0  0  0.063609  0.152557  0  3.9714  0
C  C39  1  0.81632948  0.08958919  0.20424977  1  0  -0.230933  0  3.719464  0  0  -0.244129  0  3.959846  0  0  -0.255495  0  3.980729  0  0  -0.100903  -0.237321  0  3.946713  0
C  C40  1  0.18772488  0.91227380  0.79832933  1  0  -0.230125  0  3.718021  0  0  -0.243523  0  3.959014  0  0  -0.254574  0  3.978541  0  0  -0.100164  -0.236887  0  3.94686  0
C  C41  1  0.86211736  0.97439102  0.14568233  1  0  0.239722  0  3.833267  0  0  0.237974  0  4.107847  0  0  0.250196  0  4.124201  0  0  0.124694  0.229795  0  4.096833  0
C  C42  1  0.13974769  0.02648857  0.85641588  1  0  0.239246  0  3.828394  0  0  0.237618  0  4.102957  0  0  0.250067  0  4.118813  0  0  0.124523  0.229255  0  4.092297  0
C  C43  1  0.79626950  0.61339235  0.97284974  1  0  0.345634  0  3.830723  0  0  0.332934  0  4.117025  0  0  0.348206  0  4.127221  0  0  0.240408  0.322427  0  4.110985  0
C  C44  1  0.20161373  0.38625770  0.02954588  1  0  0.345983  0  3.822645  0  0  0.333578  0  4.1087  0  0  0.348243  0  4.123088  0  0  0.244663  0.323764  0  4.098884  0
C  C45  1  0.75560379  0.36162997  0.92741759  1  0  0.178078  0  3.714592  0  0  0.150124  0  3.976956  0  0  0.162747  0  3.984337  0  0  0.056735  0.141071  0  3.973598  0
C  C46  1  0.23864701  0.63818811  0.07450338  1  0  0.182861  0  3.708259  0  0  0.153528  0  3.971442  0  0  0.163477  0  3.986678  0  0  0.064089  0.147128  0  3.961168  0
C  C47  1  0.68235411  0.34833372  0.00487455  1  0  -0.213106  0  3.689615  0  0  -0.23331  0  3.941221  0  0  -0.240971  0  3.954537  0  0  -0.092462  -0.228858  0  3.934232  0
C  C48  1  0.31264676  0.65259698  0.99734568  1  0  -0.212207  0  3.685928  0  0  -0.232425  0  3.937003  0  0  -0.243731  0  3.95702  0  0  -0.088788  -0.225191  0  3.923917  0
C  C49  1  0.67845121  0.48035371  0.06998925  1  0  0.25819  0  3.740739  0  0  0.256112  0  3.985636  0  0  0.268468  0  3.995934  0  0  0.131759  0.246091  0  3.980039  0
C  C50  1  0.31799782  0.52104256  0.93306547  1  0  0.26082  0  3.740759  0  0  0.258089  0  3.984121  0  0  0.269654  0  4.000074  0  0  0.137824  0.250203  0  3.973387  0
C  C51  1  0.62719449  0.48253210  0.16408499  1  0  0.046043  0  3.754341  0  0  0.057007  0  3.985681  0  0  0.066057  0  4.000208  0  0  -0.006058  0.052452  0  3.975138  0
C  C52  1  0.36919624  0.51961483  0.83817514  1  0  0.057036  0  3.750619  0  0  0.069941  0  3.977824  0  0  0.069661  0  4.003057  0  0  0.006123  0.070631  0  3.959898  0
C  C53  1  0.55420541  0.35432188  0.18992483  1  0  -0.155076  0  3.757029  0  0  -0.171936  0  4.004925  0  0  -0.179416  0  4.021015  0  0  -0.092797  -0.167953  0  3.994029  0
C  C54  1  0.45371212  0.64585878  0.81783823  1  0  -0.15826  0  3.74724  0  0  -0.173857  0  3.989834  0  0  -0.182925  0  4.016709  0  0  -0.088024  -0.167267  0  3.970693  0
C  C55  1  0.52204646  0.36105699  0.28455754  1  0  0.100544  0  3.666193  0  0  0.067642  0  3.922104  0  0  0.082047  0  3.928529  0  0  0.030176  0.058805  0  3.918046  0
C  C56  1  0.48854205  0.63815821  0.72348074  1  0  0.110152  0  3.707182  0  0  0.082257  0  3.960078  0  0  0.08751  0  3.979462  0  0  0.045736  0.078782  0  3.947128  0
C  C57  1  0.62001901  0.61583094  0.32963631  1  0  0.112673  0  3.637316  0  0  0.08183  0  3.885233  0  0  0.096841  0  3.890143  0  0  0.03528  0.071594  0  3.883271  0
C  C58  1  0.36349917  0.39110423  0.66886111  1  0  0.121517  0  3.674529  0  0  0.095072  0  3.919585  0  0  0.101787  0  3.93579  0  0  0.0492  0.090348  0  3.90906  0
C  C59  1  0.65637664  0.61599220  0.23687380  1  0  -0.128159  0  3.697228  0  0  -0.145415  0  3.943441  0  0  -0.151237  0  3.955864  0  0  -0.081335  -0.142116  0  3.934824  0
C  C60  1  0.32669111  0.38903648  0.76187238  1  0  -0.130885  0  3.685515  0  0  -0.147894  0  3.926666  0  0  -0.155202  0  3.949768  0  0  -0.076462  -0.142674  0  3.910445  0
S  S61  1  0.76681413  0.93861197  0.00716195  1  0  -0.025511  0  2.46465  0  0  -0.0298  0  2.832337  0  0  -0.031946  0  2.826135  0  0  0.033083  -0.028122  0  2.837082  0
S  S62  1  0.23603422  0.06337856  0.99484480  1  0  -0.022978  0  2.45867  0  0  -0.027253  0  2.826204  0  0  -0.031024  0  2.822327  0  0  0.0354  -0.024301  0  2.82905  0
S  S63  1  0.87759375  0.78561209  0.94509122  1  0  0.015937  0  2.433214  0  0  0.001742  0  2.805953  0  0  0.003223  0  2.799449  0  0  0.058849  6.9e-05  0  2.811208  0
S  S64  1  0.12318813  0.21372453  0.05746981  1  0  0.020587  0  2.439307  0  0  0.005301  0  2.813086  0  0  0.003652  0  2.809981  0  0  0.063517  0.006331  0  2.815376  0
N  N65  1  0.34713588  0.63442599  0.43431670  1  0  -0.218117  0  3.336147  0  0  -0.160411  0  3.604207  0  0  -0.18218  0  3.623179  0  0  -0.330337  -0.147738  0  3.591008  0
N  N66  1  0.66228767  0.36251197  0.55426354  1  0  -0.220233  0  3.297211  0  0  -0.162086  0  3.562099  0  0  -0.182796  0  3.580622  0  0  -0.319809  -0.150041  0  3.549493  0
N  N67  1  0.98311853  0.02253974  0.36036335  1  0  -0.346714  0  2.993864  0  0  -0.317921  0  3.256462  0  0  -0.327569  0  3.26421  0  0  -0.307089  -0.312443  0  3.252528  0
N  N68  1  0.01932341  0.97662896  0.64188872  1  0  -0.345242  0  2.999706  0  0  -0.315497  0  3.261835  0  0  -0.32603  0  3.270236  0  0  -0.305568  -0.309331  0  3.257384  0
N  N69  1  0.96640108  0.89094719  0.19026079  1  0  -0.411111  0  3.067751  0  0  -0.382187  0  3.334633  0  0  -0.398033  0  3.347579  0  0  -0.309925  -0.371506  0  3.32612  0
N  N70  1  0.03356157  0.10825766  0.81144525  1  0  -0.411534  0  3.059582  0  0  -0.383499  0  3.326993  0  0  -0.399197  0  3.339495  0  0  -0.311292  -0.372876  0  3.318796  0
N  N71  1  0.81646251  0.49484846  0.91103802  1  0  -0.368444  0  3.014615  0  0  -0.330264  0  3.280881  0  0  -0.339755  0  3.288424  0  0  -0.317782  -0.325166  0  3.277356  0
N  N72  1  0.17952783  0.50459676  0.09056988  1  0  -0.362363  0  3.026258  0  0  -0.323131  0  3.292041  0  0  -0.339514  0  3.307442  0  0  -0.309706  -0.312244  0  3.281571  0
N  N73  1  0.73257395  0.61490715  0.05037104  1  0  -0.41074  0  3.081473  0  0  -0.377596  0  3.348915  0  0  -0.390273  0  3.36014  0  0  -0.312024  -0.369648  0  3.342532  0
N  N74  1  0.26552343  0.38614522  0.95200323  1  0  -0.404478  0  3.083287  0  0  -0.372326  0  3.350067  0  0  -0.387831  0  3.36469  0  0  -0.307974  -0.361979  0  3.340237  0
N  N75  1  0.55656063  0.48928715  0.35703682  1  0  -0.201504  0  3.333228  0  0  -0.140782  0  3.601689  0  0  -0.160704  0  3.616278  0  0  -0.336572  -0.12968  0  3.59065  0
N  N76  1  0.44191386  0.51403076  0.64917281  1  0  -0.228367  0  3.174962  0  0  -0.171689  0  3.430411  0  0  -0.18988  0  3.448374  0  0  -0.284284  -0.15965  0  3.41854  0
Cl  Cl77  1  0.70814642  0.70761076  0.57151495  1  0  -0.491943  0  1.059945  0  0  -0.49079  0  1.330644  0  0  -0.530079  0  1.317824  0  0  -0.268281  -0.458888  0  1.3352  0
Cl  Cl78  1  0.29943872  0.29224814  0.42244961  1  0  -0.493027  0  1.053224  0  0  -0.493489  0  1.323043  0  0  -0.533123  0  1.310411  0  0  -0.271642  -0.461438  0  1.327639  0
