# generated using pymatgen
data_AgPH6C7O5
_symmetry_space_group_name_H-M   'P 1'
_cell_length_a   4.56426108
_cell_length_b   5.61259962
_cell_length_c   33.13093005
_cell_angle_alpha   89.99996703
_cell_angle_beta   95.28163671
_cell_angle_gamma   90.00041436
_symmetry_Int_Tables_number   1
_chemical_formula_structural   AgPH6C7O5
_chemical_formula_sum   'Ag4 P4 H24 C28 O20'
_cell_volume   845.12381094
_cell_formula_units_Z   4
loop_
 _symmetry_equiv_pos_site_id
 _symmetry_equiv_pos_as_xyz
  1  'x, y, z'
loop_
 _atom_site_type_symbol
 _atom_site_label
 _atom_site_symmetry_multiplicity
 _atom_site_fract_x
 _atom_site_fract_y
 _atom_site_fract_z
 _atom_site_occupancy
 _atom_site_hle17_bader_spin_density
 _atom_site_hle17_ddec_charge
 _atom_site_hle17_ddec_spin_density
 _atom_site_hle17_ddec_sum_bond_order
 _atom_site_hle17_magmom
 _atom_site_hse06_10hf_bader_spin_density
 _atom_site_hse06_10hf_ddec_charge
 _atom_site_hse06_10hf_ddec_spin_density
 _atom_site_hse06_10hf_ddec_sum_bond_order
 _atom_site_hse06_10hf_magmom
 _atom_site_hse06_bader_spin_density
 _atom_site_hse06_ddec_charge
 _atom_site_hse06_ddec_spin_density
 _atom_site_hse06_ddec_sum_bond_order
 _atom_site_hse06_magmom
 _atom_site_pbe_bader_spin_density
 _atom_site_pbe_cm5_charge
 _atom_site_pbe_ddec_charge
 _atom_site_pbe_ddec_spin_density
 _atom_site_pbe_ddec_sum_bond_order
 _atom_site_pbe_magmom
Ag  Ag0  1  0.55647242  0.31628804  0.26485074  1  0  0.726429  0  1.232765  0  0  0.615855  0  1.64734  0  0  0.647517  0  1.592515  0  0  0.463291  0.59281  0  1.685916  0
Ag  Ag1  1  0.94353850  0.81626257  0.23515293  1  0  0.72639  0  1.232756  0  0  0.615806  0  1.647339  0  0  0.647469  0  1.592515  0  0  0.463273  0.592758  0  1.685922  0
Ag  Ag2  1  0.44352763  0.68374261  0.73515009  1  0  0.726455  0  1.232709  0  0  0.615897  0  1.647289  0  0  0.647561  0  1.592461  0  0  0.463299  0.592848  0  1.685877  0
Ag  Ag3  1  0.05646800  0.18373601  0.76484617  1  0  0.726402  0  1.232747  0  0  0.615834  0  1.64733  0  0  0.647499  0  1.592499  0  0  0.463287  0.592783  0  1.685911  0
P  P4  1  0.50425539  0.84094311  0.31394598  1  0  1.441356  0  4.827072  0  0  1.279128  0  5.30719  0  0  1.329295  0  5.273237  0  0  0.340686  1.244305  0  5.329421  0
P  P5  1  0.99574699  0.34090552  0.18605819  1  0  1.441134  0  4.827225  0  0  1.278873  0  5.307323  0  0  1.329046  0  5.273388  0  0  0.34059  1.244022  0  5.329616  0
P  P6  1  0.49575124  0.15909289  0.68605463  1  0  1.440988  0  4.827118  0  0  1.278751  0  5.307235  0  0  1.328923  0  5.273292  0  0  0.340637  1.243931  0  5.329453  0
P  P7  1  0.00424206  0.65908594  0.81394252  1  0  1.441234  0  4.82719  0  0  1.27901  0  5.307256  0  0  1.329173  0  5.273327  0  0  0.340699  1.244171  0  5.329517  0
H  H8  1  0.37843839  0.86115074  0.39962572  1  0  0.104286  0  0.959374  0  0  0.111393  0  1.025191  0  0  0.114841  0  1.023356  0  0  0.104842  0.108939  0  1.026532  0
H  H9  1  0.12157064  0.36110032  0.10038003  1  0  0.104271  0  0.959508  0  0  0.11152  0  1.025162  0  0  0.114972  0  1.023319  0  0  0.104842  0.109027  0  1.026545  0
H  H10  1  0.62154849  0.13886032  0.60037527  1  0  0.104399  0  0.959348  0  0  0.111502  0  1.025151  0  0  0.114949  0  1.023321  0  0  0.104892  0.109032  0  1.026513  0
H  H11  1  0.87844044  0.63885906  0.89962122  1  0  0.104397  0  0.959207  0  0  0.111488  0  1.025047  0  0  0.114937  0  1.023213  0  0  0.104889  0.109038  0  1.026381  0
H  H12  1  0.84135487  0.12612545  0.51295101  1  0  0.393967  0  0.903277  0  0  0.363389  0  0.980388  0  0  0.376483  0  0.965152  0  0  0.303008  0.354224  0  0.989832  0
H  H13  1  0.65864979  0.62609950  0.98705079  1  0  0.394195  0  0.903214  0  0  0.363663  0  0.980227  0  0  0.376752  0  0.964834  0  0  0.303122  0.354497  0  0.989677  0
H  H14  1  0.15866693  0.87389451  0.48704705  1  0  0.394375  0  0.90303  0  0  0.363779  0  0.980109  0  0  0.376864  0  0.964688  0  0  0.303159  0.35462  0  0.989555  0
H  H15  1  0.34136157  0.37385988  0.01295379  1  0  0.393912  0  0.903326  0  0  0.363369  0  0.980369  0  0  0.376463  0  0.96517  0  0  0.302989  0.354203  0  0.989814  0
H  H16  1  0.10507849  0.21430170  0.38434621  1  0  0.10918  0  0.964503  0  0  0.11823  0  1.027112  0  0  0.121458  0  1.025329  0  0  0.106889  0.115823  0  1.028599  0
H  H17  1  0.39490047  0.71427439  0.11565651  1  0  0.109398  0  0.96438  0  0  0.118413  0  1.027001  0  0  0.12165  0  1.025209  0  0  0.107005  0.116005  0  1.02848  0
H  H18  1  0.89492123  0.78571113  0.61565070  1  0  0.109169  0  0.964538  0  0  0.118198  0  1.027143  0  0  0.121428  0  1.025357  0  0  0.106846  0.115794  0  1.028626  0
H  H19  1  0.60507986  0.28572775  0.88434500  1  0  0.109322  0  0.964262  0  0  0.118361  0  1.026886  0  0  0.121591  0  1.025098  0  0  0.106951  0.115949  0  1.028371  0
H  H20  1  0.06561380  0.00589911  0.31737821  1  0  0.443704  0  0.864185  0  0  0.409293  0  0.932848  0  0  0.420711  0  0.91679  0  0  0.307911  0.401319  0  0.944018  0
H  H21  1  0.43438074  0.50587191  0.18262169  1  0  0.443694  0  0.864193  0  0  0.409287  0  0.932852  0  0  0.4207  0  0.916799  0  0  0.307904  0.401317  0  0.944015  0
H  H22  1  0.93440145  0.99412442  0.68262037  1  0  0.443669  0  0.864226  0  0  0.409262  0  0.932889  0  0  0.420679  0  0.91683  0  0  0.30788  0.40129  0  0.944056  0
H  H23  1  0.56560601  0.49412133  0.81737779  1  0  0.443664  0  0.86422  0  0  0.409266  0  0.932865  0  0  0.420679  0  0.916813  0  0  0.307907  0.401293  0  0.944033  0
H  H24  1  0.95219165  0.47298842  0.32582866  1  0  0.086981  0  0.971578  0  0  0.095396  0  1.044617  0  0  0.099316  0  1.040322  0  0  0.096823  0.092389  0  1.048064  0
H  H25  1  0.54780296  0.97295529  0.17417450  1  0  0.08688  0  0.971434  0  0  0.095264  0  1.044512  0  0  0.09919  0  1.040213  0  0  0.096751  0.092285  0  1.047917  0
H  H26  1  0.04780600  0.52703511  0.67416973  1  0  0.087078  0  0.971645  0  0  0.095435  0  1.044703  0  0  0.099358  0  1.040412  0  0  0.096839  0.092476  0  1.048087  0
H  H27  1  0.45217286  0.02705220  0.82582576  1  0  0.087006  0  0.971422  0  0  0.095365  0  1.044489  0  0  0.099291  0  1.040196  0  0  0.096781  0.092381  0  1.047902  0
H  H28  1  0.54095038  0.60277002  0.45819071  1  0  0.110722  0  0.953216  0  0  0.118522  0  1.01692  0  0  0.122087  0  1.014136  0  0  0.108336  0.115907  0  1.019065  0
H  H29  1  0.95904349  0.10273784  0.04181461  1  0  0.110529  0  0.953605  0  0  0.118473  0  1.017146  0  0  0.122038  0  1.01436  0  0  0.108321  0.115838  0  1.019316  0
H  H30  1  0.45904074  0.39722322  0.54180852  1  0  0.110742  0  0.953261  0  0  0.11857  0  1.016913  0  0  0.122142  0  1.014114  0  0  0.10836  0.115912  0  1.019104  0
H  H31  1  0.04098105  0.89721086  0.95818981  1  0  0.110704  0  0.953193  0  0  0.118555  0  1.016828  0  0  0.122122  0  1.014039  0  0  0.10835  0.115924  0  1.018996  0
C  C32  1  0.53818384  0.72034126  0.39612616  1  0  -0.037676  0  3.728213  0  0  -0.059845  0  3.97507  0  0  -0.062094  0  3.997323  0  0  -0.078622  -0.058348  0  3.960111  0
C  C33  1  0.96181307  0.22032144  0.10387737  1  0  -0.037664  0  3.728506  0  0  -0.059999  0  3.975342  0  0  -0.06224  0  3.99761  0  0  -0.078614  -0.058459  0  3.960391  0
C  C34  1  0.46182043  0.27967158  0.60387261  1  0  -0.037764  0  3.728263  0  0  -0.059993  0  3.975114  0  0  -0.062236  0  3.997377  0  0  -0.078599  -0.058475  0  3.960138  0
C  C35  1  0.03819568  0.77967179  0.89612236  1  0  -0.037686  0  3.728426  0  0  -0.059892  0  3.975285  0  0  -0.062144  0  3.997556  0  0  -0.078644  -0.058394  0  3.960319  0
C  C36  1  0.82788426  0.38974666  0.42458211  1  0  -0.076001  0  3.764586  0  0  -0.053309  0  3.998849  0  0  -0.062392  0  4.022553  0  0  -0.013297  -0.047424  0  3.98292  0
C  C37  1  0.67211397  0.88973943  0.07542020  1  0  -0.075985  0  3.764225  0  0  -0.053307  0  3.998441  0  0  -0.062393  0  4.02215  0  0  -0.013237  -0.047424  0  3.982509  0
C  C38  1  0.17213740  0.61026440  0.57541444  1  0  -0.076091  0  3.763961  0  0  -0.05343  0  3.998284  0  0  -0.062516  0  4.021991  0  0  -0.013382  -0.047533  0  3.982338  0
C  C39  1  0.32788173  0.11025202  0.92458119  1  0  -0.076088  0  3.76445  0  0  -0.053404  0  3.998717  0  0  -0.062493  0  4.022427  0  0  -0.013307  -0.047513  0  3.982783  0
C  C40  1  0.64718421  0.68042787  0.35846947  1  0  -0.228385  0  3.754734  0  0  -0.183389  0  3.985733  0  0  -0.191851  0  4.008787  0  0  -0.01863  -0.177674  0  3.970418  0
C  C41  1  0.85282317  0.18038592  0.14153206  1  0  -0.228377  0  3.755043  0  0  -0.183275  0  3.985926  0  0  -0.191777  0  4.009036  0  0  -0.018539  -0.177567  0  3.970597  0
C  C42  1  0.35280243  0.31958675  0.64152880  1  0  -0.228194  0  3.754614  0  0  -0.183082  0  3.985457  0  0  -0.191571  0  4.00855  0  0  -0.018589  -0.177383  0  3.970154  0
C  C43  1  0.14717670  0.81959663  0.85846666  1  0  -0.228299  0  3.754904  0  0  -0.1832  0  3.985724  0  0  -0.191678  0  4.008818  0  0  -0.018508  -0.177484  0  3.970404  0
C  C44  1  0.94529690  0.35530669  0.38739319  1  0  -0.046479  0  3.692823  0  0  -0.071619  0  3.937595  0  0  -0.071542  0  3.959143  0  0  -0.076343  -0.071493  0  3.923127  0
C  C45  1  0.55468341  0.85527728  0.11260862  1  0  -0.046789  0  3.693013  0  0  -0.071898  0  3.937752  0  0  -0.071822  0  3.959305  0  0  -0.076464  -0.071766  0  3.923275  0
C  C46  1  0.05470297  0.64471328  0.61260552  1  0  -0.046335  0  3.692487  0  0  -0.071409  0  3.937194  0  0  -0.071323  0  3.958735  0  0  -0.076241  -0.071291  0  3.922734  0
C  C47  1  0.44530126  0.14471595  0.88739235  1  0  -0.046547  0  3.692656  0  0  -0.07172  0  3.937454  0  0  -0.071634  0  3.959009  0  0  -0.076369  -0.071587  0  3.922982  0
C  C48  1  0.91343726  0.22265319  0.45822221  1  0  0.667611  0  3.79231  0  0  0.615061  0  4.090522  0  0  0.649961  0  4.080085  0  0  0.24426  0.591395  0  4.097065  0
C  C49  1  0.58657271  0.72262235  0.04177965  1  0  0.667963  0  3.792125  0  0  0.61555  0  4.09015  0  0  0.65045  0  4.079709  0  0  0.244445  0.591889  0  4.096691  0
C  C50  1  0.08658438  0.77735252  0.54177403  1  0  0.667934  0  3.791494  0  0  0.615324  0  4.089822  0  0  0.650223  0  4.079384  0  0  0.244438  0.591647  0  4.096372  0
C  C51  1  0.41342990  0.27733704  0.95822544  1  0  0.668009  0  3.792099  0  0  0.615516  0  4.090203  0  0  0.650418  0  4.079763  0  0  0.244499  0.591837  0  4.09676  0
C  C52  1  0.85662164  0.50012347  0.35454137  1  0  -0.04665  0  3.738536  0  0  -0.065926  0  3.981596  0  0  -0.068256  0  4.003293  0  0  -0.082818  -0.064479  0  3.967324  0
C  C53  1  0.64337968  0.00009270  0.14545831  1  0  -0.046539  0  3.738617  0  0  -0.06585  0  3.981743  0  0  -0.068136  0  4.003372  0  0  -0.082799  -0.064421  0  3.967482  0
C  C54  1  0.14336736  0.49989649  0.64545874  1  0  -0.046822  0  3.73874  0  0  -0.066112  0  3.981871  0  0  -0.068404  0  4.003498  0  0  -0.082833  -0.06472  0  3.96765  0
C  C55  1  0.35659819  0.99990588  0.85454017  1  0  -0.046687  0  3.738545  0  0  -0.065959  0  3.981735  0  0  -0.068237  0  4.003307  0  0  -0.082799  -0.064521  0  3.967441  0
C  C56  1  0.62860695  0.57558505  0.42908579  1  0  -0.043514  0  3.677788  0  0  -0.072227  0  3.931548  0  0  -0.071181  0  3.950819  0  0  -0.074676  -0.072696  0  3.918422  0
C  C57  1  0.87141285  0.07557544  0.07091710  1  0  -0.043198  0  3.677757  0  0  -0.072024  0  3.931525  0  0  -0.070981  0  3.950805  0  0  -0.074656  -0.072483  0  3.918413  0
C  C58  1  0.37139734  0.42440640  0.57091328  1  0  -0.043538  0  3.677929  0  0  -0.072226  0  3.931649  0  0  -0.071191  0  3.950936  0  0  -0.074707  -0.072655  0  3.918523  0
C  C59  1  0.12860695  0.92440176  0.92908334  1  0  -0.043522  0  3.678  0  0  -0.072247  0  3.931744  0  0  -0.071209  0  3.951032  0  0  -0.074734  -0.072707  0  3.918631  0
O  O60  1  0.34953970  0.66969047  0.28317238  1  0  -0.877547  0  2.105688  0  0  -0.78161  0  2.422414  0  0  -0.813327  0  2.39603  0  0  -0.381128  -0.758801  0  2.439801  0
O  O61  1  0.15046315  0.16967207  0.21683151  1  0  -0.877474  0  2.106038  0  0  -0.781552  0  2.422786  0  0  -0.813265  0  2.396407  0  0  -0.381065  -0.758749  0  2.440165  0
O  O62  1  0.65047122  0.33034019  0.71682706  1  0  -0.877444  0  2.105828  0  0  -0.781518  0  2.422573  0  0  -0.813228  0  2.396188  0  0  -0.381059  -0.758714  0  2.439963  0
O  O63  1  0.84952595  0.83032295  0.78316980  1  0  -0.877589  0  2.105874  0  0  -0.781669  0  2.422621  0  0  -0.813383  0  2.396239  0  0  -0.381171  -0.758868  0  2.440012  0
O  O64  1  0.78191998  0.25743521  0.49157169  1  0  -0.538396  0  2.111993  0  0  -0.488967  0  2.331975  0  0  -0.511543  0  2.316086  0  0  -0.319455  -0.473288  0  2.341562  0
O  O65  1  0.71806849  0.75739633  0.00843234  1  0  -0.538732  0  2.112353  0  0  -0.489438  0  2.332344  0  0  -0.512007  0  2.316318  0  0  -0.319593  -0.473762  0  2.341945  0
O  O66  1  0.21809737  0.74260257  0.50842571  1  0  -0.538937  0  2.111996  0  0  -0.489444  0  2.332066  0  0  -0.512013  0  2.316015  0  0  -0.319652  -0.473766  0  2.341667  0
O  O67  1  0.28195607  0.24255414  0.99157239  1  0  -0.538461  0  2.112483  0  0  -0.489123  0  2.332474  0  0  -0.511696  0  2.316611  0  0  -0.319511  -0.47344  0  2.342067  0
O  O68  1  0.09415105  0.05856806  0.45427601  1  0  -0.567913  0  2.001664  0  0  -0.517374  0  2.218431  0  0  -0.540428  0  2.209409  0  0  -0.282803  -0.501585  0  2.224016  0
O  O69  1  0.40581973  0.55853918  0.04572362  1  0  -0.567989  0  2.001213  0  0  -0.517539  0  2.217954  0  0  -0.540604  0  2.20898  0  0  -0.282939  -0.501741  0  2.223533  0
O  O70  1  0.90584861  0.94145190  0.54572029  1  0  -0.568026  0  2.001  0  0  -0.517508  0  2.217854  0  0  -0.540569  0  2.20887  0  0  -0.28293  -0.501706  0  2.22344  0
O  O71  1  0.59417168  0.44144337  0.95427893  1  0  -0.568232  0  2.001273  0  0  -0.517667  0  2.217927  0  0  -0.54073  0  2.208908  0  0  -0.282994  -0.501862  0  2.223519  0
O  O72  1  0.28241503  0.03189842  0.32832277  1  0  -0.739168  0  2.044761  0  0  -0.662867  0  2.280918  0  0  -0.685849  0  2.256914  0  0  -0.377335  -0.646511  0  2.297049  0
O  O73  1  0.21757985  0.53188059  0.17167864  1  0  -0.739117  0  2.044641  0  0  -0.662759  0  2.280737  0  0  -0.685771  0  2.256816  0  0  -0.377323  -0.646399  0  2.296849  0
O  O74  1  0.71758259  0.96810551  0.67167531  1  0  -0.739067  0  2.044518  0  0  -0.662746  0  2.280611  0  0  -0.685749  0  2.256675  0  0  -0.377307  -0.646382  0  2.296726  0
O  O75  1  0.78240482  0.46811978  0.82832233  1  0  -0.73908  0  2.044827  0  0  -0.662739  0  2.280886  0  0  -0.685761  0  2.256977  0  0  -0.377294  -0.64638  0  2.297006  0
O  O76  1  0.76060699  0.98045324  0.29730360  1  0  -0.882552  0  2.192732  0  0  -0.769167  0  2.472086  0  0  -0.80323  0  2.451211  0  0  -0.370948  -0.744839  0  2.485538  0
O  O77  1  0.73937888  0.48043542  0.20269947  1  0  -0.882514  0  2.192538  0  0  -0.76916  0  2.471922  0  0  -0.80323  0  2.451085  0  0  -0.371019  -0.744831  0  2.485357  0
O  O78  1  0.23939078  0.01955960  0.70269630  1  0  -0.882507  0  2.192612  0  0  -0.769162  0  2.471997  0  0  -0.803251  0  2.451199  0  0  -0.37102  -0.744832  0  2.485435  0
O  O79  1  0.26059474  0.51956316  0.79730077  1  0  -0.882571  0  2.192721  0  0  -0.769248  0  2.472132  0  0  -0.803302  0  2.451255  0  0  -0.371049  -0.744918  0  2.485572  0
