# generated using pymatgen
data_SnH10C10N2O5
_symmetry_space_group_name_H-M   'P 1'
_cell_length_a   8.39711856
_cell_length_b   11.63113450
_cell_length_c   12.01793196
_cell_angle_alpha   100.36711451
_cell_angle_beta   90.00053111
_cell_angle_gamma   89.99967422
_symmetry_Int_Tables_number   1
_chemical_formula_structural   SnH10C10N2O5
_chemical_formula_sum   'Sn4 H40 C40 N8 O20'
_cell_volume   1154.60571351
_cell_formula_units_Z   4
loop_
 _symmetry_equiv_pos_site_id
 _symmetry_equiv_pos_as_xyz
  1  'x, y, z'
loop_
 _atom_site_type_symbol
 _atom_site_label
 _atom_site_symmetry_multiplicity
 _atom_site_fract_x
 _atom_site_fract_y
 _atom_site_fract_z
 _atom_site_occupancy
 _atom_site_hle17_bader_spin_density
 _atom_site_hle17_ddec_charge
 _atom_site_hle17_ddec_spin_density
 _atom_site_hle17_ddec_sum_bond_order
 _atom_site_hle17_magmom
 _atom_site_hse06_10hf_bader_spin_density
 _atom_site_hse06_10hf_ddec_charge
 _atom_site_hse06_10hf_ddec_spin_density
 _atom_site_hse06_10hf_ddec_sum_bond_order
 _atom_site_hse06_10hf_magmom
 _atom_site_hse06_bader_spin_density
 _atom_site_hse06_ddec_charge
 _atom_site_hse06_ddec_spin_density
 _atom_site_hse06_ddec_sum_bond_order
 _atom_site_hse06_magmom
 _atom_site_pbe_bader_spin_density
 _atom_site_pbe_cm5_charge
 _atom_site_pbe_ddec_charge
 _atom_site_pbe_ddec_spin_density
 _atom_site_pbe_ddec_sum_bond_order
 _atom_site_pbe_magmom
Sn  Sn0  1  0.27373009  0.77851064  0.71962377  1  0  1.052115  0  1.832723  0  0  0.8617  0  2.272492  0  0  0.903266  0  2.246404  0  0  0.542976  0.831505  0  2.2914  0
Sn  Sn1  1  0.77371378  0.22155767  0.78039216  1  0  1.052061  0  1.832676  0  0  0.861655  0  2.272418  0  0  0.903219  0  2.246341  0  0  0.543011  0.831446  0  2.291316  0
Sn  Sn2  1  0.72628107  0.22151559  0.28038097  1  0  1.052142  0  1.832783  0  0  0.861652  0  2.27253  0  0  0.90321  0  2.246446  0  0  0.542993  0.83145  0  2.291427  0
Sn  Sn3  1  0.22626046  0.77852362  0.21961886  1  0  1.052204  0  1.832589  0  0  0.861778  0  2.272439  0  0  0.903339  0  2.246346  0  0  0.54306  0.831598  0  2.291344  0
H  H4  1  0.34325049  0.44347094  0.35859815  1  0  0.122169  0  0.95372  0  0  0.126795  0  1.021841  0  0  0.1309  0  1.019666  0  0  0.113454  0.123873  0  1.023473  0
H  H5  1  0.84325819  0.55652859  0.14140465  1  0  0.122186  0  0.953611  0  0  0.126806  0  1.021714  0  0  0.130908  0  1.019547  0  0  0.11348  0.123882  0  1.023349  0
H  H6  1  0.65673684  0.55652732  0.64139339  1  0  0.122179  0  0.953657  0  0  0.126823  0  1.021754  0  0  0.130926  0  1.019581  0  0  0.113476  0.123897  0  1.023397  0
H  H7  1  0.15674105  0.44346879  0.85859921  1  0  0.122197  0  0.953554  0  0  0.126844  0  1.021634  0  0  0.130945  0  1.019468  0  0  0.113499  0.1239  0  1.023324  0
H  H8  1  0.15975759  0.29082475  0.41549036  1  0  0.100665  0  0.95644  0  0  0.115697  0  1.014301  0  0  0.118587  0  1.011983  0  0  0.114343  0.113519  0  1.016048  0
H  H9  1  0.65975258  0.70917007  0.08450212  1  0  0.10066  0  0.956511  0  0  0.115724  0  1.014326  0  0  0.118618  0  1.012004  0  0  0.114366  0.113548  0  1.016078  0
H  H10  1  0.84023808  0.70917001  0.58451138  1  0  0.100717  0  0.956411  0  0  0.115712  0  1.014307  0  0  0.118599  0  1.011994  0  0  0.114362  0.11354  0  1.016054  0
H  H11  1  0.34025142  0.29082819  0.91549191  1  0  0.10066  0  0.956538  0  0  0.115741  0  1.014342  0  0  0.118627  0  1.012026  0  0  0.114344  0.113562  0  1.016088  0
H  H12  1  0.06491783  0.53140440  0.72505130  1  0  0.102244  0  0.964157  0  0  0.10603  0  1.03455  0  0  0.110583  0  1.029386  0  0  0.121589  0.102703  0  1.03829  0
H  H13  1  0.56493160  0.46857624  0.77494217  1  0  0.102207  0  0.964194  0  0  0.105991  0  1.034575  0  0  0.110536  0  1.029419  0  0  0.121605  0.102664  0  1.03832  0
H  H14  1  0.93508023  0.46859036  0.27494878  1  0  0.102201  0  0.964184  0  0  0.106054  0  1.034501  0  0  0.110572  0  1.029377  0  0  0.1216  0.102724  0  1.03824  0
H  H15  1  0.43506884  0.53140978  0.22505555  1  0  0.102254  0  0.964199  0  0  0.106049  0  1.034544  0  0  0.110584  0  1.029402  0  0  0.121595  0.102716  0  1.038288  0
H  H16  1  0.53577666  0.04152095  0.91733973  1  0  0.043438  0  0.95754  0  0  0.052251  0  1.031986  0  0  0.054048  0  1.026815  0  0  0.119678  0.050732  0  1.035853  0
H  H17  1  0.03579325  0.95847377  0.58265351  1  0  0.043305  0  0.957569  0  0  0.052208  0  1.031896  0  0  0.054013  0  1.026723  0  0  0.119611  0.050685  0  1.035774  0
H  H18  1  0.46421068  0.95847207  0.08265506  1  0  0.04334  0  0.957643  0  0  0.052287  0  1.031898  0  0  0.054093  0  1.026725  0  0  0.119639  0.050766  0  1.03577  0
H  H19  1  0.96420718  0.04152362  0.41734536  1  0  0.043321  0  0.957555  0  0  0.052228  0  1.031856  0  0  0.054031  0  1.026684  0  0  0.119643  0.050702  0  1.035731  0
H  H20  1  0.87642827  0.86280988  0.73674655  1  0  0.086593  0  0.974116  0  0  0.103623  0  1.049625  0  0  0.10343  0  1.051068  0  0  0.100114  0.103633  0  1.048767  0
H  H21  1  0.37643368  0.13719259  0.76325190  1  0  0.086539  0  0.974121  0  0  0.103545  0  1.04965  0  0  0.103349  0  1.051095  0  0  0.100086  0.103559  0  1.04879  0
H  H22  1  0.12356383  0.13718925  0.26325513  1  0  0.086568  0  0.97407  0  0  0.103574  0  1.049589  0  0  0.103379  0  1.051033  0  0  0.100104  0.103589  0  1.048728  0
H  H23  1  0.62357033  0.86280742  0.23674493  1  0  0.08656  0  0.974074  0  0  0.103566  0  1.049611  0  0  0.103373  0  1.051052  0  0  0.100106  0.103578  0  1.048752  0
H  H24  1  0.68103158  0.79888569  0.71367847  1  0  0.113475  0  0.960336  0  0  0.127727  0  1.028393  0  0  0.129478  0  1.027174  0  0  0.10824  0.126306  0  1.029434  0
H  H25  1  0.18103440  0.20111472  0.78631753  1  0  0.113386  0  0.960372  0  0  0.127668  0  1.028428  0  0  0.129421  0  1.027201  0  0  0.10818  0.126245  0  1.029473  0
H  H26  1  0.31896647  0.20111082  0.28631858  1  0  0.113485  0  0.960344  0  0  0.12771  0  1.028448  0  0  0.129462  0  1.027225  0  0  0.108217  0.126287  0  1.02949  0
H  H27  1  0.81896722  0.79888441  0.21367916  1  0  0.113459  0  0.960344  0  0  0.127713  0  1.028393  0  0  0.129464  0  1.027175  0  0  0.108256  0.12629  0  1.029438  0
H  H28  1  0.81465924  0.75583607  0.81679223  1  0  0.111497  0  0.945357  0  0  0.129007  0  1.010784  0  0  0.129975  0  1.010476  0  0  0.103111  0.12817  0  1.01113  0
H  H29  1  0.31465795  0.24416745  0.68320684  1  0  0.111459  0  0.945402  0  0  0.128981  0  1.010802  0  0  0.129947  0  1.0105  0  0  0.103097  0.128145  0  1.011146  0
H  H30  1  0.18534001  0.24416219  0.18320597  1  0  0.111568  0  0.945374  0  0  0.12908  0  1.010768  0  0  0.130049  0  1.01046  0  0  0.103126  0.128241  0  1.011113  0
H  H31  1  0.68534368  0.75583169  0.31678818  1  0  0.111538  0  0.94526  0  0  0.129039  0  1.010684  0  0  0.13001  0  1.010382  0  0  0.103119  0.128203  0  1.011028  0
H  H32  1  0.84123378  0.89456158  0.00284184  1  0  0.115228  0  0.927286  0  0  0.132763  0  0.990131  0  0  0.134399  0  0.988712  0  0  0.106065  0.131459  0  0.991282  0
H  H33  1  0.34124615  0.10543795  0.49715845  1  0  0.115226  0  0.927406  0  0  0.132801  0  0.990173  0  0  0.134435  0  0.988758  0  0  0.106105  0.131497  0  0.991321  0
H  H34  1  0.15875713  0.10543056  0.99715695  1  0  0.115202  0  0.927319  0  0  0.132787  0  0.99009  0  0  0.134422  0  0.988671  0  0  0.106082  0.131483  0  0.991241  0
H  H35  1  0.65875667  0.89455856  0.50283777  1  0  0.115217  0  0.927413  0  0  0.132776  0  0.990193  0  0  0.134408  0  0.988787  0  0  0.106082  0.131472  0  0.991337  0
H  H36  1  0.74846146  0.03603893  0.01448802  1  0  0.105436  0  0.956882  0  0  0.122428  0  1.027321  0  0  0.123208  0  1.027313  0  0  0.108417  0.121709  0  1.027485  0
H  H37  1  0.24847149  0.96396525  0.48550750  1  0  0.105422  0  0.956932  0  0  0.122434  0  1.027358  0  0  0.123213  0  1.02735  0  0  0.108363  0.121728  0  1.027504  0
H  H38  1  0.25153302  0.96395583  0.98551456  1  0  0.105354  0  0.956982  0  0  0.122367  0  1.027444  0  0  0.123146  0  1.027435  0  0  0.108383  0.121649  0  1.027604  0
H  H39  1  0.75152776  0.03603388  0.51449085  1  0  0.105462  0  0.956883  0  0  0.122455  0  1.027315  0  0  0.123237  0  1.027308  0  0  0.108394  0.121747  0  1.027461  0
H  H40  1  0.91882971  0.00088722  0.92676486  1  0  0.111493  0  0.952255  0  0  0.131855  0  1.014024  0  0  0.132809  0  1.014001  0  0  0.108473  0.131102  0  1.014092  0
H  H41  1  0.41883156  0.99911251  0.57323670  1  0  0.1115  0  0.95224  0  0  0.131851  0  1.014043  0  0  0.1328  0  1.014026  0  0  0.108439  0.131098  0  1.014107  0
H  H42  1  0.08116596  0.99910754  0.07323771  1  0  0.111435  0  0.952256  0  0  0.131806  0  1.014081  0  0  0.132756  0  1.014061  0  0  0.108454  0.131055  0  1.014147  0
H  H43  1  0.58116530  0.00088401  0.42676035  1  0  0.111497  0  0.952221  0  0  0.131856  0  1.014023  0  0  0.132809  0  1.014005  0  0  0.10844  0.131102  0  1.014091  0
C  C44  1  0.29538222  0.56592040  0.51177930  1  0  0.102487  0  3.720953  0  0  0.099753  0  3.963285  0  0  0.102663  0  3.982102  0  0  0.121866  0.097734  0  3.950734  0
C  C45  1  0.79539913  0.43408405  0.98822895  1  0  0.102496  0  3.720862  0  0  0.0998  0  3.963091  0  0  0.102717  0  3.981907  0  0  0.121759  0.097776  0  3.950525  0
C  C46  1  0.70461583  0.43407873  0.48821904  1  0  0.102664  0  3.720794  0  0  0.099933  0  3.963129  0  0  0.10284  0  3.981956  0  0  0.121871  0.097911  0  3.950569  0
C  C47  1  0.20461203  0.56592120  0.01177628  1  0  0.102741  0  3.720851  0  0  0.100003  0  3.963186  0  0  0.102893  0  3.982011  0  0  0.121889  0.097993  0  3.950643  0
C  C48  1  0.27814649  0.45935242  0.43821393  1  0  -0.098581  0  3.665684  0  0  -0.119963  0  3.921265  0  0  -0.126077  0  3.940572  0  0  -0.068051  -0.116143  0  3.908497  0
C  C49  1  0.77814968  0.54064992  0.06178895  1  0  -0.098622  0  3.665528  0  0  -0.119953  0  3.921023  0  0  -0.126066  0  3.940323  0  0  -0.06806  -0.116131  0  3.908253  0
C  C50  1  0.72185038  0.54064671  0.56178026  1  0  -0.09865  0  3.665702  0  0  -0.120052  0  3.9213  0  0  -0.126165  0  3.940607  0  0  -0.06809  -0.116236  0  3.908534  0
C  C51  1  0.22184837  0.45935009  0.93821704  1  0  -0.098711  0  3.665472  0  0  -0.120094  0  3.921101  0  0  -0.126206  0  3.940404  0  0  -0.068164  -0.116276  0  3.90832  0
C  C52  1  0.17845927  0.37513370  0.46994551  1  0  0.005581  0  3.661057  0  0  -0.024193  0  3.90648  0  0  -0.018165  0  3.921933  0  0  -0.051714  -0.027742  0  3.895915  0
C  C53  1  0.67845659  0.62486369  0.03004921  1  0  0.005538  0  3.660964  0  0  -0.024271  0  3.906388  0  0  -0.018239  0  3.921828  0  0  -0.051732  -0.027825  0  3.895833  0
C  C54  1  0.82153878  0.62486631  0.53005050  1  0  0.00556  0  3.661048  0  0  -0.024182  0  3.906483  0  0  -0.018152  0  3.921934  0  0  -0.05169  -0.027738  0  3.895927  0
C  C55  1  0.32153789  0.37513107  0.96995087  1  0  0.005523  0  3.660998  0  0  -0.024299  0  3.906433  0  0  -0.018264  0  3.92189  0  0  -0.051686  -0.027839  0  3.895855  0
C  C56  1  0.09921483  0.39849754  0.57360475  1  0  -0.103783  0  3.727776  0  0  -0.08074  0  3.968422  0  0  -0.092248  0  3.990897  0  0  -0.007917  -0.073592  0  3.953558  0
C  C57  1  0.59921050  0.60149699  0.92638886  1  0  -0.103634  0  3.727331  0  0  -0.080671  0  3.968064  0  0  -0.092168  0  3.990515  0  0  -0.00789  -0.073528  0  3.953214  0
C  C58  1  0.90078918  0.60150334  0.42639307  1  0  -0.103683  0  3.727724  0  0  -0.080627  0  3.968368  0  0  -0.092126  0  3.990819  0  0  -0.007861  -0.073487  0  3.953515  0
C  C59  1  0.40078160  0.39849602  0.07361257  1  0  -0.103784  0  3.727628  0  0  -0.080767  0  3.968294  0  0  -0.092277  0  3.990775  0  0  -0.007964  -0.073615  0  3.953418  0
C  C60  1  0.12370064  0.50711158  0.64315793  1  0  0.129754  0  3.64577  0  0  0.087536  0  3.894784  0  0  0.096362  0  3.909244  0  0  0.064644  0.08193  0  3.884917  0
C  C61  1  0.62371293  0.49288462  0.85683614  1  0  0.12987  0  3.64544  0  0  0.08772  0  3.894359  0  0  0.096552  0  3.908825  0  0  0.06474  0.082104  0  3.884492  0
C  C62  1  0.87629980  0.49288930  0.35684072  1  0  0.129868  0  3.64554  0  0  0.087602  0  3.894548  0  0  0.096453  0  3.909018  0  0  0.064664  0.081992  0  3.884677  0
C  C63  1  0.37628632  0.50711101  0.14316243  1  0  0.129758  0  3.645696  0  0  0.087637  0  3.894601  0  0  0.096457  0  3.909062  0  0  0.064663  0.082041  0  3.884734  0
C  C64  1  0.39675450  0.66464155  0.48347902  1  0  0.60706  0  3.924798  0  0  0.552271  0  4.229358  0  0  0.585313  0  4.221639  0  0  0.213755  0.529895  0  4.233801  0
C  C65  1  0.89677423  0.33535958  0.01652940  1  0  0.606922  0  3.924684  0  0  0.552085  0  4.229318  0  0  0.585129  0  4.2216  0  0  0.213705  0.529708  0  4.233754  0
C  C66  1  0.60323998  0.33535322  0.51651774  1  0  0.607046  0  3.924738  0  0  0.552184  0  4.229356  0  0  0.58523  0  4.221642  0  0  0.213804  0.529812  0  4.233791  0
C  C67  1  0.10324049  0.66464655  0.98347432  1  0  0.606774  0  3.924664  0  0  0.551968  0  4.229236  0  0  0.585007  0  4.221529  0  0  0.213727  0.529602  0  4.233662  0
C  C68  1  0.98666388  0.31054405  0.60780222  1  0  0.637629  0  3.917261  0  0  0.585373  0  4.211396  0  0  0.619934  0  4.204532  0  0  0.2149  0.562056  0  4.215157  0
C  C69  1  0.48664987  0.68944849  0.89219686  1  0  0.637734  0  3.917212  0  0  0.585456  0  4.211362  0  0  0.620011  0  4.204498  0  0  0.214991  0.562142  0  4.215122  0
C  C70  1  0.01335322  0.68945508  0.39220278  1  0  0.637845  0  3.917036  0  0  0.58561  0  4.211169  0  0  0.620172  0  4.204304  0  0  0.215068  0.562297  0  4.214928  0
C  C71  1  0.51334222  0.31054453  0.10780374  1  0  0.637553  0  3.917386  0  0  0.585232  0  4.211579  0  0  0.619788  0  4.204723  0  0  0.214949  0.561914  0  4.215334  0
C  C72  1  0.56612810  0.96822160  0.84873969  1  0  0.362572  0  3.860085  0  0  0.285059  0  4.152642  0  0  0.312894  0  4.15367  0  0  0.169675  0.266513  0  4.151344  0
C  C73  1  0.06612929  0.03177477  0.65126402  1  0  0.362594  0  3.860302  0  0  0.284991  0  4.152943  0  0  0.312818  0  4.153984  0  0  0.169615  0.266443  0  4.151666  0
C  C74  1  0.43386519  0.03177141  0.15125925  1  0  0.362516  0  3.860146  0  0  0.284913  0  4.15274  0  0  0.312739  0  4.15378  0  0  0.169653  0.266371  0  4.151444  0
C  C75  1  0.93386757  0.96822174  0.34873886  1  0  0.362679  0  3.860168  0  0  0.285118  0  4.152755  0  0  0.312945  0  4.153791  0  0  0.169727  0.266575  0  4.151469  0
C  C76  1  0.77331116  0.82818906  0.77662639  1  0  -0.185575  0  3.638466  0  0  -0.285457  0  3.88511  0  0  -0.281855  0  3.893643  0  0  -0.141796  -0.287576  0  3.879407  0
C  C77  1  0.27331456  0.17181196  0.72337114  1  0  -0.185481  0  3.638622  0  0  -0.285374  0  3.885274  0  0  -0.28177  0  3.893813  0  0  -0.141769  -0.287494  0  3.879568  0
C  C78  1  0.22668570  0.17180832  0.22337249  1  0  -0.185678  0  3.638641  0  0  -0.28551  0  3.88524  0  0  -0.281906  0  3.893772  0  0  -0.141813  -0.287628  0  3.879532  0
C  C79  1  0.72668825  0.82818543  0.27662440  1  0  -0.185634  0  3.638417  0  0  -0.285478  0  3.885118  0  0  -0.281883  0  3.89366  0  0  -0.141867  -0.287599  0  3.879419  0
C  C80  1  0.80965404  0.96554027  0.95762496  1  0  -0.18612  0  3.633922  0  0  -0.286003  0  3.878822  0  0  -0.282867  0  3.888706  0  0  -0.133059  -0.287753  0  3.872088  0
C  C81  1  0.30965971  0.03446239  0.54237309  1  0  -0.186239  0  3.634195  0  0  -0.286189  0  3.879094  0  0  -0.283058  0  3.888997  0  0  -0.133111  -0.287952  0  3.872339  0
C  C82  1  0.19034044  0.03445537  0.04237444  1  0  -0.185997  0  3.633984  0  0  -0.285988  0  3.878848  0  0  -0.282862  0  3.88876  0  0  -0.133058  -0.287738  0  3.872105  0
C  C83  1  0.69033953  0.96553587  0.45762343  1  0  -0.186203  0  3.634141  0  0  -0.286109  0  3.878989  0  0  -0.282968  0  3.888855  0  0  -0.133066  -0.287878  0  3.872246  0
N  N84  1  0.21962467  0.58744386  0.61206610  1  0  -0.312579  0  3.28875  0  0  -0.23116  0  3.528149  0  0  -0.248651  0  3.549159  0  0  -0.285652  -0.219236  0  3.513774  0
N  N85  1  0.71965351  0.41256431  0.88793566  1  0  -0.312577  0  3.288785  0  0  -0.23115  0  3.528084  0  0  -0.248644  0  3.549087  0  0  -0.285613  -0.219211  0  3.513702  0
N  N86  1  0.78037338  0.41255615  0.38793074  1  0  -0.31274  0  3.288637  0  0  -0.231305  0  3.528068  0  0  -0.248794  0  3.549064  0  0  -0.2857  -0.219373  0  3.513679  0
N  N87  1  0.28036717  0.58744619  0.11206800  1  0  -0.312667  0  3.288706  0  0  -0.231326  0  3.528131  0  0  -0.248765  0  3.549081  0  0  -0.285646  -0.219431  0  3.513781  0
N  N88  1  0.70809255  0.92100675  0.86149715  1  0  -0.071351  0  3.527323  0  0  0.034843  0  3.753846  0  0  0.014171  0  3.78097  0  0  -0.277957  0.048577  0  3.735145  0
N  N89  1  0.20809795  0.07899533  0.63850015  1  0  -0.071296  0  3.527265  0  0  0.034898  0  3.753813  0  0  0.014224  0  3.780944  0  0  -0.277926  0.04863  0  3.735113  0
N  N90  1  0.29190074  0.07898888  0.13850392  1  0  -0.071247  0  3.527379  0  0  0.034953  0  3.753923  0  0  0.014282  0  3.781049  0  0  -0.277905  0.048688  0  3.73522  0
N  N91  1  0.79190248  0.92100381  0.36149653  1  0  -0.071272  0  3.52733  0  0  0.034896  0  3.753864  0  0  0.014225  0  3.780999  0  0  -0.277928  0.048631  0  3.735162  0
O  O92  1  0.41889085  0.75314507  0.56495776  1  0  -0.588618  0  2.043646  0  0  -0.507963  0  2.291169  0  0  -0.534232  0  2.281981  0  0  -0.282962  -0.48954  0  2.296975  0
O  O93  1  0.91891452  0.24686777  0.93504444  1  0  -0.588436  0  2.043588  0  0  -0.507816  0  2.291144  0  0  -0.534085  0  2.281961  0  0  -0.282901  -0.489396  0  2.296946  0
O  O94  1  0.58110720  0.24684970  0.43503900  1  0  -0.588735  0  2.043729  0  0  -0.507964  0  2.291212  0  0  -0.534234  0  2.282022  0  0  -0.283027  -0.489553  0  2.297017  0
O  O95  1  0.08110378  0.75315060  0.06494978  1  0  -0.588522  0  2.043607  0  0  -0.507793  0  2.291069  0  0  -0.534047  0  2.28187  0  0  -0.282957  -0.489375  0  2.296872  0
O  O96  1  0.45225864  0.65641269  0.38626121  1  0  -0.589569  0  1.941962  0  0  -0.542851  0  2.172108  0  0  -0.565972  0  2.16642  0  0  -0.299665  -0.5266  0  2.175573  0
O  O97  1  0.95227007  0.34358652  0.11375888  1  0  -0.589587  0  1.941663  0  0  -0.542859  0  2.171854  0  0  -0.56598  0  2.166161  0  0  -0.299634  -0.526606  0  2.175313  0
O  O98  1  0.54773108  0.34358470  0.61373683  1  0  -0.589558  0  1.941969  0  0  -0.542855  0  2.172226  0  0  -0.565954  0  2.166481  0  0  -0.299641  -0.5266  0  2.175685  0
O  O99  1  0.04772917  0.65641174  0.88624930  1  0  -0.589498  0  1.941709  0  0  -0.542756  0  2.171816  0  0  -0.565881  0  2.166135  0  0  -0.29961  -0.526493  0  2.175268  0
O  O100  1  0.94931598  0.33201415  0.71469079  1  0  -0.601452  0  2.060543  0  0  -0.519886  0  2.305904  0  0  -0.548036  0  2.299058  0  0  -0.281532  -0.500107  0  2.309947  0
O  O101  1  0.44928762  0.66798724  0.78530544  1  0  -0.6016  0  2.060366  0  0  -0.520049  0  2.305805  0  0  -0.548195  0  2.29896  0  0  -0.281631  -0.500261  0  2.309832  0
O  O102  1  0.05072851  0.66799809  0.28531650  1  0  -0.601658  0  2.060348  0  0  -0.520238  0  2.305916  0  0  -0.548394  0  2.299067  0  0  -0.281736  -0.500453  0  2.30995  0
O  O103  1  0.55070210  0.33200927  0.21469744  1  0  -0.601505  0  2.060383  0  0  -0.519881  0  2.30579  0  0  -0.54802  0  2.298939  0  0  -0.281572  -0.500098  0  2.309817  0
O  O104  1  0.93654178  0.22732580  0.53617327  1  0  -0.614119  0  1.946134  0  0  -0.566422  0  2.181187  0  0  -0.590353  0  2.174425  0  0  -0.302602  -0.549537  0  2.18513  0
O  O105  1  0.43653878  0.77266339  0.96382407  1  0  -0.614155  0  1.94621  0  0  -0.566472  0  2.181316  0  0  -0.590409  0  2.174571  0  0  -0.302665  -0.549586  0  2.185269  0
O  O106  1  0.06346222  0.77267683  0.46383567  1  0  -0.61427  0  1.946014  0  0  -0.566548  0  2.181052  0  0  -0.590462  0  2.174256  0  0  -0.302681  -0.549659  0  2.18499  0
O  O107  1  0.56346523  0.22732875  0.03618304  1  0  -0.614056  0  1.946414  0  0  -0.566355  0  2.181533  0  0  -0.590279  0  2.174766  0  0  -0.302638  -0.549473  0  2.185475  0
O  O108  1  0.47318270  0.93666628  0.76660684  1  0  -0.55756  0  2.127751  0  0  -0.489938  0  2.385535  0  0  -0.51343  0  2.379721  0  0  -0.298341  -0.473478  0  2.388919  0
O  O109  1  0.97319443  0.06331668  0.73338882  1  0  -0.557523  0  2.127761  0  0  -0.489913  0  2.385617  0  0  -0.513416  0  2.37983  0  0  -0.298306  -0.473397  0  2.388847  0
O  O110  1  0.52681416  0.06332149  0.23339035  1  0  -0.557561  0  2.127536  0  0  -0.48991  0  2.385333  0  0  -0.513409  0  2.379534  0  0  -0.298338  -0.473413  0  2.388627  0
O  O111  1  0.02680600  0.93667721  0.26661194  1  0  -0.557544  0  2.127956  0  0  -0.489939  0  2.385856  0  0  -0.513439  0  2.380052  0  0  -0.298321  -0.473449  0  2.389155  0
