# generated using pymatgen
data_SnP2H30(C7O)4
_symmetry_space_group_name_H-M   'P 1'
_cell_length_a   5.53862958
_cell_length_b   9.96419183
_cell_length_c   12.31439872
_cell_angle_alpha   80.46949057
_cell_angle_beta   76.98222738
_cell_angle_gamma   73.15333295
_symmetry_Int_Tables_number   1
_chemical_formula_structural   SnP2H30(C7O)4
_chemical_formula_sum   'Sn1 P2 H30 C28 O4'
_cell_volume   630.04830223
_cell_formula_units_Z   1
loop_
 _symmetry_equiv_pos_site_id
 _symmetry_equiv_pos_as_xyz
  1  'x, y, z'
loop_
 _atom_site_type_symbol
 _atom_site_label
 _atom_site_symmetry_multiplicity
 _atom_site_fract_x
 _atom_site_fract_y
 _atom_site_fract_z
 _atom_site_occupancy
 _atom_site_hle17_bader_spin_density
 _atom_site_hle17_ddec_charge
 _atom_site_hle17_ddec_spin_density
 _atom_site_hle17_ddec_sum_bond_order
 _atom_site_hle17_magmom
 _atom_site_hse06_10hf_bader_spin_density
 _atom_site_hse06_10hf_ddec_charge
 _atom_site_hse06_10hf_ddec_spin_density
 _atom_site_hse06_10hf_ddec_sum_bond_order
 _atom_site_hse06_10hf_magmom
 _atom_site_hse06_bader_spin_density
 _atom_site_hse06_ddec_charge
 _atom_site_hse06_ddec_spin_density
 _atom_site_hse06_ddec_sum_bond_order
 _atom_site_hse06_magmom
 _atom_site_pbe_bader_spin_density
 _atom_site_pbe_cm5_charge
 _atom_site_pbe_ddec_charge
 _atom_site_pbe_ddec_spin_density
 _atom_site_pbe_ddec_sum_bond_order
 _atom_site_pbe_magmom
Sn  Sn0  1  0.99999694  0.00000215  0.00000164  1  0  1.638261  0  2.727326  0  0  1.476789  0  3.229177  0  0  1.527955  0  3.196013  0  0  0.655598  1.442134  0  3.25059  0
P  P1  1  0.36237312  0.07255138  0.17719599  1  0  1.22234  0  4.679314  0  0  1.083582  0  5.138358  0  0  1.126869  0  5.113376  0  0  0.326779  1.053093  0  5.155903  0
P  P2  1  0.63764278  0.92744288  0.82281332  1  0  1.222423  0  4.679332  0  0  1.083754  0  5.138426  0  0  1.12702  0  5.113432  0  0  0.326862  1.053259  0  5.155976  0
H  H3  1  0.23595352  0.74161160  0.07433320  1  0  0.109858  0  0.982776  0  0  0.125545  0  1.042571  0  0  0.127659  0  1.044107  0  0  0.088342  0.123924  0  1.041857  0
H  H4  1  0.76403329  0.25839758  0.92567767  1  0  0.10989  0  0.98266  0  0  0.125537  0  1.042508  0  0  0.127647  0  1.044047  0  0  0.08834  0.123914  0  1.041797  0
H  H5  1  0.95513547  0.80996608  0.17273097  1  0  0.100445  0  1.011882  0  0  0.11432  0  1.077377  0  0  0.115497  0  1.080691  0  0  0.083748  0.113093  0  1.075529  0
H  H6  1  0.04479319  0.19004991  0.82727610  1  0  0.100402  0  1.012128  0  0  0.11431  0  1.077551  0  0  0.115492  0  1.080861  0  0  0.083707  0.113084  0  1.075699  0
H  H7  1  0.91048988  0.59836655  0.10057165  1  0  0.085881  0  0.961134  0  0  0.108959  0  1.021485  0  0  0.108746  0  1.023557  0  0  0.079026  0.109233  0  1.020278  0
H  H8  1  0.08948504  0.40164404  0.89941411  1  0  0.085801  0  0.961125  0  0  0.108854  0  1.021526  0  0  0.108642  0  1.023597  0  0  0.078986  0.109126  0  1.020325  0
H  H9  1  0.95982766  0.67896862  0.96081939  1  0  0.085063  0  0.971277  0  0  0.107108  0  1.03286  0  0  0.107442  0  1.034146  0  0  0.081213  0.106612  0  1.03236  0
H  H10  1  0.04015926  0.32104593  0.03918026  1  0  0.085021  0  0.971236  0  0  0.107105  0  1.03279  0  0  0.107431  0  1.034087  0  0  0.081242  0.106623  0  1.03227  0
H  H11  1  0.68079668  0.75242293  0.05670500  1  0  0.094525  0  0.962923  0  0  0.11544  0  1.02606  0  0  0.116539  0  1.025976  0  0  0.085028  0.114691  0  1.026305  0
H  H12  1  0.31917506  0.24758129  0.94328994  1  0  0.094466  0  0.963076  0  0  0.115414  0  1.026161  0  0  0.116513  0  1.026076  0  0  0.085062  0.114677  0  1.026393  0
H  H13  1  0.89369279  0.22446392  0.31912431  1  0  0.086182  0  0.961636  0  0  0.09619  0  1.028065  0  0  0.098785  0  1.026864  0  0  0.101062  0.094276  0  1.029048  0
H  H14  1  0.10633864  0.77553569  0.68086347  1  0  0.0861  0  0.961316  0  0  0.09614  0  1.027752  0  0  0.098745  0  1.026539  0  0  0.101001  0.094221  0  1.028737  0
H  H15  1  0.75945835  0.46522503  0.37982572  1  0  0.078446  0  0.98015  0  0  0.088979  0  1.045104  0  0  0.091072  0  1.045218  0  0  0.095155  0.087546  0  1.04495  0
H  H16  1  0.24053236  0.53475999  0.62018369  1  0  0.078366  0  0.980236  0  0  0.088907  0  1.045185  0  0  0.090999  0  1.045304  0  0  0.095152  0.087491  0  1.045013  0
H  H17  1  0.05249542  0.62025985  0.32488856  1  0  0.081669  0  0.978684  0  0  0.093262  0  1.041454  0  0  0.095058  0  1.041723  0  0  0.097571  0.091846  0  1.041731  0
H  H18  1  0.94748364  0.37974625  0.67512175  1  0  0.08166  0  0.978835  0  0  0.093264  0  1.041561  0  0  0.095062  0  1.04183  0  0  0.0976  0.091847  0  1.041842  0
H  H19  1  0.48841089  0.53524625  0.20820496  1  0  0.088189  0  0.955964  0  0  0.099398  0  1.016308  0  0  0.101921  0  1.016224  0  0  0.101106  0.097438  0  1.016958  0
H  H20  1  0.51157094  0.46474734  0.79179526  1  0  0.088177  0  0.95585  0  0  0.099353  0  1.016231  0  0  0.101876  0  1.016148  0  0  0.101067  0.097366  0  1.016907  0
H  H21  1  0.62181025  0.29489907  0.14554145  1  0  0.100498  0  0.954995  0  0  0.111805  0  1.014771  0  0  0.114776  0  1.013451  0  0  0.108103  0.109735  0  1.01566  0
H  H22  1  0.37819976  0.70509437  0.85445142  1  0  0.10052  0  0.955087  0  0  0.111816  0  1.014878  0  0  0.11479  0  1.013535  0  0  0.108102  0.10974  0  1.015776  0
H  H23  1  0.20456105  0.82079465  0.28239100  1  0  0.088941  0  0.984269  0  0  0.097042  0  1.053566  0  0  0.099867  0  1.052328  0  0  0.101077  0.094971  0  1.054714  0
H  H24  1  0.79544395  0.17921238  0.71761041  1  0  0.088953  0  0.984121  0  0  0.097073  0  1.053409  0  0  0.0999  0  1.052171  0  0  0.101084  0.094999  0  1.054561  0
H  H25  1  0.33076993  0.64398436  0.44215428  1  0  0.076548  0  0.974275  0  0  0.087346  0  1.03904  0  0  0.089916  0  1.038253  0  0  0.095253  0.085526  0  1.03976  0
H  H26  1  0.66923646  0.35600912  0.55783728  1  0  0.076587  0  0.974534  0  0  0.087417  0  1.039245  0  0  0.089938  0  1.038513  0  0  0.095254  0.085606  0  1.039937  0
H  H27  1  0.65352258  0.67122689  0.54414968  1  0  0.080339  0  0.986243  0  0  0.088896  0  1.052583  0  0  0.090292  0  1.054335  0  0  0.093596  0.087835  0  1.051726  0
H  H28  1  0.34649615  0.32875292  0.45583433  1  0  0.080268  0  0.986176  0  0  0.088794  0  1.052578  0  0  0.090192  0  1.054331  0  0  0.093569  0.087687  0  1.051763  0
H  H29  1  0.85202104  0.87118843  0.48363206  1  0  0.088665  0  0.954896  0  0  0.100647  0  1.012833  0  0  0.102734  0  1.013588  0  0  0.099397  0.099168  0  1.012211  0
H  H30  1  0.14799642  0.12879004  0.51638066  1  0  0.088454  0  0.95483  0  0  0.100458  0  1.012765  0  0  0.102543  0  1.013525  0  0  0.099316  0.098978  0  1.01215  0
H  H31  1  0.73251707  0.04380083  0.32159047  1  0  0.089801  0  0.959969  0  0  0.100163  0  1.02529  0  0  0.102935  0  1.023625  0  0  0.10134  0.098161  0  1.02666  0
H  H32  1  0.26751235  0.95619845  0.67843003  1  0  0.08992  0  0.960092  0  0  0.10028  0  1.02535  0  0  0.10303  0  1.023734  0  0  0.101392  0.098277  0  1.026719  0
C  C33  1  0.02845764  0.79056584  0.08469857  1  0  -0.452415  0  3.617439  0  0  -0.468982  0  3.889365  0  0  -0.48355  0  3.908556  0  0  -0.236269  -0.458744  0  3.876127  0
C  C34  1  0.97153356  0.20945494  0.91530401  1  0  -0.452459  0  3.617983  0  0  -0.469045  0  3.889987  0  0  -0.483602  0  3.909157  0  0  -0.236248  -0.458799  0  3.876733  0
C  C35  1  0.88716134  0.70072350  0.04848830  1  0  -0.226453  0  3.780348  0  0  -0.298257  0  4.023748  0  0  -0.298192  0  4.038607  0  0  -0.252941  -0.298555  0  4.014036  0
C  C36  1  0.11281382  0.29928908  0.95150776  1  0  -0.226163  0  3.78087  0  0  -0.298007  0  4.024292  0  0  -0.297939  0  4.039165  0  0  -0.252915  -0.298327  0  4.014558  0
C  C37  1  0.02531402  0.29173930  0.29578810  1  0  -0.050727  0  3.763542  0  0  -0.073913  0  4.010427  0  0  -0.073777  0  4.032008  0  0  -0.081746  -0.073377  0  3.995189  0
C  C38  1  0.97468554  0.70824898  0.70420388  1  0  -0.05065  0  3.762844  0  0  -0.073817  0  4.009804  0  0  -0.073681  0  4.031377  0  0  -0.08175  -0.073286  0  3.994564  0
C  C39  1  0.94968891  0.42674116  0.32997050  1  0  -0.086519  0  3.779464  0  0  -0.097418  0  4.02767  0  0  -0.100777  0  4.049577  0  0  -0.092986  -0.094984  0  4.012209  0
C  C40  1  0.05028895  0.57324512  0.67002933  1  0  -0.08646  0  3.779437  0  0  -0.09738  0  4.027671  0  0  -0.10074  0  4.049585  0  0  -0.092985  -0.094955  0  4.012205  0
C  C41  1  0.11578309  0.51437390  0.29871925  1  0  -0.063529  0  3.761128  0  0  -0.075852  0  4.003581  0  0  -0.075828  0  4.023786  0  0  -0.08576  -0.075939  0  3.990337  0
C  C42  1  0.88420365  0.48561646  0.70128499  1  0  -0.063526  0  3.761397  0  0  -0.075857  0  4.003843  0  0  -0.075839  0  4.024052  0  0  -0.085782  -0.075951  0  3.990608  0
C  C43  1  0.35855049  0.46702608  0.23315777  1  0  -0.072688  0  3.754074  0  0  -0.081799  0  3.997562  0  0  -0.084806  0  4.018424  0  0  -0.087121  -0.079674  0  3.983884  0
C  C44  1  0.64145901  0.53297457  0.76684808  1  0  -0.072535  0  3.753962  0  0  -0.081591  0  3.997394  0  0  -0.084601  0  4.01826  0  0  -0.087021  -0.079443  0  3.983722  0
C  C45  1  0.43455246  0.33214532  0.19836020  1  0  -0.044776  0  3.73564  0  0  -0.0651  0  3.973179  0  0  -0.064713  0  3.993948  0  0  -0.076842  -0.065357  0  3.959032  0
C  C46  1  0.56545618  0.66785745  0.80164384  1  0  -0.044899  0  3.735442  0  0  -0.065205  0  3.973026  0  0  -0.064807  0  3.993784  0  0  -0.076851  -0.065463  0  3.95887  0
C  C47  1  0.26800464  0.24392778  0.22916955  1  0  -0.223309  0  3.779335  0  0  -0.18286  0  4.018822  0  0  -0.192399  0  4.04291  0  0  -0.026418  -0.176293  0  4.002659  0
C  C48  1  0.73200112  0.75608976  0.77083051  1  0  -0.223419  0  3.779078  0  0  -0.183066  0  4.01872  0  0  -0.192603  0  4.042809  0  0  -0.026435  -0.176475  0  4.002521  0
C  C49  1  0.34773790  0.82994659  0.32655594  1  0  -0.044497  0  3.754969  0  0  -0.064741  0  3.991628  0  0  -0.064343  0  4.013197  0  0  -0.080152  -0.064229  0  3.976522  0
C  C50  1  0.65226896  0.17005848  0.67343091  1  0  -0.044681  0  3.754887  0  0  -0.064941  0  3.991592  0  0  -0.064541  0  4.013141  0  0  -0.080203  -0.064422  0  3.976485  0
C  C51  1  0.41862657  0.73180266  0.41635822  1  0  -0.088356  0  3.784056  0  0  -0.098642  0  4.029742  0  0  -0.102153  0  4.051237  0  0  -0.096988  -0.096082  0  4.01476  0
C  C52  1  0.58138927  0.26821381  0.58363620  1  0  -0.088171  0  3.784415  0  0  -0.098477  0  4.030048  0  0  -0.101946  0  4.05155  0  0  -0.096847  -0.095914  0  4.015059  0
C  C53  1  0.59921310  0.74672581  0.47324198  1  0  -0.065049  0  3.759456  0  0  -0.075721  0  4.001462  0  0  -0.076122  0  4.022736  0  0  -0.090584  -0.076022  0  3.987342  0
C  C54  1  0.40081067  0.25327268  0.52675799  1  0  -0.065118  0  3.759666  0  0  -0.075771  0  4.00165  0  0  -0.076177  0  4.022913  0  0  -0.090678  -0.076034  0  3.987553  0
C  C55  1  0.71185495  0.85920174  0.43898049  1  0  -0.077045  0  3.766994  0  0  -0.087889  0  4.014076  0  0  -0.0913  0  4.035866  0  0  -0.091741  -0.085311  0  3.999408  0
C  C56  1  0.28817461  0.14079983  0.56102185  1  0  -0.076694  0  3.766891  0  0  -0.087547  0  4.013971  0  0  -0.090953  0  4.035761  0  0  -0.091602  -0.084969  0  3.999293  0
C  C57  1  0.64303934  0.95679800  0.34875437  1  0  -0.041663  0  3.752284  0  0  -0.064933  0  3.997924  0  0  -0.064182  0  4.018637  0  0  -0.078257  -0.065913  0  3.984285  0
C  C58  1  0.35696543  0.04319748  0.65124765  1  0  -0.041947  0  3.752533  0  0  -0.065197  0  3.998212  0  0  -0.064452  0  4.01892  0  0  -0.078412  -0.066173  0  3.984576  0
C  C59  1  0.45836959  0.94351637  0.29254546  1  0  -0.226182  0  3.769386  0  0  -0.183088  0  4.003994  0  0  -0.192754  0  4.027552  0  0  -0.028448  -0.176366  0  3.987985  0
C  C60  1  0.54164030  0.05648126  0.70744772  1  0  -0.226096  0  3.769122  0  0  -0.183032  0  4.003769  0  0  -0.192691  0  4.027331  0  0  -0.028421  -0.176315  0  3.987765  0
O  O61  1  0.12552910  0.04602739  0.14985828  1  0  -0.802579  0  2.009807  0  0  -0.715169  0  2.276172  0  0  -0.740659  0  2.260127  0  0  -0.330235  -0.696883  0  2.286451  0
O  O62  1  0.87446713  0.95396488  0.85015626  1  0  -0.802507  0  2.009913  0  0  -0.71514  0  2.276284  0  0  -0.740658  0  2.260334  0  0  -0.330261  -0.696861  0  2.286571  0
O  O63  1  0.40801008  0.92681556  0.91740308  1  0  -0.81075  0  2.0808  0  0  -0.722766  0  2.35332  0  0  -0.748539  0  2.336753  0  0  -0.329135  -0.704539  0  2.364192  0
O  O64  1  0.59197013  0.07316770  0.08258229  1  0  -0.810797  0  2.080946  0  0  -0.722743  0  2.353419  0  0  -0.748555  0  2.336891  0  0  -0.329098  -0.704523  0  2.364286  0
