# generated using pymatgen
data_TbH7C11N3O7
_symmetry_space_group_name_H-M   'P 1'
_cell_length_a   8.25866618
_cell_length_b   11.48841148
_cell_length_c   14.73220000
_cell_angle_alpha   90.00000000
_cell_angle_beta   90.00000000
_cell_angle_gamma   90.84633186
_symmetry_Int_Tables_number   1
_chemical_formula_structural   TbH7C11N3O7
_chemical_formula_sum   'Tb4 H28 C44 N12 O28'
_cell_volume   1397.62325835
_cell_formula_units_Z   4
loop_
 _symmetry_equiv_pos_site_id
 _symmetry_equiv_pos_as_xyz
  1  'x, y, z'
loop_
 _atom_site_type_symbol
 _atom_site_label
 _atom_site_symmetry_multiplicity
 _atom_site_fract_x
 _atom_site_fract_y
 _atom_site_fract_z
 _atom_site_occupancy
 _atom_site_hle17_bader_spin_density
 _atom_site_hle17_ddec_charge
 _atom_site_hle17_ddec_spin_density
 _atom_site_hle17_ddec_sum_bond_order
 _atom_site_hle17_magmom
 _atom_site_hse06_10hf_bader_spin_density
 _atom_site_hse06_10hf_ddec_charge
 _atom_site_hse06_10hf_ddec_spin_density
 _atom_site_hse06_10hf_ddec_sum_bond_order
 _atom_site_hse06_10hf_magmom
 _atom_site_hse06_bader_spin_density
 _atom_site_hse06_ddec_charge
 _atom_site_hse06_ddec_spin_density
 _atom_site_hse06_ddec_sum_bond_order
 _atom_site_hse06_magmom
 _atom_site_pbe_bader_charge
 _atom_site_pbe_bader_spin_density
 _atom_site_pbe_cm5_charge
 _atom_site_pbe_ddec_charge
 _atom_site_pbe_ddec_spin_density
 _atom_site_pbe_ddec_sum_bond_order
 _atom_site_pbe_magmom
Tb  Tb0  1  0.72190928  0.07046739  0.87008797  1  0  2.24174  0  1.700554  0  0  2.093795  0  2.182233  0  0  2.214294  0  1.999434  0  2.184229  0  1.51609  2.058027  0  2.215731  0
Tb  Tb1  1  0.27809072  0.42953269  0.37008865  1  0  2.241741  0  1.700567  0  0  2.093741  0  2.182336  0  0  2.214296  0  1.999444  0  2.184176  0  1.516093  2.057973  0  2.215833  0
Tb  Tb2  1  0.27808910  0.92953539  0.12990999  1  0  2.241736  0  1.700579  0  0  2.093812  0  2.182218  0  0  2.214284  0  1.999463  0  2.184225  0  1.51605  2.058042  0  2.215718  0
Tb  Tb3  1  0.72191242  0.57046572  0.62990864  1  0  2.241761  0  1.700545  0  0  2.093918  0  2.18206  0  0  2.214313  0  1.999432  0  2.184244  0  1.516075  2.058156  0  2.21555  0
H  H4  1  0.41581543  0.89898475  0.55773001  1  0  0.108681  0  0.946373  0  0  0.117685  0  1.007172  0  0  0.121295  0  1.005769  0  0.09729  0  0.108791  0.115154  0  1.008231  0
H  H5  1  0.58418480  0.60101288  0.05773136  1  0  0.108694  0  0.946364  0  0  0.117692  0  1.007162  0  0  0.121302  0  1.005757  0  0.097304  0  0.108788  0.115161  0  1.008221  0
H  H6  1  0.58418637  0.10100758  0.44227475  1  0  0.108726  0  0.946464  0  0  0.117764  0  1.007217  0  0  0.121379  0  1.005805  0  0.097201  0  0.108812  0.115233  0  1.008277  0
H  H7  1  0.41581361  0.39899163  0.94227407  1  0  0.108734  0  0.946414  0  0  0.11777  0  1.007167  0  0  0.121385  0  1.005756  0  0.097224  0  0.108817  0.115239  0  1.008228  0
H  H8  1  0.25149783  0.71804443  0.57734962  1  0  0.097767  0  0.933628  0  0  0.104593  0  0.997666  0  0  0.107876  0  0.994355  0  0.129582  0  0.123617  0.102297  0  0.999769  0
H  H9  1  0.74850240  0.78195319  0.07735029  1  0  0.097804  0  0.933615  0  0  0.104637  0  0.99764  0  0  0.107919  0  0.994329  0  0.129628  0  0.123627  0.102341  0  0.999743  0
H  H10  1  0.74850521  0.28194963  0.42265717  1  0  0.097806  0  0.933711  0  0  0.104636  0  0.997712  0  0  0.107918  0  0.994402  0  0.129599  0  0.123648  0.102339  0  0.999815  0
H  H11  1  0.25149479  0.21805045  0.92265717  1  0  0.097824  0  0.933704  0  0  0.104649  0  0.997709  0  0  0.107932  0  0.994399  0  0.129586  0  0.123655  0.102352  0  0.999812  0
H  H12  1  0.09283321  0.82153652  0.83175765  1  0  0.092548  0  0.915397  0  0  0.104195  0  0.970923  0  0  0.106809  0  0.969052  0  0.100831  0  0.125421  0.102307  0  0.972238  0
H  H13  1  0.90716591  0.67846546  0.33175765  1  0  0.09252  0  0.915372  0  0  0.104168  0  0.970904  0  0  0.106782  0  0.969031  0  0.100825  0  0.125403  0.10228  0  0.97222  0
H  H14  1  0.90716637  0.17846538  0.16824643  1  0  0.092452  0  0.915431  0  0  0.104097  0  0.970962  0  0  0.106714  0  0.969093  0  0.10089  0  0.125387  0.10221  0  0.972276  0
H  H15  1  0.09283363  0.32153470  0.66824643  1  0  0.092545  0  0.915422  0  0  0.104192  0  0.970949  0  0  0.106806  0  0.969079  0  0.100896  0  0.12543  0.102305  0  0.972263  0
H  H16  1  0.25258070  0.00783571  0.82287031  1  0  0.126448  0  0.936324  0  0  0.137489  0  0.991397  0  0  0.140734  0  0.989996  0  0.111043  0  0.121993  0.135292  0  0.99203  0
H  H17  1  0.74742294  0.49216437  0.32287371  1  0  0.126451  0  0.936276  0  0  0.13748  0  0.991367  0  0  0.140725  0  0.989968  0  0.110998  0  0.121987  0.135288  0  0.991994  0
H  H18  1  0.74741646  0.99216619  0.17712901  1  0  0.126459  0  0.936294  0  0  0.137488  0  0.991376  0  0  0.140733  0  0.989979  0  0.111059  0  0.121995  0.135302  0  0.991995  0
H  H19  1  0.25258139  0.50783317  0.67712833  1  0  0.126468  0  0.93628  0  0  0.137485  0  0.991384  0  0  0.140732  0  0.989983  0  0.111058  0  0.121981  0.135295  0  0.992008  0
H  H20  1  0.33784842  0.14483478  0.55487979  1  0  0.334006  0  0.827095  0  0  0.323457  0  0.87151  0  0  0.331536  0  0.865138  0  0.509335  0  0.349741  0.317746  0  0.875958  0
H  H21  1  0.66215040  0.35516704  0.05487979  1  0  0.333996  0  0.827113  0  0  0.323451  0  0.871527  0  0  0.33153  0  0.865156  0  0.50934  0  0.349741  0.317741  0  0.875974  0
H  H22  1  0.66214985  0.85516277  0.44511818  1  0  0.333879  0  0.827286  0  0  0.323397  0  0.871606  0  0  0.331476  0  0.865234  0  0.509394  0  0.349688  0.317684  0  0.876054  0
H  H23  1  0.33784923  0.64483747  0.94511750  1  0  0.33393  0  0.82723  0  0  0.323398  0  0.871616  0  0  0.331478  0  0.865244  0  0.509396  0  0.349699  0.317684  0  0.876066  0
H  H24  1  0.03516100  0.15406073  0.77800532  1  0  0.399858  0  0.920175  0  0  0.354324  0  1.007317  0  0  0.366565  0  0.990297  0  0.626343  0  0.284602  0.346027  0  1.018864  0
H  H25  1  0.96483899  0.34593848  0.27800532  1  0  0.399875  0  0.920145  0  0  0.354342  0  1.007284  0  0  0.366583  0  0.990266  0  0.626339  0  0.284607  0.346046  0  1.018831  0
H  H26  1  0.96483853  0.84593856  0.22199739  1  0  0.399801  0  0.920257  0  0  0.354308  0  1.007331  0  0  0.366548  0  0.990313  0  0.626347  0  0.284584  0.346012  0  1.018878  0
H  H27  1  0.03516055  0.65406168  0.72199739  1  0  0.399845  0  0.920206  0  0  0.354343  0  1.007289  0  0  0.366584  0  0.990272  0  0.626345  0  0.284611  0.346046  0  1.018837  0
H  H28  1  0.97111214  0.03153347  0.73055212  1  0  0.433151  0  0.833447  0  0  0.410458  0  0.891069  0  0  0.41981  0  0.877603  0  0.60551  0  0.315361  0.403917  0  0.900688  0
H  H29  1  0.02888786  0.46846661  0.23055280  1  0  0.433131  0  0.833386  0  0  0.410441  0  0.891073  0  0  0.419794  0  0.877605  0  0.605522  0  0.315328  0.403899  0  0.900693  0
H  H30  1  0.02888987  0.96846930  0.26944991  1  0  0.433096  0  0.833505  0  0  0.410401  0  0.891149  0  0  0.419753  0  0.877682  0  0.605471  0  0.315315  0.403859  0  0.900769  0
H  H31  1  0.97111041  0.53153094  0.76944991  1  0  0.433103  0  0.833501  0  0  0.41041  0  0.891136  0  0  0.419762  0  0.877669  0  0.60547  0  0.315312  0.403868  0  0.900755  0
C  C32  1  0.68833165  0.31546096  0.76205590  1  0  0.692023  0  3.915959  0  0  0.644466  0  4.214972  0  0  0.680342  0  4.206493  0  1.635299  0  0.224965  0.620568  0  4.22223  0
C  C33  1  0.31167084  0.18454260  0.26205726  1  0  0.691938  0  3.915964  0  0  0.644363  0  4.214975  0  0  0.68025  0  4.206485  0  1.635425  0  0.224897  0.620461  0  4.222239  0
C  C34  1  0.31166184  0.68453919  0.23794002  1  0  0.691805  0  3.91632  0  0  0.644323  0  4.215171  0  0  0.680201  0  4.206693  0  1.635472  0  0.22486  0.620428  0  4.222425  0
C  C35  1  0.68833845  0.81546104  0.73794138  1  0  0.691946  0  3.916084  0  0  0.644413  0  4.21502  0  0  0.68029  0  4.206538  0  1.635464  0  0.224923  0.620516  0  4.222275  0
C  C36  1  0.57441348  0.24043022  0.70808026  1  0  0.01959  0  3.725473  0  0  0.014506  0  3.981935  0  0  0.012445  0  4.005382  0  0.428185  0  0.095868  0.015385  0  3.968991  0
C  C37  1  0.42558654  0.25957073  0.20808094  1  0  0.01965  0  3.725471  0  0  0.014636  0  3.981838  0  0  0.012574  0  4.005285  0  0.427876  0  0.095931  0.015518  0  3.968897  0
C  C38  1  0.42557522  0.75957255  0.29191703  1  0  0.019698  0  3.725397  0  0  0.014648  0  3.981745  0  0  0.01259  0  4.005185  0  0.428054  0  0.095923  0.015526  0  3.968802  0
C  C39  1  0.57442628  0.74042769  0.79191838  1  0  0.019694  0  3.725407  0  0  0.014676  0  3.98176  0  0  0.012617  0  4.005198  0  0.428008  0  0.095927  0.015556  0  3.968816  0
C  C40  1  0.49801360  0.25651166  0.62507908  1  0  0.027518  0  3.652274  0  0  0.014864  0  3.908491  0  0  0.014022  0  3.924372  0  0.377645  0  0.099174  0.015725  0  3.896674  0
C  C41  1  0.50198521  0.24348929  0.12507976  1  0  0.027521  0  3.652195  0  0  0.014835  0  3.908408  0  0  0.013993  0  3.92429  0  0.37767  0  0.099166  0.015695  0  3.896597  0
C  C42  1  0.50197864  0.74348676  0.37491753  1  0  0.027409  0  3.652322  0  0  0.014724  0  3.908538  0  0  0.013882  0  3.92442  0  0.37761  0  0.099124  0.015587  0  3.896721  0
C  C43  1  0.49802040  0.75651174  0.87491821  1  0  0.027332  0  3.652431  0  0  0.014633  0  3.908645  0  0  0.013791  0  3.924527  0  0.377632  0  0.099057  0.015492  0  3.89683  0
C  C44  1  0.46795755  0.35620472  0.56395379  1  0  0.702759  0  3.926695  0  0  0.653918  0  4.225662  0  0  0.69006  0  4.217635  0  1.66025  0  0.236928  0.629587  0  4.233853  0
C  C45  1  0.53204248  0.14379710  0.06395107  1  0  0.702812  0  3.926663  0  0  0.653996  0  4.225597  0  0  0.690137  0  4.217566  0  1.660338  0  0.236949  0.629665  0  4.23379  0
C  C46  1  0.53204434  0.64379195  0.43604350  1  0  0.702635  0  3.926742  0  0  0.653809  0  4.225693  0  0  0.689952  0  4.217665  0  1.660069  0  0.236898  0.629476  0  4.233886  0
C  C47  1  0.46795592  0.85620654  0.93604078  1  0  0.702755  0  3.926919  0  0  0.653941  0  4.225829  0  0  0.690083  0  4.217802  0  1.660182  0  0.236951  0.629609  0  4.234019  0
C  C48  1  0.43439850  0.08110100  0.68076187  1  0  0.368895  0  3.703977  0  0  0.334086  0  3.982534  0  0  0.349366  0  3.995916  0  0.970122  0  0.237772  0.324165  0  3.974445  0
C  C49  1  0.56560392  0.41889908  0.18076390  1  0  0.368951  0  3.70407  0  0  0.334147  0  3.982635  0  0  0.349426  0  3.99602  0  0.969941  0  0.237843  0.324228  0  3.974544  0
C  C50  1  0.56559858  0.91889742  0.31923610  1  0  0.36881  0  3.703978  0  0  0.334003  0  3.98256  0  0  0.349275  0  3.99595  0  0.970083  0  0.237733  0.324082  0  3.97447  0
C  C51  1  0.43440048  0.58110195  0.81923542  1  0  0.368702  0  3.70408  0  0  0.333929  0  3.982595  0  0  0.349202  0  3.995983  0  0.970226  0  0.237712  0.324008  0  3.974503  0
C  C52  1  0.34648734  0.96959751  0.68907292  1  0  0.036194  0  3.775534  0  0  0.049238  0  4.015737  0  0  0.050594  0  4.036513  0  0.030487  0  0.016266  0.048247  0  4.001364  0
C  C53  1  0.65351533  0.53040098  0.18907359  1  0  0.03625  0  3.775675  0  0  0.049283  0  4.015884  0  0  0.050642  0  4.036659  0  0.03049  0  0.016288  0.048291  0  4.001511  0
C  C54  1  0.65351093  0.03040003  0.31092844  1  0  0.036309  0  3.775467  0  0  0.04932  0  4.015697  0  0  0.050687  0  4.036478  0  0.030231  0  0.01628  0.048329  0  4.001325  0
C  C55  1  0.34648784  0.46959917  0.81092776  1  0  0.036272  0  3.775658  0  0  0.049303  0  4.015835  0  0  0.050667  0  4.036617  0  0.030273  0  0.016282  0.048312  0  4.001462  0
C  C56  1  0.34471309  0.88654738  0.61932909  1  0  -0.140274  0  3.689661  0  0  -0.160358  0  3.938757  0  0  -0.166316  0  3.95852  0  -0.062739  0  -0.07581  -0.156677  0  3.925604  0
C  C57  1  0.65528596  0.61345112  0.11933045  1  0  -0.140306  0  3.689693  0  0  -0.160377  0  3.938777  0  0  -0.166336  0  3.958539  0  -0.062777  0  -0.075837  -0.156695  0  3.925623  0
C  C58  1  0.65528513  0.11344755  0.38067363  1  0  -0.140344  0  3.689787  0  0  -0.160467  0  3.938851  0  0  -0.166435  0  3.958618  0  -0.062652  0  -0.075847  -0.156784  0  3.925696  0
C  C59  1  0.34471364  0.38655165  0.88067295  1  0  -0.140286  0  3.689757  0  0  -0.160419  0  3.938813  0  0  -0.166385  0  3.958579  0  -0.062645  0  -0.075839  -0.156737  0  3.925658  0
C  C60  1  0.25470800  0.78387969  0.63071707  1  0  0.148377  0  3.662456  0  0  0.115496  0  3.923125  0  0  0.122333  0  3.93803  0  0.514843  0  0.061653  0.11105  0  3.912767  0
C  C61  1  0.74529105  0.71611968  0.13071775  1  0  0.148255  0  3.662411  0  0  0.115366  0  3.923084  0  0  0.122204  0  3.937988  0  0.514878  0  0.061609  0.11092  0  3.912725  0
C  C62  1  0.74529266  0.21611612  0.36928904  1  0  0.148242  0  3.662631  0  0  0.115401  0  3.923252  0  0  0.12224  0  3.938157  0  0.514832  0  0.06162  0.110956  0  3.912892  0
C  C63  1  0.25470612  0.28388309  0.86928768  1  0  0.148227  0  3.662619  0  0  0.115392  0  3.92323  0  0  0.12223  0  3.938136  0  0.514864  0  0.061632  0.110948  0  3.912871  0
C  C64  1  0.16770042  0.84153364  0.77247254  1  0  0.118581  0  3.696861  0  0  0.087776  0  3.955051  0  0  0.093406  0  3.971381  0  0.53615  0  0.050929  0.084087  0  3.943597  0
C  C65  1  0.83229864  0.65846573  0.27247322  1  0  0.118632  0  3.696809  0  0  0.087816  0  3.955007  0  0  0.093448  0  3.971337  0  0.536652  0  0.050947  0.084127  0  3.943554  0
C  C66  1  0.83230033  0.15846652  0.22753153  1  0  0.118694  0  3.696821  0  0  0.087897  0  3.954998  0  0  0.093526  0  3.971332  0  0.535956  0  0.051012  0.084209  0  3.943546  0
C  C67  1  0.16769725  0.34153356  0.72753085  1  0  0.118628  0  3.696909  0  0  0.087827  0  3.955084  0  0  0.093457  0  3.971417  0  0.536155  0  0.050942  0.084139  0  3.943632  0
C  C68  1  0.25501881  0.94580138  0.76725676  1  0  -0.138071  0  3.71653  0  0  -0.158864  0  3.969288  0  0  -0.163931  0  3.988573  0  -0.042656  0  -0.07263  -0.155096  0  3.95551  0
C  C69  1  0.74498146  0.55419799  0.26725811  1  0  -0.138109  0  3.716506  0  0  -0.15889  0  3.969269  0  0  -0.16396  0  3.988554  0  -0.042662  0  -0.072623  -0.155126  0  3.955491  0
C  C70  1  0.74498071  0.05419791  0.23274460  1  0  -0.138111  0  3.716402  0  0  -0.158876  0  3.969143  0  0  -0.163952  0  3.988436  0  -0.042368  0  -0.072644  -0.155116  0  3.955362  0
C  C71  1  0.25501566  0.44580217  0.73274460  1  0  -0.138108  0  3.716532  0  0  -0.158875  0  3.969261  0  0  -0.16395  0  3.988553  0  -0.04262  0  -0.072602  -0.155112  0  3.95548  0
C  C72  1  0.02942497  0.06453467  0.00255970  1  0  0.535474  0  3.984759  0  0  0.495225  0  4.285465  0  0  0.523899  0  4.284966  0  1.569759  0  0.20176  0.475428  0  4.290822  0
C  C73  1  0.97057626  0.43546628  0.50256174  1  0  0.53561  0  3.98481  0  0  0.495373  0  4.285487  0  0  0.524048  0  4.284984  0  1.569749  0  0.201793  0.475576  0  4.290847  0
C  C74  1  0.97056737  0.93546897  0.99743487  1  0  0.535645  0  3.984544  0  0  0.495335  0  4.285317  0  0  0.524011  0  4.284813  0  1.591321  0  0.201781  0.475539  0  4.290677  0
C  C75  1  0.02943174  0.56453301  0.49743759  1  0  0.535534  0  3.984777  0  0  0.495222  0  4.285544  0  0  0.523898  0  4.285043  0  1.591349  0  0.20175  0.475426  0  4.290902  0
N  N76  1  0.53314930  0.13160348  0.74155659  1  0  -0.50921  0  3.130702  0  0  -0.470708  0  3.410109  0  0  -0.495414  0  3.427363  0  -1.164985  0  -0.386148  -0.46032  0  3.399837  0
N  N77  1  0.46685310  0.36839573  0.24155931  1  0  -0.509289  0  3.130808  0  0  -0.470788  0  3.41017  0  0  -0.495502  0  3.427426  0  -1.164694  0  -0.386202  -0.4604  0  3.399898  0
N  N78  1  0.46684664  0.86839842  0.25844002  1  0  -0.509182  0  3.13063  0  0  -0.470707  0  3.41003  0  0  -0.495409  0  3.427285  0  -1.165039  0  -0.386143  -0.460319  0  3.39976  0
N  N79  1  0.53315366  0.63160269  0.75844069  1  0  -0.509152  0  3.130746  0  0  -0.470698  0  3.410121  0  0  -0.49539  0  3.427374  0  -1.165173  0  -0.386134  -0.460311  0  3.39985  0
N  N80  1  0.41453953  0.15394669  0.60878823  1  0  -0.333387  0  3.390691  0  0  -0.281795  0  3.627645  0  0  -0.295962  0  3.637497  0  -1.24439  0  -0.360669  -0.271698  0  3.619701  0
N  N81  1  0.58546049  0.34605426  0.10878891  1  0  -0.333407  0  3.390698  0  0  -0.281829  0  3.627677  0  0  -0.295997  0  3.63753  0  -1.244374  0  -0.360711  -0.271737  0  3.619737  0
N  N82  1  0.58545633  0.84605086  0.39120973  1  0  -0.333222  0  3.39072  0  0  -0.281682  0  3.627628  0  0  -0.295849  0  3.637487  0  -1.244281  0  -0.360598  -0.271584  0  3.61968  0
N  N83  1  0.41454152  0.65394851  0.89120905  1  0  -0.333203  0  3.390689  0  0  -0.281628  0  3.627603  0  0  -0.295796  0  3.637461  0  -1.244304  0  -0.360588  -0.271529  0  3.619654  0
N  N84  1  0.16786207  0.76135889  0.70599299  1  0  -0.290419  0  3.145573  0  0  -0.228884  0  3.395835  0  0  -0.241425  0  3.410018  0  -1.236922  0  -0.29579  -0.220066  0  3.385442  0
N  N85  1  0.83213697  0.73863961  0.20599367  1  0  -0.290364  0  3.145497  0  0  -0.228819  0  3.395753  0  0  -0.241358  0  3.409933  0  -1.237412  0  -0.295775  -0.220003  0  3.385361  0
N  N86  1  0.83213740  0.23863779  0.29401176  1  0  -0.290361  0  3.14561  0  0  -0.228843  0  3.395896  0  0  -0.24138  0  3.410073  0  -1.236916  0  -0.295828  -0.220027  0  3.385504  0
N  N87  1  0.16786139  0.26136229  0.79401176  1  0  -0.29041  0  3.145637  0  0  -0.228897  0  3.395926  0  0  -0.241434  0  3.410103  0  -1.236947  0  -0.295849  -0.220081  0  3.385535  0
O  O88  1  0.73784844  0.27092515  0.83567084  1  0  -0.67715  0  1.98948  0  0  -0.635461  0  2.23792  0  0  -0.666538  0  2.221352  0  -1.169879  0  -0.39298  -0.619586  0  2.246643  0
O  O89  1  0.26215158  0.22907580  0.33567356  1  0  -0.677092  0  1.989518  0  0  -0.635386  0  2.237954  0  0  -0.666472  0  2.221374  0  -1.169883  0  -0.392934  -0.619512  0  2.246684  0
O  O90  1  0.26214140  0.72907414  0.16432441  1  0  -0.677039  0  1.989526  0  0  -0.635382  0  2.237919  0  0  -0.666453  0  2.22135  0  -1.169972  0  -0.392942  -0.61951  0  2.246643  0
O  O91  1  0.73785891  0.77092697  0.66432441  1  0  -0.677102  0  1.989396  0  0  -0.635446  0  2.237817  0  0  -0.666508  0  2.221251  0  -1.169949  0  -0.392959  -0.619574  0  2.246544  0
O  O92  1  0.72936345  0.41580693  0.73416055  1  0  -0.72073  0  2.067002  0  0  -0.673773  0  2.327682  0  0  -0.708279  0  2.311822  0  -1.208016  0  -0.39701  -0.655771  0  2.335166  0
O  O93  1  0.27064022  0.08419489  0.23416190  1  0  -0.720742  0  2.066938  0  0  -0.673769  0  2.327599  0  0  -0.708289  0  2.311729  0  -1.208019  0  -0.397014  -0.655765  0  2.335084  0
O  O94  1  0.27063848  0.58419149  0.26583334  1  0  -0.720652  0  2.067086  0  0  -0.673716  0  2.327738  0  0  -0.708252  0  2.311885  0  -1.208059  0  -0.396926  -0.655714  0  2.335221  0
O  O95  1  0.72936299  0.91580701  0.76583538  1  0  -0.720714  0  2.06708  0  0  -0.673757  0  2.327732  0  0  -0.708283  0  2.311877  0  -1.208073  0  -0.396968  -0.655756  0  2.335215  0
O  O96  1  0.49993126  0.45815509  0.59115068  1  0  -0.730847  0  2.134168  0  0  -0.683557  0  2.398234  0  0  -0.720141  0  2.38703  0  -1.185937  0  -0.398173  -0.66576  0  2.40487  0
O  O97  1  0.50006872  0.04184412  0.09115068  1  0  -0.730856  0  2.133954  0  0  -0.683564  0  2.398016  0  0  -0.72016  0  2.386807  0  -1.18598  0  -0.398168  -0.665767  0  2.404655  0
O  O98  1  0.50006815  0.54183897  0.40884389  1  0  -0.73069  0  2.133911  0  0  -0.683381  0  2.397964  0  0  -0.719991  0  2.386752  0  -1.185622  0  -0.398129  -0.665584  0  2.404603  0
O  O99  1  0.49993199  0.95815430  0.90884457  1  0  -0.730745  0  2.134223  0  0  -0.683452  0  2.398282  0  0  -0.720053  0  2.387074  0  -1.185728  0  -0.398137  -0.665656  0  2.404918  0
O  O100  1  0.39766076  0.32852077  0.49017526  1  0  -0.70641  0  2.031016  0  0  -0.662512  0  2.290612  0  0  -0.696783  0  2.275851  0  -1.182012  0  -0.389864  -0.645527  0  2.298275  0
O  O101  1  0.60234049  0.17148105  0.99017662  1  0  -0.706457  0  2.031265  0  0  -0.662577  0  2.290844  0  0  -0.696837  0  2.276084  0  -1.182055  0  -0.389881  -0.64559  0  2.298507  0
O  O102  1  0.60235084  0.67147678  0.50981659  1  0  -0.706411  0  2.031271  0  0  -0.662535  0  2.290835  0  0  -0.69678  0  2.276081  0  -1.181922  0  -0.389868  -0.645549  0  2.298495  0
O  O103  1  0.39764822  0.82852259  0.00981863  1  0  -0.706455  0  2.031144  0  0  -0.662563  0  2.290702  0  0  -0.696823  0  2.275946  0  -1.181898  0  -0.38987  -0.645574  0  2.298361  0
O  O104  1  0.94458289  0.13898564  0.96231724  1  0  -0.640201  0  2.043065  0  0  -0.598032  0  2.285587  0  0  -0.62758  0  2.273221  0  -1.172044  0  -0.368888  -0.583184  0  2.292225  0
O  O105  1  0.05541832  0.36101444  0.46231588  1  0  -0.640265  0  2.043036  0  0  -0.598091  0  2.285563  0  0  -0.627649  0  2.273193  0  -1.172034  0  -0.36888  -0.583242  0  2.292202  0
O  O106  1  0.05541064  0.86101713  0.03768344  1  0  -0.640241  0  2.042861  0  0  -0.598067  0  2.285435  0  0  -0.627612  0  2.273064  0  -1.171876  0  -0.368881  -0.583218  0  2.292075  0
O  O107  1  0.94459326  0.63898223  0.53768276  1  0  -0.640167  0  2.043061  0  0  -0.597998  0  2.285623  0  0  -0.627528  0  2.27325  0  -1.171987  0  -0.36887  -0.583151  0  2.29226  0
O  O108  1  0.15875593  0.08416529  0.04701470  1  0  -0.674661  0  2.043483  0  0  -0.633089  0  2.293071  0  0  -0.664918  0  2.280941  0  -1.185127  0  -0.383734  -0.617123  0  2.299268  0
O  O109  1  0.84124774  0.41583653  0.54701334  1  0  -0.674709  0  2.043611  0  0  -0.633171  0  2.293241  0  0  -0.664988  0  2.281108  0  -1.185098  0  -0.383745  -0.617208  0  2.299441  0
O  O110  1  0.84123880  0.91583661  0.95298530  1  0  -0.674751  0  2.043536  0  0  -0.633173  0  2.293185  0  0  -0.665005  0  2.281054  0  -1.185346  0  -0.38374  -0.617209  0  2.299384  0
O  O111  1  0.15876275  0.58416624  0.45298326  1  0  -0.674747  0  2.04344  0  0  -0.633151  0  2.293074  0  0  -0.664994  0  2.280943  0  -1.185314  0  -0.383753  -0.617186  0  2.299272  0
O  O112  1  0.93962822  0.09797636  0.76690040  1  0  -0.922244  0  1.941192  0  0  -0.868549  0  2.149258  0  0  -0.898088  0  2.112003  0  -1.242975  0  -0.64923  -0.854213  0  2.170605  0
O  O113  1  0.06037295  0.40202197  0.26690107  1  0  -0.922257  0  1.94109  0  0  -0.86857  0  2.149251  0  0  -0.898118  0  2.111988  0  -1.242978  0  -0.649219  -0.854234  0  2.170598  0
O  O114  1  0.06037137  0.90202641  0.23309960  1  0  -0.922175  0  1.941314  0  0  -0.868513  0  2.149361  0  0  -0.898047  0  2.112112  0  -1.24295  0  -0.64917  -0.854175  0  2.170707  0
O  O115  1  0.93962892  0.59797383  0.73310028  1  0  -0.922221  0  1.941261  0  0  -0.86856  0  2.149314  0  0  -0.898085  0  2.112067  0  -1.242958  0  -0.649196  -0.854224  0  2.170662  0
