# generated using pymatgen
data_CuH6C4O5
_symmetry_space_group_name_H-M   'P 1'
_cell_length_a   6.57223864
_cell_length_b   8.73641850
_cell_length_c   11.60221040
_cell_angle_alpha   79.19280947
_cell_angle_beta   85.39005918
_cell_angle_gamma   69.61016630
_symmetry_Int_Tables_number   1
_chemical_formula_structural   CuH6C4O5
_chemical_formula_sum   'Cu4 H24 C16 O20'
_cell_volume   613.27680217
_cell_formula_units_Z   4
loop_
 _symmetry_equiv_pos_site_id
 _symmetry_equiv_pos_as_xyz
  1  'x, y, z'
loop_
 _atom_site_type_symbol
 _atom_site_label
 _atom_site_symmetry_multiplicity
 _atom_site_fract_x
 _atom_site_fract_y
 _atom_site_fract_z
 _atom_site_occupancy
 _atom_site_hle17_ddec_charge
 _atom_site_hle17_ddec_spin_density
 _atom_site_hle17_ddec_sum_bond_order
 _atom_site_hle17_magmom
 _atom_site_hse06_10hf_ddec_charge
 _atom_site_hse06_10hf_ddec_spin_density
 _atom_site_hse06_10hf_ddec_sum_bond_order
 _atom_site_hse06_10hf_magmom
 _atom_site_hse06_ddec_charge
 _atom_site_hse06_ddec_spin_density
 _atom_site_hse06_ddec_sum_bond_order
 _atom_site_hse06_magmom
 _atom_site_pbe_cm5_charge
 _atom_site_pbe_ddec_charge
 _atom_site_pbe_ddec_spin_density
 _atom_site_pbe_ddec_sum_bond_order
 _atom_site_pbe_magmom
Cu  Cu0  1  0.13326100  0.36468076  0.47458435  1  0.836108  -0.630261  1.876463  -0.454  0.824578  -0.766662  2.278182  -0.604  0.927548  -0.870064  2.197749  -0.711  0.667518  0.755857  -0.612118  2.336184  -0.476
Cu  Cu1  1  0.86673277  0.63531358  0.52542042  1  0.835968  0.630218  1.876474  0.454  0.824617  0.766641  2.277939  0.604  0.928439  0.870037  2.196977  0.711  0.667463  0.755867  0.612066  2.335961  0.476
Cu  Cu2  1  0.85190733  0.14152597  0.97193099  1  0.836341  0.627672  1.850918  0.452  0.823913  0.765591  2.251719  0.603  0.929021  0.870249  2.170003  0.71  0.666607  0.755241  0.611178  2.309068  0.475
Cu  Cu3  1  0.14809038  0.85848328  0.02808012  1  0.836297  -0.627693  1.850979  -0.452  0.824076  -0.765603  2.251622  -0.603  0.929061  -0.870232  2.169891  -0.71  0.666704  0.755361  -0.611179  2.308884  -0.475
H  H4  1  0.27882793  0.73371134  0.29605672  1  0.050584  0.000224  0.937015  0.0  0.052404  0.000181  1.009306  0.0  0.047728  0.000141  1.005871  0.0  0.125881  0.057131  0.000216  1.012276  0.0
H  H5  1  0.72119080  0.26625833  0.70394343  1  0.050526  -0.000217  0.937044  0.0  0.052357  -0.000182  1.009337  0.0  0.047676  -0.000142  1.005907  0.0  0.125851  0.057087  -0.000216  1.012308  0.0
H  H6  1  0.65525774  0.52387203  0.26072558  1  0.046007  -0.00037  0.924809  -0.001  0.049894  -0.000157  0.993603  0.0  0.04496  -8.7e-05  0.990276  0.0  0.128894  0.055138  -0.000169  0.995606  0.0
H  H7  1  0.34474985  0.47611870  0.73927128  1  0.046021  0.000369  0.924925  0.001  0.04992  0.000158  0.993696  0.0  0.044984  8.7e-05  0.990377  0.0  0.1289  0.055166  0.00017  0.995698  0.0
H  H8  1  0.61587152  0.22517542  0.40118644  1  0.086614  9.6e-05  0.91911  0.0  0.103226  8.9e-05  0.976982  0.0  0.104369  9e-05  0.976222  0.0  0.112538  0.102494  7.3e-05  0.97757  0.0
H  H9  1  0.38413780  0.77483151  0.59880118  1  0.086769  -0.000102  0.919199  0.0  0.1033  -8.9e-05  0.977068  0.0  0.104448  -9e-05  0.97633  0.0  0.112594  0.102566  -7.3e-05  0.977647  0.0
H  H10  1  0.68597858  0.02476113  0.36005897  1  0.064881  -4.7e-05  0.929114  0.0  0.079673  -2.9e-05  0.993492  0.0  0.081639  -4.2e-05  0.991047  0.0  0.100999  0.07852  -9e-06  0.995019  0.0
H  H11  1  0.31404130  0.97523596  0.63992264  1  0.064993  4e-05  0.92917  0.0  0.079764  2.9e-05  0.99348  0.0  0.081769  4.2e-05  0.991003  0.0  0.100999  0.078601  9e-06  0.995012  0.0
H  H12  1  0.40648886  0.89479010  0.38997232  1  0.065569  -9e-05  0.953483  0.0  0.077974  -0.000102  1.024733  0.0  0.080686  -8.8e-05  1.021446  0.0  0.10052  0.075536  -0.0001  1.028429  0.0
H  H13  1  0.59353977  0.10520456  0.61001007  1  0.065583  9e-05  0.953666  0.0  0.077999  0.000102  1.024919  0.0  0.080726  8.8e-05  1.021616  0.0  0.100604  0.075563  0.0001  1.028613  0.0
H  H14  1  0.14838666  0.00902976  0.44779182  1  0.083939  0.00016  0.926315  0.0  0.0991  0.000171  0.986534  0.0  0.100421  0.000124  0.985376  0.0  0.111664  0.098213  0.000172  0.987456  0.0
H  H15  1  0.85163251  0.99097228  0.55219344  1  0.083867  -0.000166  0.926191  0.0  0.099056  -0.000171  0.986446  0.0  0.100359  -0.000124  0.985329  0.0  0.11164  0.098171  -0.000172  0.987367  0.0
H  H16  1  0.17178514  0.15866686  0.23155047  1  0.059317  0.000629  0.912055  0.001  0.063021  0.000329  0.976747  0.0  0.057826  0.000211  0.974472  0.0  0.131384  0.068267  0.000369  0.977946  0.0
H  H17  1  0.82820515  0.84134857  0.76845754  1  0.059348  -0.000633  0.911872  -0.001  0.063004  -0.000334  0.976636  0.0  0.057825  -0.000214  0.974333  0.0  0.131343  0.06823  -0.000375  0.977866  0.0
H  H18  1  0.62834765  0.86072942  0.20716736  1  0.051613  -0.000115  0.915605  0.0  0.056627  -8.5e-05  0.982414  0.0  0.051909  -5.4e-05  0.979638  0.0  0.127072  0.061456  -7.5e-05  0.984286  0.0
H  H19  1  0.37166173  0.13925754  0.79284288  1  0.051704  0.000104  0.915562  0.0  0.056684  8.2e-05  0.982398  0.0  0.051959  5.2e-05  0.979639  0.0  0.127133  0.061517  7.1e-05  0.984266  0.0
H  H20  1  0.35347397  0.28381560  0.99850990  1  0.080837  -9.3e-05  0.940435  0.0  0.097309  -7.1e-05  1.000558  0.0  0.098256  -8e-05  0.999947  0.0  0.10765  0.096669  -5.8e-05  1.000991  0.0
H  H21  1  0.64650702  0.71618990  0.00148185  1  0.080741  9e-05  0.940434  0.0  0.097195  7.1e-05  1.000509  0.0  0.098152  8e-05  0.999911  0.0  0.107625  0.096551  5.8e-05  1.00095  0.0
H  H22  1  0.23805925  0.49724738  0.93073600  1  0.070666  -9.6e-05  0.94505  0.0  0.085105  -0.000119  1.00993  0.0  0.087695  -7e-05  1.007158  0.0  0.101639  0.083198  -0.000135  1.012008  0.0
H  H23  1  0.76191891  0.50276431  0.06925415  1  0.070616  8.4e-05  0.945216  0.0  0.084963  0.000119  1.010138  0.0  0.087568  7e-05  1.007369  0.0  0.10157  0.083053  0.000135  1.012218  0.0
H  H24  1  0.49278105  0.63779073  0.84432739  1  0.070124  4.2e-05  0.919607  0.0  0.084107  -4e-06  0.983641  0.0  0.085968  1e-06  0.981513  0.0  0.103196  0.08262  -9e-06  0.985548  0.0
H  H25  1  0.50719272  0.36221720  0.15566436  1  0.070215  -4.3e-05  0.919702  0.0  0.084197  3e-06  0.983697  0.0  0.086054  -1e-06  0.981588  0.0  0.103239  0.0827  9e-06  0.985603  0.0
H  H26  1  0.77649163  0.51886500  0.85349886  1  0.091382  -4.5e-05  0.915422  0.0  0.1077  -3e-05  0.972237  0.0  0.109091  -4.3e-05  0.971375  0.0  0.113183  0.106648  -1.5e-05  0.973025  0.0
H  H27  1  0.22348688  0.48113922  0.14649404  1  0.09144  4.2e-05  0.915346  0.0  0.107755  3e-05  0.972131  0.0  0.10914  4.3e-05  0.971295  0.0  0.113187  0.1067  1.5e-05  0.972913  0.0
C  C28  1  0.19611912  0.66336466  0.35977551  1  0.566203  -0.000183  3.850245  0.0  0.506776  -0.00012  4.164391  0.0  0.550893  -0.000121  4.157416  0.0  0.146642  0.475343  -8.9e-05  4.170539  0.0
C  C29  1  0.80389999  0.33660751  0.64022255  1  0.566286  0.000162  3.850477  0.0  0.506823  0.000122  4.164663  0.0  0.550943  0.000122  4.157688  0.0  0.146682  0.475395  9e-05  4.170811  0.0
C  C30  1  0.76177725  0.51494526  0.33253392  1  0.564975  0.000706  3.859175  0.001  0.507158  0.000269  4.172832  0.001  0.55134  0.00033  4.164531  0.001  0.15008  0.475756  0.000144  4.179062  0.0
C  C31  1  0.23823191  0.48504545  0.66747063  1  0.564909  -0.000701  3.859098  -0.001  0.507065  -0.000269  4.172795  -0.001  0.551258  -0.000328  4.164472  -0.001  0.150029  0.475658  -0.000144  4.179045  0.0
C  C32  1  0.59666546  0.10334492  0.42446246  1  0.055731  0.000177  3.600279  0.0  -0.004262  0.000143  3.866959  0.0  0.002498  0.000114  3.871315  0.0  -0.075424  -0.008698  0.000171  3.863148  0.0
C  C33  1  0.40337302  0.89664847  0.57554119  1  0.055285  -0.000152  3.601236  0.0  -0.004457  -0.000143  3.867606  0.0  0.002235  -0.000114  3.872157  0.0  -0.075423  -0.008859  -0.000171  3.863771  0.0
C  C34  1  0.32424373  0.97808279  0.45258658  1  0.037832  0.000178  3.622377  0.0  -0.023802  0.000174  3.892733  0.0  -0.017124  0.000134  3.896708  0.0  -0.08236  -0.028443  0.000193  3.890474  0.0
C  C35  1  0.67577301  0.02189802  0.54741986  1  0.037938  -0.000177  3.622985  0.0  -0.023707  -0.000174  3.893573  0.0  -0.017059  -0.000134  3.897669  0.0  -0.082306  -0.028334  -0.000193  3.891326  0.0
C  C36  1  0.12018547  0.11066590  0.16148070  1  0.559911  -0.000738  3.848173  -0.001  0.505067  -0.000178  4.155807  -0.001  0.548498  -0.000204  4.149311  -0.001  0.152557  0.474408  -0.000108  4.160796  0.0
C  C37  1  0.87981779  0.88934461  0.83853428  1  0.559974  0.000718  3.847885  0.001  0.505149  0.000178  4.155557  0.001  0.54857  0.000206  4.149055  0.001  0.152722  0.474501  0.000109  4.160547  0.0
C  C38  1  0.74310531  0.90130550  0.14475025  1  0.557144  0.000232  3.86391  0.0  0.499165  0.000149  4.178061  0.0  0.542605  0.000172  4.17136  0.0  0.148212  0.468359  0.000131  4.183386  0.0
C  C39  1  0.25689481  0.09869507  0.85525938  1  0.556855  -0.000218  3.864216  0.0  0.498886  -0.00015  4.178364  0.0  0.542323  -0.000171  4.171671  0.0  0.148017  0.468078  -0.000131  4.183696  0.0
C  C40  1  0.37259506  0.40550654  0.98377311  1  0.036248  -0.000315  3.619816  0.0  -0.025932  -0.000304  3.890923  0.0  -0.019511  -0.000234  3.895308  0.0  -0.085109  -0.03027  -0.000304  3.887665  0.0
C  C41  1  0.62737728  0.59450133  0.01623077  1  0.036334  0.000348  3.620238  0.0  -0.025578  0.000304  3.891082  0.0  -0.019234  0.000236  3.89555  0.0  -0.085008  -0.029905  0.000303  3.887821  0.0
C  C42  1  0.61974531  0.54178443  0.90016269  1  0.046924  -5.7e-05  3.602583  0.0  -0.011992  -3.5e-05  3.873129  0.0  -0.005038  -5.7e-05  3.876755  0.0  -0.079691  -0.016851  -2.6e-05  3.870997  0.0
C  C43  1  0.38023746  0.45822726  0.09983500  1  0.046719  6.3e-05  3.602994  0.0  -0.012078  3.5e-05  3.873553  0.0  -0.005167  5.5e-05  3.8772  0.0  -0.079716  -0.016916  2.6e-05  3.871394  0.0
O  O44  1  0.27272377  0.50677875  0.36836821  1  -0.534632  -0.071597  2.127959  -0.095  -0.508444  -0.051102  2.413931  -0.074  -0.554075  -0.042588  2.407295  -0.065  -0.313093  -0.477947  -0.047019  2.419975  -0.066
O  O45  1  0.72727577  0.49319950  0.63162992  1  -0.534735  0.071613  2.127841  0.095  -0.508541  0.051107  2.41373  0.074  -0.554555  0.04259  2.407242  0.065  -0.313145  -0.478042  0.047027  2.419783  0.066
O  O46  1  0.93227582  0.38816251  0.34682945  1  -0.525375  -0.073202  2.107024  -0.097  -0.499448  -0.05283  2.38564  -0.076  -0.543476  -0.044106  2.377453  -0.067  -0.311046  -0.469898  -0.048517  2.39199  -0.068
O  O47  1  0.06772177  0.61182687  0.65318014  1  -0.525374  0.073208  2.10693  0.097  -0.499473  0.052835  2.385532  0.076  -0.543867  0.044109  2.377464  0.067  -0.311032  -0.469915  0.048524  2.391892  0.068
O  O48  1  0.36736291  0.13180158  0.41736127  1  -0.32269  0.001108  2.282556  0.0  -0.251278  0.000894  2.547034  0.0  -0.272202  0.000938  2.545408  0.0  -0.237762  -0.235638  0.000765  2.548074  0.0
O  O49  1  0.63262387  0.86823132  0.58262120  1  -0.322186  -0.001109  2.283893  0.0  -0.25098  -0.000894  2.548495  0.0  -0.272216  -0.000939  2.547268  0.0  -0.237673  -0.235368  -0.000765  2.549534  0.0
O  O50  1  0.96452235  0.24984137  0.58510148  1  -0.539337  -0.074238  2.125416  -0.098  -0.510655  -0.052679  2.407609  -0.076  -0.556842  -0.043859  2.401913  -0.067  -0.315823  -0.480246  -0.048487  2.413151  -0.068
O  O51  1  0.03548794  0.75014686  0.41490337  1  -0.539424  0.074254  2.124916  0.098  -0.510778  0.052684  2.407072  0.076  -0.557352  0.043862  2.401538  0.067  -0.315888  -0.48036  0.0485  2.41261  0.068
O  O52  1  0.30394599  0.36663276  0.60943836  1  -0.544918  -0.066879  2.136723  -0.088  -0.516166  -0.049403  2.422779  -0.071  -0.56089  -0.041692  2.414675  -0.063  -0.313517  -0.486083  -0.04525  2.429565  -0.063
O  O53  1  0.69605633  0.63336290  0.39056237  1  -0.544945  0.066872  2.136868  0.088  -0.516224  0.049403  2.422884  0.071  -0.561338  0.041693  2.414961  0.063  -0.313525  -0.48614  0.045258  2.429667  0.063
O  O54  1  0.96327103  0.21342603  0.10018792  1  -0.528589  0.075422  2.129866  0.1  -0.502302  0.053786  2.408869  0.078  -0.548123  0.04481  2.401827  0.069  -0.309763  -0.472117  0.049056  2.414589  0.069
O  O55  1  0.03671416  0.78660056  0.89981619  1  -0.528624  -0.075387  2.130199  -0.1  -0.502309  -0.053775  2.409149  -0.078  -0.548109  -0.044806  2.402124  -0.069  -0.309894  -0.472145  -0.049043  2.414861  -0.069
O  O56  1  0.22431721  0.96061448  0.15210880  1  -0.536852  -0.067172  2.138223  -0.089  -0.508852  -0.049491  2.423029  -0.071  -0.55323  -0.04161  2.414922  -0.063  -0.309911  -0.479533  -0.045139  2.429815  -0.063
O  O57  1  0.77566116  0.03940705  0.84790410  1  -0.536892  0.067178  2.137715  0.089  -0.508851  0.049492  2.422441  0.071  -0.55325  0.041606  2.414363  0.063  -0.3099  -0.479529  0.045138  2.429262  0.063
O  O58  1  0.66966223  0.04911071  0.09013282  1  -0.532584  0.070881  2.13293  0.094  -0.504808  0.050722  2.415374  0.073  -0.55029  0.04235  2.408722  0.065  -0.31297  -0.475009  0.046901  2.421022  0.066
O  O59  1  0.33032051  0.95090463  0.90988332  1  -0.532495  -0.070884  2.133315  -0.094  -0.504753  -0.050716  2.415789  -0.073  -0.550196  -0.042349  2.409085  -0.065  -0.312994  -0.474938  -0.046893  2.421386  -0.066
O  O60  1  0.93027162  0.79399850  0.13671662  1  -0.527284  -0.07361  2.121949  -0.097  -0.498943  -0.052612  2.40302  -0.076  -0.54449  -0.043864  2.396643  -0.067  -0.311931  -0.469023  -0.048429  2.408268  -0.068
O  O61  1  0.06972473  0.20601698  0.86328679  1  -0.527162  0.073619  2.121817  0.097  -0.498792  0.05262  2.402866  0.076  -0.54439  0.043867  2.396576  0.067  -0.311795  -0.468864  0.048435  2.408128  0.068
O  O62  1  0.57459751  0.38782662  0.91814907  1  -0.326707  -0.000853  2.256639  0.0  -0.256099  -0.000755  2.524188  0.0  -0.277229  -0.000869  2.52272  0.0  -0.237907  -0.241274  -0.000546  2.525283  0.0
O  O63  1  0.42539729  0.61216530  0.08184134  1  -0.32653  0.000845  2.257388  0.0  -0.256102  0.000755  2.524952  0.0  -0.277188  0.00087  2.523494  0.0  -0.23793  -0.241276  0.000546  2.526011  0.0
