# generated using pymatgen
data_ZnH10C12(NO2)2
_symmetry_space_group_name_H-M   'P 1'
_cell_length_a   8.82497713
_cell_length_b   9.51719108
_cell_length_c   15.40824715
_cell_angle_alpha   91.70564451
_cell_angle_beta   89.99988470
_cell_angle_gamma   90.00007983
_symmetry_Int_Tables_number   1
_chemical_formula_structural   ZnH10C12(NO2)2
_chemical_formula_sum   'Zn4 H40 C48 N8 O16'
_cell_volume   1293.54978707
_cell_formula_units_Z   4
loop_
 _symmetry_equiv_pos_site_id
 _symmetry_equiv_pos_as_xyz
  1  'x, y, z'
loop_
 _atom_site_type_symbol
 _atom_site_label
 _atom_site_symmetry_multiplicity
 _atom_site_fract_x
 _atom_site_fract_y
 _atom_site_fract_z
 _atom_site_occupancy
 _atom_site_hle17_bader_spin_density
 _atom_site_hle17_ddec_charge
 _atom_site_hle17_ddec_spin_density
 _atom_site_hle17_ddec_sum_bond_order
 _atom_site_hle17_magmom
 _atom_site_hse06_10hf_bader_spin_density
 _atom_site_hse06_10hf_ddec_charge
 _atom_site_hse06_10hf_ddec_spin_density
 _atom_site_hse06_10hf_ddec_sum_bond_order
 _atom_site_hse06_10hf_magmom
 _atom_site_hse06_bader_spin_density
 _atom_site_hse06_ddec_charge
 _atom_site_hse06_ddec_spin_density
 _atom_site_hse06_ddec_sum_bond_order
 _atom_site_hse06_magmom
 _atom_site_pbe_bader_spin_density
 _atom_site_pbe_cm5_charge
 _atom_site_pbe_ddec_charge
 _atom_site_pbe_ddec_spin_density
 _atom_site_pbe_ddec_sum_bond_order
 _atom_site_pbe_magmom
Zn  Zn0  1  0.91453238  0.24676762  0.92157546  1  0  0.968441  0  1.917831  0  0  0.793295  0  2.369952  0  0  0.838318  0  2.322362  0  0  0.663257  0.761099  0  2.40259  0
Zn  Zn1  1  0.58546725  0.24676499  0.42157568  1  0  0.968383  0  1.91785  0  0  0.793234  0  2.369969  0  0  0.838252  0  2.322379  0  0  0.663247  0.761044  0  2.402611  0
Zn  Zn2  1  0.08546807  0.75323324  0.07842398  1  0  0.968423  0  1.917824  0  0  0.793295  0  2.369935  0  0  0.838319  0  2.322343  0  0  0.663245  0.761104  0  2.402576  0
Zn  Zn3  1  0.41453320  0.75323061  0.57842430  1  0  0.968423  0  1.917872  0  0  0.793239  0  2.370022  0  0  0.83826  0  2.322429  0  0  0.663217  0.761043  0  2.402661  0
H  H4  1  0.74917461  0.09957366  0.76768377  1  0  0.074622  0  0.951207  0  0  0.082781  0  1.014647  0  0  0.0847  0  1.014274  0  0  0.114209  0.081326  0  1.014972  0
H  H5  1  0.75082535  0.09957439  0.26768386  1  0  0.074611  0  0.951214  0  0  0.082769  0  1.014657  0  0  0.084687  0  1.014284  0  0  0.114202  0.081314  0  1.014979  0
H  H6  1  0.25082358  0.90042614  0.23231630  1  0  0.074593  0  0.95122  0  0  0.08275  0  1.014661  0  0  0.084668  0  1.014288  0  0  0.114201  0.081297  0  1.014986  0
H  H7  1  0.24917511  0.90042646  0.73231687  1  0  0.074628  0  0.951202  0  0  0.082787  0  1.014642  0  0  0.084706  0  1.014269  0  0  0.114214  0.081331  0  1.014966  0
H  H8  1  0.80875456  0.00984134  0.61658119  1  0  0.117598  0  0.965733  0  0  0.124164  0  1.028997  0  0  0.127489  0  1.028091  0  0  0.107736  0.121511  0  1.03016  0
H  H9  1  0.69124579  0.00984094  0.11658263  1  0  0.117602  0  0.965755  0  0  0.124129  0  1.029062  0  0  0.127447  0  1.028165  0  0  0.10774  0.121495  0  1.030205  0
H  H10  1  0.19124476  0.99015846  0.38341758  1  0  0.117598  0  0.96576  0  0  0.124128  0  1.029065  0  0  0.127446  0  1.028168  0  0  0.107724  0.121474  0  1.03023  0
H  H11  1  0.30875467  0.99015781  0.88341871  1  0  0.117603  0  0.965736  0  0  0.124169  0  1.028998  0  0  0.127495  0  1.028092  0  0  0.107741  0.121519  0  1.030163  0
H  H12  1  0.07464287  0.04667638  0.55937675  1  0  0.102153  0  0.951018  0  0  0.111893  0  1.013698  0  0  0.114968  0  1.010885  0  0  0.109607  0.109639  0  1.015607  0
H  H13  1  0.42535854  0.04667627  0.05937663  1  0  0.10216  0  0.950988  0  0  0.111894  0  1.013677  0  0  0.114966  0  1.010868  0  0  0.109585  0.109642  0  1.015582  0
H  H14  1  0.92535758  0.95332448  0.44062333  1  0  0.102167  0  0.950967  0  0  0.111902  0  1.013652  0  0  0.114974  0  1.010843  0  0  0.109581  0.109651  0  1.015558  0
H  H15  1  0.57464191  0.95332353  0.94062343  1  0  0.102143  0  0.951008  0  0  0.111874  0  1.013704  0  0  0.114947  0  1.010894  0  0  0.109582  0.109622  0  1.015613  0
H  H16  1  0.26270561  0.17078382  0.65380944  1  0  0.114855  0  0.93285  0  0  0.126524  0  0.985045  0  0  0.129563  0  0.984744  0  0  0.112978  0.124234  0  0.985478  0
H  H17  1  0.23729339  0.17078138  0.15381014  1  0  0.11482  0  0.932841  0  0  0.126494  0  0.985036  0  0  0.129531  0  0.984737  0  0  0.112958  0.124205  0  0.985465  0
H  H18  1  0.73729258  0.82921913  0.34619004  1  0  0.114825  0  0.932908  0  0  0.1265  0  0.985099  0  0  0.129538  0  0.9848  0  0  0.112966  0.124211  0  0.985529  0
H  H19  1  0.76270593  0.82921632  0.84618988  1  0  0.114855  0  0.932879  0  0  0.126542  0  0.98505  0  0  0.129581  0  0.984749  0  0  0.112989  0.124254  0  0.985481  0
H  H20  1  0.18535789  0.24723362  0.80518982  1  0  0.082615  0  0.951521  0  0  0.090433  0  1.017585  0  0  0.092651  0  1.016101  0  0  0.117448  0.088688  0  1.018904  0
H  H21  1  0.31464296  0.24723233  0.30518981  1  0  0.082627  0  0.951561  0  0  0.090444  0  1.01763  0  0  0.092663  0  1.016145  0  0  0.117447  0.0887  0  1.018946  0
H  H22  1  0.81464483  0.75276828  0.19481158  1  0  0.082572  0  0.951639  0  0  0.090393  0  1.017691  0  0  0.092612  0  1.016206  0  0  0.117423  0.08865  0  1.019008  0
H  H23  1  0.68535636  0.75276747  0.69481091  1  0  0.082601  0  0.95154  0  0  0.09041  0  1.017628  0  0  0.092628  0  1.016143  0  0  0.117431  0.088664  0  1.018943  0
H  H24  1  0.75874312  0.41820942  0.78090785  1  0  0.075607  0  0.947934  0  0  0.085034  0  1.012737  0  0  0.087133  0  1.011101  0  0  0.116162  0.083366  0  1.01411  0
H  H25  1  0.74125840  0.41820698  0.28090790  1  0  0.07561  0  0.947914  0  0  0.085027  0  1.012727  0  0  0.087136  0  1.011078  0  0  0.116172  0.083361  0  1.0141  0
H  H26  1  0.24125734  0.58179248  0.21909225  1  0  0.075625  0  0.94791  0  0  0.085051  0  1.012712  0  0  0.08715  0  1.011077  0  0  0.116159  0.083385  0  1.014084  0
H  H27  1  0.25874205  0.58179177  0.71909215  1  0  0.075628  0  0.947934  0  0  0.085057  0  1.012736  0  0  0.087155  0  1.011102  0  0  0.116178  0.08339  0  1.014112  0
H  H28  1  0.50544967  0.51870590  0.75050820  1  0  0.11191  0  0.988282  0  0  0.116583  0  1.056673  0  0  0.120429  0  1.054835  0  0  0.102479  0.113701  0  1.05823  0
H  H29  1  0.99454984  0.51870483  0.25050733  1  0  0.11188  0  0.988288  0  0  0.116595  0  1.056641  0  0  0.12044  0  1.054803  0  0  0.102497  0.113711  0  1.058208  0
H  H30  1  0.49455078  0.48129390  0.24949187  1  0  0.111904  0  0.988293  0  0  0.116584  0  1.056667  0  0  0.120429  0  1.05483  0  0  0.102487  0.113705  0  1.058219  0
H  H31  1  0.00544948  0.48129603  0.74949210  1  0  0.111931  0  0.988273  0  0  0.116606  0  1.056651  0  0  0.120452  0  1.054814  0  0  0.102505  0.113724  0  1.058212  0
H  H32  1  0.29109196  0.47525479  0.85769925  1  0  0.103618  0  0.961311  0  0  0.111707  0  1.025309  0  0  0.115103  0  1.022163  0  0  0.107  0.109043  0  1.027898  0
H  H33  1  0.20890792  0.47525757  0.35769879  1  0  0.103594  0  0.961334  0  0  0.111686  0  1.025326  0  0  0.115081  0  1.02218  0  0  0.107005  0.109022  0  1.027915  0
H  H34  1  0.70890736  0.52474501  0.14230016  1  0  0.103631  0  0.961325  0  0  0.111722  0  1.025315  0  0  0.115117  0  1.02217  0  0  0.10701  0.109058  0  1.027902  0
H  H35  1  0.79109253  0.52474434  0.64230067  1  0  0.103604  0  0.961323  0  0  0.111689  0  1.02533  0  0  0.115085  0  1.022183  0  0  0.106999  0.109023  0  1.027918  0
H  H36  1  0.34397901  0.32307274  0.98366742  1  0  0.115171  0  0.940495  0  0  0.12479  0  0.998172  0  0  0.12806  0  0.997405  0  0  0.10931  0.122317  0  0.998995  0
H  H37  1  0.15602246  0.32307440  0.48366764  1  0  0.115215  0  0.940443  0  0  0.124821  0  0.998154  0  0  0.128091  0  0.99739  0  0  0.109318  0.122356  0  0.998945  0
H  H38  1  0.65602144  0.67692706  0.01633265  1  0  0.115191  0  0.94048  0  0  0.124811  0  0.998157  0  0  0.12808  0  0.997391  0  0  0.109326  0.122336  0  0.998977  0
H  H39  1  0.84398026  0.67692645  0.51633244  1  0  0.115222  0  0.94043  0  0  0.124837  0  0.998119  0  0  0.128108  0  0.997351  0  0  0.109316  0.122365  0  0.998935  0
H  H40  1  0.60913602  0.23246963  0.00398918  1  0  0.079727  0  0.961792  0  0  0.087115  0  1.029182  0  0  0.089221  0  1.027763  0  0  0.114845  0.085426  0  1.030379  0
H  H41  1  0.89086619  0.23247013  0.50398829  1  0  0.079749  0  0.961766  0  0  0.087137  0  1.029158  0  0  0.089241  0  1.027741  0  0  0.114834  0.085448  0  1.030353  0
H  H42  1  0.39086443  0.76753122  0.99601156  1  0  0.079729  0  0.961748  0  0  0.087119  0  1.029132  0  0  0.089224  0  1.027714  0  0  0.114836  0.085431  0  1.030328  0
H  H43  1  0.10913653  0.76753178  0.49601181  1  0  0.079739  0  0.961759  0  0  0.087125  0  1.029148  0  0  0.089231  0  1.02773  0  0  0.114835  0.085433  0  1.030349  0
C  C44  1  0.86169394  0.11195182  0.73982114  1  0  0.121278  0  3.71413  0  0  0.090898  0  3.962597  0  0  0.097255  0  3.981713  0  0  0.046132  0.086943  0  3.949373  0
C  C45  1  0.63830613  0.11195031  0.23982197  1  0  0.121285  0  3.71404  0  0  0.090923  0  3.9625  0  0  0.097281  0  3.981615  0  0  0.046147  0.086971  0  3.949277  0
C  C46  1  0.13830538  0.88805113  0.26017834  1  0  0.121343  0  3.714127  0  0  0.090988  0  3.962582  0  0  0.097345  0  3.981695  0  0  0.046174  0.087033  0  3.949356  0
C  C47  1  0.36169319  0.88804844  0.76017937  1  0  0.121286  0  3.714118  0  0  0.090898  0  3.962586  0  0  0.097256  0  3.981703  0  0  0.046125  0.086945  0  3.949361  0
C  C48  1  0.89521595  0.06301259  0.65591337  1  0  -0.122791  0  3.718503  0  0  -0.131097  0  3.962931  0  0  -0.138687  0  3.984734  0  0  -0.082108  -0.126118  0  3.948301  0
C  C49  1  0.60478208  0.06300999  0.15591423  1  0  -0.122793  0  3.718393  0  0  -0.131066  0  3.962831  0  0  -0.138648  0  3.984632  0  0  -0.082113  -0.126103  0  3.948196  0
C  C50  1  0.10478224  0.93699036  0.34408545  1  0  -0.122819  0  3.718449  0  0  -0.131096  0  3.962871  0  0  -0.138678  0  3.984673  0  0  -0.082112  -0.126117  0  3.948246  0
C  C51  1  0.39521724  0.93698666  0.84408708  1  0  -0.122825  0  3.718474  0  0  -0.131131  0  3.962903  0  0  -0.138721  0  3.984705  0  0  -0.082131  -0.126154  0  3.948279  0
C  C52  1  0.04109369  0.08416135  0.62397288  1  0  -0.00027  0  3.71087  0  0  -0.021643  0  3.96253  0  0  -0.017859  0  3.980717  0  0  -0.064209  -0.02358  0  3.949466  0
C  C53  1  0.45890528  0.08415603  0.12397327  1  0  -0.000268  0  3.710804  0  0  -0.021641  0  3.962451  0  0  -0.017856  0  3.980636  0  0  -0.064188  -0.023573  0  3.949386  0
C  C54  1  0.95890336  0.91584370  0.37602664  1  0  -0.000288  0  3.710822  0  0  -0.021658  0  3.96248  0  0  -0.017875  0  3.980667  0  0  -0.064183  -0.023593  0  3.949411  0
C  C55  1  0.54109404  0.91583851  0.87602800  1  0  -0.000254  0  3.710821  0  0  -0.021618  0  3.962481  0  0  -0.017835  0  3.980669  0  0  -0.064194  -0.023555  0  3.949421  0
C  C56  1  0.14784747  0.15272451  0.67689210  1  0  -0.126747  0  3.740263  0  0  -0.138076  0  3.991481  0  0  -0.145547  0  4.013467  0  0  -0.081942  -0.133301  0  3.976245  0
C  C57  1  0.35215369  0.15272010  0.17689264  1  0  -0.1267  0  3.74031  0  0  -0.138015  0  3.991517  0  0  -0.145486  0  4.013507  0  0  -0.081886  -0.133237  0  3.97627  0
C  C58  1  0.85215299  0.84727950  0.32310869  1  0  -0.126688  0  3.740298  0  0  -0.138019  0  3.991508  0  0  -0.14549  0  4.013498  0  0  -0.08188  -0.133241  0  3.976262  0
C  C59  1  0.64784563  0.84727549  0.82310800  1  0  -0.126783  0  3.740301  0  0  -0.138124  0  3.991519  0  0  -0.145594  0  4.013504  0  0  -0.081949  -0.133349  0  3.976281  0
C  C60  1  0.10584384  0.19576357  0.76052376  1  0  0.124212  0  3.702354  0  0  0.094004  0  3.951812  0  0  0.100386  0  3.970697  0  0  0.047404  0.089939  0  3.938969  0
C  C61  1  0.39415595  0.19576132  0.26052493  1  0  0.124189  0  3.702445  0  0  0.093968  0  3.951928  0  0  0.10035  0  3.970813  0  0  0.047404  0.089908  0  3.939077  0
C  C62  1  0.89415548  0.80423728  0.23947568  1  0  0.124257  0  3.702363  0  0  0.094061  0  3.951827  0  0  0.100445  0  3.970709  0  0  0.047424  0.089999  0  3.938978  0
C  C63  1  0.60584337  0.80423742  0.73947641  1  0  0.124277  0  3.702319  0  0  0.094057  0  3.951792  0  0  0.100441  0  3.970676  0  0  0.047425  0.089997  0  3.93894  0
C  C64  1  0.66373655  0.40108646  0.82451083  1  0  0.121971  0  3.714128  0  0  0.091967  0  3.962227  0  0  0.098372  0  3.981179  0  0  0.045725  0.087958  0  3.94937  0
C  C65  1  0.83626366  0.40108309  0.32451075  1  0  0.121873  0  3.713985  0  0  0.09188  0  3.962114  0  0  0.098272  0  3.981057  0  0  0.045646  0.087872  0  3.949261  0
C  C66  1  0.33626390  0.59891439  0.17548926  1  0  0.121856  0  3.714048  0  0  0.091845  0  3.962159  0  0  0.09825  0  3.98111  0  0  0.045678  0.087836  0  3.949301  0
C  C67  1  0.16373567  0.59891671  0.67548997  1  0  0.121824  0  3.714141  0  0  0.0918  0  3.962248  0  0  0.098198  0  3.981197  0  0  0.045621  0.087789  0  3.9494  0
C  C68  1  0.52147563  0.45787310  0.80861105  1  0  -0.130191  0  3.739478  0  0  -0.139815  0  3.985012  0  0  -0.147521  0  4.00718  0  0  -0.088828  -0.135025  0  3.970249  0
C  C69  1  0.97852358  0.45787200  0.30860956  1  0  -0.130084  0  3.739286  0  0  -0.139773  0  3.984866  0  0  -0.147481  0  4.007038  0  0  -0.088781  -0.134984  0  3.970111  0
C  C70  1  0.47852482  0.54212670  0.19138966  1  0  -0.130138  0  3.739439  0  0  -0.139748  0  3.984951  0  0  -0.147454  0  4.007119  0  0  -0.088798  -0.134957  0  3.97019  0
C  C71  1  0.02147574  0.54212990  0.69139055  1  0  -0.130177  0  3.739508  0  0  -0.139781  0  3.985019  0  0  -0.147488  0  4.007188  0  0  -0.08882  -0.134996  0  3.970265  0
C  C72  1  0.40425481  0.43191644  0.86680059  1  0  -0.010134  0  3.711895  0  0  -0.02781  0  3.957494  0  0  -0.024789  0  3.976635  0  0  -0.067398  -0.029668  0  3.94481  0
C  C73  1  0.09574497  0.43191698  0.36679892  1  0  -0.010057  0  3.711757  0  0  -0.027713  0  3.95737  0  0  -0.024691  0  3.97651  0  0  -0.067415  -0.029573  0  3.944683  0
C  C74  1  0.59574565  0.56808336  0.13319883  1  0  -0.010115  0  3.711875  0  0  -0.027788  0  3.957467  0  0  -0.024767  0  3.976607  0  0  -0.067373  -0.029645  0  3.94478  0
C  C75  1  0.90425435  0.56808598  0.63320056  1  0  -0.010046  0  3.711853  0  0  -0.027724  0  3.95744  0  0  -0.024702  0  3.976581  0  0  -0.067355  -0.029582  0  3.944753  0
C  C76  1  0.43343883  0.34867317  0.93802615  1  0  -0.116426  0  3.722679  0  0  -0.12841  0  3.973262  0  0  -0.135942  0  3.99598  0  0  -0.082063  -0.123674  0  3.95838  0
C  C77  1  0.06656057  0.34867367  0.43802581  1  0  -0.116539  0  3.722673  0  0  -0.128528  0  3.973262  0  0  -0.136061  0  3.995979  0  0  -0.082076  -0.123784  0  3.958374  0
C  C78  1  0.56656162  0.65132768  0.06197393  1  0  -0.116506  0  3.722715  0  0  -0.128501  0  3.973316  0  0  -0.136032  0  3.996032  0  0  -0.082129  -0.123761  0  3.958426  0
C  C79  1  0.93343988  0.65132823  0.56197495  1  0  -0.116543  0  3.722655  0  0  -0.128532  0  3.973235  0  0  -0.136066  0  3.995955  0  0  -0.082112  -0.123794  0  3.958349  0
C  C80  1  0.57918986  0.29656924  0.94924795  1  0  0.12535  0  3.697834  0  0  0.095476  0  3.94658  0  0  0.10169  0  3.966213  0  0  0.046315  0.091479  0  3.933204  0
C  C81  1  0.92080975  0.29657017  0.44924785  1  0  0.125311  0  3.697817  0  0  0.095426  0  3.946572  0  0  0.101635  0  3.966202  0  0  0.046302  0.091434  0  3.933188  0
C  C82  1  0.42081060  0.70343056  0.05075276  1  0  0.125397  0  3.697776  0  0  0.095524  0  3.946536  0  0  0.10174  0  3.966168  0  0  0.046354  0.091529  0  3.933151  0
C  C83  1  0.07919070  0.70343173  0.55075290  1  0  0.125282  0  3.697768  0  0  0.095407  0  3.94652  0  0  0.101616  0  3.966149  0  0  0.046273  0.091411  0  3.933142  0
C  C84  1  0.96363564  0.47701738  0.04365873  1  0  0.52415  0  3.920057  0  0  0.483934  0  4.208302  0  0  0.513281  0  4.20134  0  0  0.19754  0.464021  0  4.212028  0
C  C85  1  0.53637246  0.47700904  0.54365614  1  0  0.524199  0  3.919908  0  0  0.483928  0  4.208169  0  0  0.513273  0  4.201207  0  0  0.197549  0.464015  0  4.211894  0
C  C86  1  0.03637048  0.52298557  0.95634204  1  0  0.524162  0  3.91991  0  0  0.483894  0  4.208185  0  0  0.51324  0  4.201222  0  0  0.197552  0.463984  0  4.211913  0
C  C87  1  0.46363819  0.52297920  0.45634111  1  0  0.524243  0  3.919974  0  0  0.484034  0  4.20821  0  0  0.513381  0  4.201248  0  0  0.197606  0.464122  0  4.211935  0
C  C88  1  0.91504673  0.97730108  0.00089877  1  0  0.522894  0  3.924432  0  0  0.483184  0  4.210754  0  0  0.512768  0  4.203091  0  0  0.199741  0.46308  0  4.215083  0
C  C89  1  0.58494868  0.97730120  0.50089953  1  0  0.523079  0  3.924254  0  0  0.483388  0  4.210537  0  0  0.512974  0  4.202869  0  0  0.199815  0.463277  0  4.214869  0
C  C90  1  0.08494919  0.02270187  0.99909940  1  0  0.523216  0  3.924105  0  0  0.483521  0  4.210403  0  0  0.513109  0  4.202734  0  0  0.199863  0.463413  0  4.214734  0
C  C91  1  0.41504611  0.02269860  0.49910183  1  0  0.522862  0  3.92464  0  0  0.483122  0  4.210984  0  0  0.512707  0  4.203323  0  0  0.199743  0.463019  0  4.215313  0
N  N92  1  0.96493269  0.17619600  0.79149915  1  0  -0.326368  0  3.292157  0  0  -0.24774  0  3.556473  0  0  -0.266153  0  3.573965  0  0  -0.324464  -0.235383  0  3.544432  0
N  N93  1  0.53506956  0.17619751  0.29150016  1  0  -0.32636  0  3.292072  0  0  -0.247771  0  3.556448  0  0  -0.266185  0  3.573942  0  0  -0.324485  -0.23541  0  3.5444  0
N  N94  1  0.03507117  0.82380380  0.20849962  1  0  -0.3264  0  3.292097  0  0  -0.247826  0  3.556473  0  0  -0.26624  0  3.573965  0  0  -0.324507  -0.235465  0  3.544429  0
N  N95  1  0.46493089  0.82380334  0.70850057  1  0  -0.326381  0  3.292104  0  0  -0.247738  0  3.556415  0  0  -0.266154  0  3.57391  0  0  -0.324441  -0.235378  0  3.544367  0
N  N96  1  0.69268035  0.32214128  0.89348687  1  0  -0.3272  0  3.301295  0  0  -0.248963  0  3.565463  0  0  -0.267536  0  3.583547  0  0  -0.325392  -0.236712  0  3.552917  0
N  N97  1  0.80731949  0.32213997  0.39348687  1  0  -0.327139  0  3.301159  0  0  -0.248878  0  3.565304  0  0  -0.267434  0  3.583374  0  0  -0.325338  -0.23663  0  3.552761  0
N  N98  1  0.30732010  0.67785957  0.10651321  1  0  -0.327172  0  3.301178  0  0  -0.248945  0  3.565361  0  0  -0.267519  0  3.583445  0  0  -0.325385  -0.236686  0  3.552807  0
N  N99  1  0.19268096  0.67785983  0.60651320  1  0  -0.327047  0  3.301076  0  0  -0.248798  0  3.565241  0  0  -0.267353  0  3.583305  0  0  -0.325313  -0.236553  0  3.552701  0
O  O100  1  0.81936704  0.06090859  0.96894838  1  0  -0.584785  0  2.094895  0  0  -0.528499  0  2.3555  0  0  -0.553544  0  2.345558  0  0  -0.306916  -0.510291  0  2.361247  0
O  O101  1  0.68062422  0.06090187  0.46894907  1  0  -0.584893  0  2.095055  0  0  -0.528567  0  2.355585  0  0  -0.553605  0  2.345635  0  0  -0.30698  -0.510388  0  2.361402  0
O  O102  1  0.18062662  0.93909857  0.03105118  1  0  -0.584981  0  2.094832  0  0  -0.528665  0  2.355383  0  0  -0.553706  0  2.34543  0  0  -0.306985  -0.510484  0  2.3612  0
O  O103  1  0.31936264  0.93908741  0.53105145  1  0  -0.584797  0  2.094926  0  0  -0.528472  0  2.355497  0  0  -0.553519  0  2.345559  0  0  -0.306923  -0.510259  0  2.361232  0
O  O104  1  0.90334757  0.35692977  0.04565281  1  0  -0.568657  0  2.039028  0  0  -0.517609  0  2.278623  0  0  -0.540752  0  2.268739  0  0  -0.31523  -0.501137  0  2.28482  0
O  O105  1  0.59665468  0.35692780  0.54565286  1  0  -0.568627  0  2.039091  0  0  -0.517578  0  2.278708  0  0  -0.54072  0  2.268825  0  0  -0.315229  -0.501105  0  2.284905  0
O  O106  1  0.09665628  0.64306898  0.95434659  1  0  -0.56866  0  2.03908  0  0  -0.517603  0  2.278694  0  0  -0.540745  0  2.268809  0  0  -0.315232  -0.501131  0  2.284891  0
O  O107  1  0.40334577  0.64307200  0.45434720  1  0  -0.568735  0  2.038749  0  0  -0.5177  0  2.278358  0  0  -0.540848  0  2.268476  0  0  -0.315275  -0.501224  0  2.284554  0
O  O108  1  0.96934892  0.56545225  0.10711747  1  0  -0.594339  0  2.101908  0  0  -0.536669  0  2.359397  0  0  -0.561829  0  2.349073  0  0  -0.310288  -0.518441  0  2.365642  0
O  O109  1  0.53065569  0.56545020  0.60711890  1  0  -0.594501  0  2.101697  0  0  -0.536729  0  2.359132  0  0  -0.561892  0  2.348808  0  0  -0.310329  -0.518498  0  2.365373  0
O  O110  1  0.03065493  0.43454545  0.89288061  1  0  -0.594411  0  2.101723  0  0  -0.536697  0  2.359243  0  0  -0.561862  0  2.348922  0  0  -0.310324  -0.51845  0  2.365444  0
O  O111  1  0.46934703  0.43454960  0.39288376  1  0  -0.594326  0  2.102094  0  0  -0.536656  0  2.359572  0  0  -0.561813  0  2.349246  0  0  -0.310268  -0.518438  0  2.365834  0
O  O112  1  0.88315528  0.86113336  0.03426104  1  0  -0.578256  0  2.050252  0  0  -0.527453  0  2.299651  0  0  -0.551231  0  2.290138  0  0  -0.309071  -0.510456  0  2.305561  0
O  O113  1  0.61684550  0.86112721  0.53426294  1  0  -0.578282  0  2.049938  0  0  -0.527503  0  2.299362  0  0  -0.551278  0  2.289832  0  0  -0.309056  -0.510499  0  2.305269  0
O  O114  1  0.11684517  0.13887275  0.96573719  1  0  -0.578313  0  2.050086  0  0  -0.52754  0  2.299517  0  0  -0.551313  0  2.289986  0  0  -0.309061  -0.510537  0  2.305425  0
O  O115  1  0.38315269  0.13886418  0.46574021  1  0  -0.578191  0  2.050391  0  0  -0.527364  0  2.299787  0  0  -0.55114  0  2.290271  0  0  -0.309022  -0.510368  0  2.305693  0
