# generated using pymatgen
data_AlH9C24(BrO2)3
_symmetry_space_group_name_H-M   'P 1'
_cell_length_a   4.01598178
_cell_length_b   29.01419912
_cell_length_c   29.01476409
_cell_angle_alpha   119.99656769
_cell_angle_beta   89.99888490
_cell_angle_gamma   89.99741980
_symmetry_Int_Tables_number   1
_chemical_formula_structural   AlH9C24(BrO2)3
_chemical_formula_sum   'Al2 H18 C48 Br6 O12'
_cell_volume   2927.97264654
_cell_formula_units_Z   2
loop_
 _symmetry_equiv_pos_site_id
 _symmetry_equiv_pos_as_xyz
  1  'x, y, z'
loop_
 _atom_site_type_symbol
 _atom_site_label
 _atom_site_symmetry_multiplicity
 _atom_site_fract_x
 _atom_site_fract_y
 _atom_site_fract_z
 _atom_site_occupancy
 _atom_site_pbe_bader_charge
 _atom_site_pbe_bader_spin_density
 _atom_site_pbe_cm5_charge
 _atom_site_pbe_ddec_charge
 _atom_site_pbe_ddec_spin_density
 _atom_site_pbe_ddec_sum_bond_order
 _atom_site_pbe_magmom
Al  Al0  1  0.00598713  0.49998469  0.49999572  1  2.507843  0  0.43094  1.599431  0  2.571564  0
Al  Al1  1  0.00606181  0.16665054  0.83335135  1  2.506969  0  0.431083  1.599577  0  2.570986  0
H  H2  1  0.20674709  0.17859021  0.69844115  1  0.074195  0  0.112109  0.119184  0  0.984478  0
H  H3  1  0.21369990  0.22804096  0.64837881  1  0.076889  0  0.110432  0.11914  0  0.97674  0
H  H4  1  0.78182155  0.30345056  0.82376025  1  0.122021  0  0.112971  0.132934  0  0.981215  0
H  H5  1  0.78083206  0.36311103  0.50949915  1  0.124381  0  0.112968  0.132738  0  0.981027  0
H  H6  1  0.20754221  0.48813935  0.63499119  1  0.075449  0  0.112031  0.119057  0  0.984233  0
H  H7  1  0.21452621  0.43868571  0.68505145  1  0.089037  0  0.110503  0.119291  0  0.977196  0
H  H8  1  0.20680104  0.01980692  0.82140697  1  0.117875  0  0.112181  0.11918  0  0.984166  0
H  H9  1  0.21373327  0.92029753  0.77195461  1  0.073627  0  0.110368  0.119153  0  0.976601  0
H  H10  1  0.78172718  0.02027687  0.69652405  1  0.107675  0  0.112983  0.132802  0  0.981196  0
H  H11  1  0.78084175  0.64635533  0.63685292  1  0.104427  0  0.113039  0.132863  0  0.980909  0
H  H12  1  0.20752564  0.64683324  0.51183767  1  0.113597  0  0.112028  0.119016  0  0.984195  0
H  H13  1  0.21453129  0.74634034  0.56127903  1  0.093667  0  0.110473  0.119211  0  0.976941  0
H  H14  1  0.20676903  0.30157744  0.98015600  1  0.066498  0  0.112109  0.119152  0  0.984348  0
H  H15  1  0.21360624  0.35166736  0.07966368  1  0.08044  0  0.110493  0.119236  0  0.976785  0
H  H16  1  0.78168910  0.17626079  0.97976861  1  0.129116  0  0.113023  0.13291  0  0.981175  0
H  H17  1  0.78018258  0.49057056  0.35362563  1  0.128635  0  0.113133  0.132876  0  0.981025  0
H  H18  1  0.20772447  0.36500986  0.35316632  1  0.068356  0  0.112094  0.119166  0  0.984278  0
H  H19  1  0.21447196  0.31497721  0.25365609  1  0.089714  0  0.110508  0.119208  0  0.976885  0
C  C20  1  0.50455195  0.45918605  0.41833938  1  1.554588  0  0.27614  0.65272  0  4.062889  0
C  C21  1  0.50458867  0.45915211  0.54082343  1  1.552428  0  0.276088  0.652772  0  4.062889  0
C  C22  1  0.50456958  0.58164559  0.54082480  1  1.552334  0  0.275998  0.652863  0  4.062685  0
C  C23  1  0.50466350  0.20749429  0.79252728  1  1.550965  0  0.275889  0.652211  0  4.063226  0
C  C24  1  0.50467014  0.08498882  0.79249998  1  1.553949  0  0.276104  0.652457  0  4.062759  0
C  C25  1  0.50466287  0.20747668  0.91501292  1  1.55462  0  0.276135  0.652776  0  4.063099  0
C  C26  1  0.49722042  0.23779203  0.76365481  1  0.083981  0  -0.008673  -0.024055  0  3.960347  0
C  C27  1  0.33350360  0.21672843  0.71452745  1  -0.030782  0  -0.080241  -0.093378  0  3.985094  0
C  C28  1  0.33593391  0.24432193  0.68693018  1  -0.075815  0  -0.077175  -0.109053  0  3.936301  0
C  C29  1  0.48923208  0.29480698  0.70857966  1  0.187401  0  -0.002485  0.089006  0  4.100629  0
C  C30  1  0.64181824  0.31610194  0.75913826  1  -0.165855  0  -0.009412  0.066104  0  3.932583  0
C  C31  1  0.65357895  0.28751972  0.78577072  1  0.06815  0  -0.084591  -0.142722  0  3.96608  0
C  C32  1  0.48741694  0.32231241  0.67989737  1  -0.044259  0  -0.041024  -0.082103  0  4.107056  0
C  C33  1  0.48736297  0.34432780  0.65344192  1  -0.284229  0  -0.040763  -0.082064  0  4.106783  0
C  C34  1  0.48910860  0.37183646  0.62476327  1  0.186927  0  -0.002371  0.089644  0  4.099461  0
C  C35  1  0.64124245  0.35050723  0.57416440  1  -0.156024  0  -0.009958  0.065113  0  3.932914  0
C  C36  1  0.65297040  0.37907832  0.54752562  1  0.057746  0  -0.08407  -0.141509  0  3.965667  0
C  C37  1  0.49708397  0.42884916  0.56968747  1  0.084292  0  -0.009102  -0.025414  0  3.961786  0
C  C38  1  0.33383715  0.44995544  0.61885791  1  -0.031234  0  -0.0802  -0.092562  0  3.985316  0
C  C39  1  0.33628983  0.42236512  0.64645678  1  -0.089252  0  -0.077224  -0.109763  0  3.937138  0
C  C40  1  0.49719627  0.02582316  0.76219447  1  0.058852  0  -0.008941  -0.024657  0  3.961368  0
C  C41  1  0.33350187  0.99775550  0.78326098  1  -0.024121  0  -0.080524  -0.093421  0  3.985947  0
C  C42  1  0.33591021  0.94257069  0.75566672  1  -0.025869  0  -0.077034  -0.109062  0  3.936633  0
C  C43  1  0.48917074  0.91373845  0.70517548  1  0.17672  0  -0.002419  0.089226  0  4.099879  0
C  C44  1  0.64175543  0.94301095  0.68388227  1  -0.214983  0  -0.009668  0.065802  0  3.932833  0
C  C45  1  0.65350545  0.99821675  0.71246104  1  0.126253  0  -0.084267  -0.142148  0  3.966378  0
C  C46  1  0.48734863  0.85755531  0.67766421  1  -0.526035  0  -0.040884  -0.08211  0  4.10687  0
C  C47  1  0.48731780  0.80908376  0.65563894  1  0.086731  0  -0.040871  -0.081923  0  4.106659  0
C  C48  1  0.48909880  0.75290001  0.62812825  1  0.175973  0  -0.002232  0.089533  0  4.099862  0
C  C49  1  0.64122416  0.72362585  0.64945679  1  -0.066641  0  -0.010073  0.064966  0  3.933673  0
C  C50  1  0.65298271  0.66841933  0.62088887  1  -0.017597  0  -0.084269  -0.14169  0  3.965432  0
C  C51  1  0.49707576  0.64081117  0.57112226  1  0.059051  0  -0.008911  -0.025208  0  3.961128  0
C  C52  1  0.33383001  0.66888293  0.55002087  1  -0.021223  0  -0.080084  -0.092485  0  3.985346  0
C  C53  1  0.33629718  0.72406413  0.57760077  1  -0.044913  0  -0.077225  -0.109614  0  3.936893  0
C  C54  1  0.49716188  0.23636320  0.97417803  1  0.041936  0  -0.008912  -0.02481  0  3.961264  0
C  C55  1  0.33345539  0.28549662  0.00222441  1  -0.116973  0  -0.080299  -0.093114  0  3.985959  0
C  C56  1  0.33581796  0.31310803  0.05740818  1  0.10728  0  -0.077082  -0.109193  0  3.936625  0
C  C57  1  0.48904472  0.29146771  0.08626141  1  0.134752  0  -0.002425  0.089051  0  4.099488  0
C  C58  1  0.64163491  0.24090380  0.05701644  1  -0.165364  0  -0.010064  0.065546  0  3.932492  0
C  C59  1  0.65345054  0.21425488  0.00180817  1  0.06835  0  -0.084236  -0.14214  0  3.965777  0
C  C60  1  0.48710923  0.32015767  0.14244691  1  -0.277341  0  -0.040823  -0.081774  0  4.106649  0
C  C61  1  0.48698238  0.34661698  0.19091207  1  -0.058353  0  -0.040972  -0.082358  0  4.10704  0
C  C62  1  0.48869232  0.37530068  0.24709689  1  0.035259  0  -0.002513  0.089529  0  4.099733  0
C  C63  1  0.64064285  0.42591093  0.27636230  1  -0.06591  0  -0.010077  0.064579  0  3.933976  0
C  C64  1  0.65245283  0.45253682  0.33156787  1  0.070101  0  -0.084432  -0.141554  0  3.965508  0
C  C65  1  0.49683373  0.43035022  0.35917679  1  0.040316  0  -0.008806  -0.024898  0  3.96082  0
C  C66  1  0.33375487  0.38116727  0.33111379  1  -0.119039  0  -0.080219  -0.09296  0  3.985176  0
C  C67  1  0.33609101  0.35358306  0.27592896  1  0.098839  0  -0.077073  -0.109373  0  3.936438  0
Br  Br68  1  0.83711506  0.38478706  0.79135916  1  -0.055633  0  0.025719  -0.065152  0  1.480037  0
Br  Br69  1  0.83605200  0.28178360  0.54190944  1  -0.056043  0  0.025731  -0.065048  0  1.480014  0
Br  Br70  1  0.83703298  0.90654854  0.61519111  1  -0.054217  0  0.025672  -0.065198  0  1.480013  0
Br  Br71  1  0.83606541  0.76008432  0.71817514  1  -0.054016  0  0.025807  -0.064971  0  1.480426  0
Br  Br72  1  0.83683013  0.20869768  0.09350877  1  -0.053065  0  0.02578  -0.065076  0  1.479953  0
Br  Br73  1  0.83517299  0.45818569  0.23989213  1  -0.053606  0  0.025821  -0.064811  0  1.479906  0
O  O74  1  0.74204871  0.55856100  0.55065797  1  -1.24991  0  -0.237115  -0.594577  0  2.361638  0
O  O75  1  0.74209120  0.49208254  0.44141483  1  -1.258132  0  -0.237086  -0.59418  0  2.36163  0
O  O76  1  0.74206856  0.44932137  0.50790838  1  -1.250008  0  -0.237036  -0.594255  0  2.361632  0
O  O77  1  0.27268951  0.55793224  0.50692125  1  -1.261649  0  -0.240172  -0.601122  0  2.363158  0
O  O78  1  0.27268425  0.49305979  0.55101407  1  -1.258706  0  -0.240097  -0.600981  0  2.363038  0
O  O79  1  0.27274066  0.44898076  0.44206079  1  -1.257333  0  -0.240202  -0.601225  0  2.363123  0
O  O80  1  0.74212329  0.17455564  0.89192862  1  -1.25712  0  -0.237232  -0.594628  0  2.361701  0
O  O81  1  0.74211107  0.21732270  0.82544574  1  -1.250789  0  -0.237135  -0.594493  0  2.361808  0
O  O82  1  0.74214088  0.10807887  0.78267483  1  -1.250025  0  -0.237312  -0.594475  0  2.361672  0
O  O83  1  0.27273949  0.21766125  0.89129450  1  -1.257374  0  -0.240099  -0.600986  0  2.36317  0
O  O84  1  0.27276076  0.10870165  0.82640563  1  -1.261448  0  -0.240104  -0.600864  0  2.36296  0
O  O85  1  0.27275606  0.17359114  0.78233782  1  -1.257327  0  -0.240139  -0.600866  0  2.36332  0
