# generated using pymatgen
data_CuH6C6(NO3)2
_symmetry_space_group_name_H-M   'P 1'
_cell_length_a   7.26375779
_cell_length_b   7.25957847
_cell_length_c   10.42917550
_cell_angle_alpha   86.27762120
_cell_angle_beta   116.74596101
_cell_angle_gamma   116.46825213
_symmetry_Int_Tables_number   1
_chemical_formula_structural   CuH6C6(NO3)2
_chemical_formula_sum   'Cu2 H12 C12 N4 O12'
_cell_volume   433.25661358
_cell_formula_units_Z   2
loop_
 _symmetry_equiv_pos_site_id
 _symmetry_equiv_pos_as_xyz
  1  'x, y, z'
loop_
 _atom_site_type_symbol
 _atom_site_label
 _atom_site_symmetry_multiplicity
 _atom_site_fract_x
 _atom_site_fract_y
 _atom_site_fract_z
 _atom_site_occupancy
 _atom_site_hle17_ddec_charge
 _atom_site_hle17_ddec_spin_density
 _atom_site_hle17_ddec_sum_bond_order
 _atom_site_hle17_magmom
 _atom_site_hse06_10hf_ddec_charge
 _atom_site_hse06_10hf_ddec_spin_density
 _atom_site_hse06_10hf_ddec_sum_bond_order
 _atom_site_hse06_10hf_magmom
 _atom_site_hse06_ddec_charge
 _atom_site_hse06_ddec_spin_density
 _atom_site_hse06_ddec_sum_bond_order
 _atom_site_hse06_magmom
 _atom_site_pbe_cm5_charge
 _atom_site_pbe_ddec_charge
 _atom_site_pbe_ddec_spin_density
 _atom_site_pbe_ddec_sum_bond_order
 _atom_site_pbe_magmom
Cu  Cu0  1  0.00000281  0.99999930  0.50000217  1  0.888651  -0.741891  1.855351  -0.525  0.877598  -0.81663  2.234848  -0.64  0.954517  -0.892962  2.178049  -0.728  0.778144  0.832018  -0.755155  2.274255  -0.575
Cu  Cu1  1  0.99999667  0.50000161  0.99999806  1  0.886676  0.742045  1.857819  0.525  0.875686  0.816349  2.237788  0.639  0.954908  0.892708  2.179117  0.727  0.777821  0.829966  0.755324  2.277713  0.575
H  H2  1  0.28807516  0.42502949  0.30319098  1  0.429367  -9.5e-05  0.830545  0.0  0.409765  -0.000124  0.893356  0.0  0.420654  -6.8e-05  0.877386  0.0  0.302329  0.401893  -0.000138  0.904535  0.0
H  H3  1  0.62294102  0.98566562  0.19671931  1  0.428413  6.2e-05  0.832286  0.0  0.408847  9.2e-05  0.894495  0.0  0.419611  4.7e-05  0.878656  0.0  0.302609  0.401486  0.000136  0.905086  0.0
H  H4  1  0.71193502  0.57498392  0.69680878  1  0.429375  -9.5e-05  0.830518  0.0  0.409768  -0.000125  0.893357  0.0  0.420657  -6.8e-05  0.877383  0.0  0.30233  0.401892  -0.000138  0.904526  0.0
H  H5  1  0.37706389  0.01433995  0.80328111  1  0.428388  6.2e-05  0.832315  0.0  0.408817  9.2e-05  0.894545  0.0  0.41958  4.7e-05  0.878707  0.0  0.302583  0.401455  0.000136  0.905129  0.0
H  H6  1  0.33918748  0.36697817  0.18257135  1  0.418184  0.000311  0.884971  0.0  0.390145  0.000266  0.94677  0.0  0.40073  0.000145  0.931532  0.0  0.285933  0.382956  0.000415  0.957118  0.0
H  H7  1  0.68470329  0.15665012  0.31746741  1  0.417677  -0.000315  0.88563  0.0  0.389243  -0.000271  0.948208  0.0  0.399737  -0.000148  0.933077  0.0  0.2856  0.382084  -0.000417  0.958481  0.0
H  H8  1  0.66081115  0.63302747  0.81742665  1  0.418167  0.000311  0.884989  0.0  0.390121  0.000266  0.946802  0.0  0.400707  0.000145  0.931562  0.0  0.285944  0.382937  0.000415  0.957145  0.0
H  H9  1  0.31529978  0.84334755  0.68253640  1  0.417625  -0.000315  0.885697  0.0  0.389188  -0.000272  0.948281  0.0  0.399682  -0.000148  0.933151  0.0  0.285572  0.382024  -0.000417  0.95856  0.0
H  H10  1  0.71946771  0.04491463  0.85800039  1  0.118296  0.000625  0.956301  0.001  0.121264  0.000465  1.020962  0.001  0.125518  0.000372  1.016252  0.001  0.133433  0.117742  0.000514  1.024921  0.001
H  H11  1  0.68586723  0.86191557  0.64135379  1  0.117896  -0.000614  0.955566  -0.001  0.120768  -0.00046  1.020302  -0.001  0.125034  -0.000372  1.015543  -0.001  0.133318  0.117219  -0.000517  1.024363  -0.001
H  H12  1  0.28053078  0.95508787  0.14199756  1  0.118308  0.000625  0.956229  0.001  0.121216  0.000465  1.020958  0.001  0.12547  0.000372  1.016248  0.001  0.133417  0.117693  0.000514  1.024913  0.001
H  H13  1  0.31412529  0.13808067  0.35864468  1  0.117932  -0.000615  0.955561  -0.001  0.120782  -0.00046  1.020323  -0.001  0.125049  -0.000372  1.015562  -0.001  0.133343  0.117238  -0.000517  1.024379  -0.001
C  C14  1  0.11364254  0.33181037  0.68715523  1  0.075575  0.009851  3.627987  0.01  0.072604  0.001625  3.871328  0.002  0.075698  0.003227  3.88515  0.004  0.131754  0.069376  0.000287  3.864531  0.001
C  C15  1  0.14407352  0.42643144  0.81246162  1  0.073503  -0.009863  3.630767  -0.01  0.071766  -0.001642  3.873272  -0.002  0.07486  -0.003241  3.887535  -0.004  0.131602  0.068262  -0.000288  3.866771  -0.001
C  C16  1  0.88635759  0.66818582  0.31284499  1  0.075699  0.009857  3.627751  0.01  0.072688  0.001627  3.871191  0.002  0.075749  0.003227  3.884987  0.004  0.131785  0.069438  0.000288  3.864437  0.001
C  C17  1  0.85592318  0.57356481  0.18753587  1  0.073537  -0.009863  3.630818  -0.01  0.071723  -0.00164  3.873432  -0.002  0.074931  -0.003243  3.887541  -0.004  0.131619  0.068231  -0.000287  3.866942  -0.001
C  C18  1  0.81395679  0.02322264  0.69089958  1  0.140499  0.01614  3.567053  0.017  0.112521  0.005071  3.814097  0.007  0.121364  0.005921  3.821485  0.008  0.08477  0.106185  0.004406  3.810935  0.006
C  C19  1  0.83137938  0.12332252  0.80855044  1  0.139479  -0.016093  3.569018  -0.017  0.111026  -0.005036  3.816641  -0.007  0.119691  -0.005902  3.824656  -0.008  0.084984  0.10487  -0.004401  3.813531  -0.006
C  C20  1  0.18604075  0.97677981  0.30910105  1  0.140558  0.016142  3.566888  0.017  0.112569  0.005069  3.813965  0.007  0.121413  0.00592  3.82135  0.008  0.08481  0.106236  0.004405  3.81081  0.006
C  C21  1  0.16861817  0.87667993  0.19145020  1  0.13934  -0.0161  3.568614  -0.017  0.110956  -0.005038  3.81624  -0.007  0.119621  -0.005904  3.82426  -0.008  0.084906  0.104802  -0.004403  3.813135  -0.006
C  C22  1  0.22330201  0.43283215  0.59005300  1  0.612821  0.004168  3.933497  0.006  0.564885  -0.000265  4.246255  0.001  0.601384  -0.000299  4.239497  0.0  0.210107  0.539915  -0.000425  4.250126  0.001
C  C23  1  0.34225821  0.63299319  0.90967502  1  0.612075  -0.004135  3.935834  -0.006  0.564078  0.000272  4.248066  -0.001  0.600746  0.000299  4.241486  0.0  0.209611  0.539128  0.000436  4.251934  -0.001
C  C24  1  0.77669818  0.56716088  0.40994818  1  0.612852  0.004168  3.933219  0.006  0.564951  -0.000265  4.245958  0.001  0.601448  -0.0003  4.2392  0.0  0.210127  0.539983  -0.000425  4.24983  0.001
C  C25  1  0.65774446  0.36700933  0.09032196  1  0.61191  -0.004134  3.935753  -0.006  0.563968  0.000273  4.247936  -0.001  0.600602  0.000299  4.241353  0.0  0.209562  0.539013  0.000437  4.251802  -0.001
N  N26  1  0.95455309  0.12858073  0.63396355  1  -0.243872  -0.075166  3.325334  -0.092  -0.20366  -0.049943  3.609167  -0.065  -0.225149  -0.042317  3.625126  -0.058  -0.331248  -0.192142  -0.053949  3.601363  -0.068
N  N27  1  0.99392927  0.32062401  0.86562997  1  -0.240537  0.075342  3.325859  0.092  -0.20107  0.050193  3.609941  0.065  -0.223609  0.04247  3.626995  0.058  -0.330478  -0.189705  0.053888  3.602674  0.067
N  N28  1  0.04545086  0.87142015  0.36603661  1  -0.24388  -0.075171  3.325225  -0.092  -0.203636  -0.049943  3.609059  -0.065  -0.225129  -0.042316  3.62503  -0.058  -0.331236  -0.192115  -0.053948  3.601277  -0.068
N  N29  1  0.00606394  0.67937065  0.13436865  1  -0.240557  0.075345  3.325816  0.092  -0.201054  0.050192  3.60987  0.065  -0.223629  0.042471  3.626892  0.058  -0.330462  -0.189687  0.053886  3.602603  0.067
O  O30  1  0.21053037  0.30316670  0.50399115  1  -0.572607  -0.088499  2.00385  -0.116  -0.553512  -0.055914  2.276155  -0.08  -0.594913  -0.041699  2.268326  -0.063  -0.312693  -0.525743  -0.065236  2.281721  -0.09
O  O31  1  0.29864480  0.70632650  0.99575048  1  -0.572035  0.088234  2.004862  0.116  -0.552795  0.055775  2.277097  0.08  -0.595078  0.041651  2.269614  0.063  -0.312309  -0.524761  0.065247  2.282271  0.09
O  O32  1  0.78947441  0.69683094  0.49601402  1  -0.572614  -0.088508  2.003665  -0.116  -0.553543  -0.055916  2.275948  -0.08  -0.594948  -0.041698  2.268128  -0.063  -0.312724  -0.52577  -0.065242  2.281508  -0.09
O  O33  1  0.70134970  0.29367597  0.00424946  1  -0.571888  0.08821  2.005067  0.116  -0.552699  0.055761  2.277264  0.08  -0.594974  0.041644  2.269788  0.063  -0.312306  -0.52467  0.06523  2.282443  0.09
O  O34  1  0.30400530  0.62532892  0.59146701  1  -0.573366  -0.018762  1.967913  -0.024  -0.533292  -0.009492  2.191653  -0.013  -0.5615  -0.004614  2.185248  -0.007  -0.296923  -0.511869  -0.015164  2.194537  -0.02
O  O35  1  0.53325124  0.71207929  0.90830718  1  -0.573274  0.018654  1.967162  0.023  -0.533184  0.009466  2.190627  0.013  -0.561088  0.004622  2.183979  0.007  -0.297432  -0.512058  0.015151  2.193704  0.02
O  O36  1  0.69599660  0.37466408  0.40853553  1  -0.573455  -0.01876  1.967854  -0.024  -0.533349  -0.009491  2.191538  -0.013  -0.561565  -0.004613  2.185153  -0.007  -0.296948  -0.511933  -0.015164  2.194422  -0.02
O  O37  1  0.46673875  0.28792006  0.09169267  1  -0.573273  0.018659  1.966777  0.023  -0.533181  0.009466  2.190244  0.013  -0.561085  0.004622  2.18361  0.007  -0.29742  -0.512051  0.015153  2.193314  0.02
O  O38  1  0.22122898  0.37926416  0.19914427  1  -0.848533  -0.000211  1.852394  0.001  -0.818789  1.4e-05  2.035329  0.001  -0.840433  -0.000339  2.0023  0.001  -0.596629  -0.803647  0.000358  2.058435  0.001
O  O39  1  0.68071608  0.02225446  0.30076227  1  -0.847245  0.000302  1.854828  -0.001  -0.817249  5.6e-05  2.037817  -0.001  -0.837978  0.000374  2.004765  -0.001  -0.59632  -0.802176  -0.000375  2.060262  -0.001
O  O40  1  0.77877510  0.62073986  0.80085595  1  -0.848497  -0.000211  1.85237  0.001  -0.818769  1.5e-05  2.035347  0.001  -0.840393  -0.000339  2.002285  0.001  -0.596625  -0.803631  0.000358  2.058446  0.001
O  O41  1  0.31928406  0.97774173  0.69923795  1  -0.84717  0.000302  1.85493  -0.001  -0.817159  5.7e-05  2.037909  -0.001  -0.837891  0.000375  2.004859  -0.001  -0.59626  -0.802081  -0.000375  2.060349  -0.001
