# generated using pymatgen
data_Zn4H36C48O13
_symmetry_space_group_name_H-M   'P 1'
_cell_length_a   23.74452716
_cell_length_b   23.74586614
_cell_length_c   23.74578643
_cell_angle_alpha   66.16588917
_cell_angle_beta   72.66557550
_cell_angle_gamma   107.32927431
_symmetry_Int_Tables_number   1
_chemical_formula_structural   Zn4H36C48O13
_chemical_formula_sum   'Zn8 H72 C96 O26'
_cell_volume   10262.16479714
_cell_formula_units_Z   2
loop_
 _symmetry_equiv_pos_site_id
 _symmetry_equiv_pos_as_xyz
  1  'x, y, z'
loop_
 _atom_site_type_symbol
 _atom_site_label
 _atom_site_symmetry_multiplicity
 _atom_site_fract_x
 _atom_site_fract_y
 _atom_site_fract_z
 _atom_site_occupancy
 _atom_site_pbe_bader_charge
 _atom_site_pbe_bader_spin_density
 _atom_site_pbe_cm5_charge
 _atom_site_pbe_ddec_charge
 _atom_site_pbe_ddec_spin_density
 _atom_site_pbe_ddec_sum_bond_order
 _atom_site_pbe_magmom
Zn  Zn0  1  0.05581068  0.95575528  0.48631011  1  1.315908  0  0.67388  0.955819  0  2.38501  0
Zn  Zn1  1  0.05581371  0.09990990  0.45796303  1  1.314159  0  0.674168  0.956147  0  2.384992  0
Zn  Zn2  1  0.94412648  0.98606903  0.45590079  1  1.315091  0  0.673716  0.955446  0  2.384451  0
Zn  Zn3  1  0.94407108  0.95805851  0.59991452  1  1.313135  0  0.673804  0.95514  0  2.384424  0
Zn  Zn4  1  0.94203876  0.54193412  0.01399665  1  1.313255  0  0.67391  0.955496  0  2.384733  0
Zn  Zn5  1  0.05802305  0.51385337  0.04199772  1  1.313656  0  0.673715  0.955521  0  2.384528  0
Zn  Zn6  1  0.94211448  0.40008102  0.04408414  1  1.313984  0  0.674112  0.955922  0  2.385288  0
Zn  Zn7  1  0.05794998  0.54423173  0.89998087  1  1.314037  0  0.673899  0.955864  0  2.384623  0
H  H8  1  0.92270152  0.79784865  0.77825451  1  0.107112  0  0.108452  0.113426  0  0.994239  0
H  H9  1  0.07554401  0.70106797  0.72249769  1  0.105493  0  0.108288  0.112953  0  0.993306  0
H  H10  1  0.92381677  0.70200674  0.87519088  1  0.10509  0  0.108499  0.113325  0  0.994185  0
H  H11  1  0.07634096  0.79881529  0.62555954  1  0.109576  0  0.108342  0.113317  0  0.993534  0
H  H12  1  0.92286183  0.12517758  0.29911656  1  0.080342  0  0.108064  0.112699  0  0.994425  0
H  H13  1  0.07576400  0.37468998  0.20219912  1  0.111266  0  0.108167  0.112914  0  0.993687  0
H  H14  1  0.92390761  0.22221977  0.20119426  1  0.109824  0  0.108258  0.112839  0  0.994007  0
H  H15  1  0.07661661  0.27766689  0.29819949  1  0.112235  0  0.108005  0.112783  0  0.993312  0
H  H16  1  0.90989135  0.69483488  0.19407671  1  0.052933  0  0.102589  0.108717  0  1.002773  0
H  H17  1  0.09005208  0.69402906  0.19507017  1  0.053274  0  0.102638  0.108713  0  1.003124  0
H  H18  1  0.90404744  0.79483693  0.31464031  1  0.075712  0  0.102687  0.108808  0  1.000996  0
H  H19  1  0.09607977  0.81466074  0.29458997  1  0.075245  0  0.102924  0.109408  0  1.000036  0
H  H20  1  0.09049635  0.39567404  0.71518623  1  0.07454  0  0.102621  0.10894  0  1.002563  0
H  H21  1  0.90955072  0.21522886  0.89576757  1  0.075374  0  0.102808  0.109191  0  1.002332  0
H  H22  1  0.09597741  0.28138654  0.60923730  1  0.049775  0  0.102729  0.108972  0  1.000502  0
H  H23  1  0.90402354  0.10921008  0.78132823  1  0.050924  0  0.102645  0.108944  0  1.001003  0
H  H24  1  0.60947361  0.39091360  0.20501236  1  0.056736  0  0.102794  0.108802  0  1.000541  0
H  H25  1  0.60938100  0.21874996  0.18517586  1  0.058072  0  0.102797  0.108909  0  1.000881  0
H  H26  1  0.38901776  0.28479830  0.30572725  1  0.050754  0  0.102684  0.109187  0  1.002342  0
H  H27  1  0.38916247  0.10443069  0.30502055  1  0.059778  0  0.102591  0.108859  0  1.002492  0
H  H28  1  0.39058647  0.70518355  0.89078162  1  0.057756  0  0.102701  0.108922  0  1.000793  0
H  H29  1  0.39069832  0.68530657  0.71863926  1  0.059867  0  0.102851  0.109194  0  1.000369  0
H  H30  1  0.61110762  0.80486723  0.78503666  1  0.06605  0  0.102746  0.109004  0  1.002869  0
H  H31  1  0.61093821  0.80597777  0.60395220  1  0.059459  0  0.102559  0.108501  0  1.003388  0
H  H32  1  0.86023270  0.65298869  0.14640294  1  0.02015  0  0.086802  0.116317  0  1.006691  0
H  H33  1  0.85795798  0.57359329  0.15664849  1  0.026976  0  0.093969  0.136215  0  1.004143  0
H  H34  1  0.90776798  0.65151623  0.07341568  1  0.014705  0  0.095843  0.139808  0  0.991061  0
H  H35  1  0.13974605  0.64621116  0.15340268  1  0.012734  0  0.086934  0.116353  0  1.007047  0
H  H36  1  0.14209317  0.65638635  0.07401071  1  0.034882  0  0.09355  0.135665  0  1.003947  0
H  H37  1  0.09221309  0.57319270  0.15198412  1  0.061415  0  0.095677  0.139704  0  0.991612  0
H  H38  1  0.89838436  0.91486928  0.34905671  1  0.071076  0  0.097253  0.14252  0  0.985179  0
H  H39  1  0.86557050  0.84599077  0.43585299  1  0.033329  0  0.093211  0.13277  0  1.005322  0
H  H40  1  0.84525903  0.82740052  0.37672651  1  0.037007  0  0.088886  0.120158  0  1.004021  0
H  H41  1  0.10202637  0.84909427  0.41456091  1  0.07195  0  0.097189  0.142537  0  0.984747  0
H  H42  1  0.13480889  0.93587486  0.34572564  1  0.033033  0  0.093385  0.132983  0  1.0053  0
H  H43  1  0.15506999  0.87674980  0.32707151  1  0.029343  0  0.089336  0.120907  0  1.003157  0
H  H44  1  0.14064525  0.49280531  0.70746644  1  0.024234  0  0.086717  0.116054  0  1.006994  0
H  H45  1  0.14214085  0.48512829  0.78475384  1  0.064902  0  0.093936  0.135653  0  1.006143  0
H  H46  1  0.09295669  0.51885121  0.75556787  1  0.066502  0  0.095607  0.139895  0  0.989059  0
H  H47  1  0.85947559  0.20765381  0.99280323  1  0.026445  0  0.086806  0.116168  0  1.007054  0
H  H48  1  0.85792943  0.28496811  0.98499262  1  0.061526  0  0.093974  0.135582  0  1.006757  0
H  H49  1  0.90713338  0.25588522  0.01877035  1  0.043561  0  0.095634  0.139945  0  0.988746  0
H  H50  1  0.10172980  0.25284386  0.48339134  1  0.07335  0  0.09743  0.142984  0  0.985078  0
H  H51  1  0.13466070  0.19895093  0.51937197  1  0.026977  0  0.093167  0.13283  0  1.005223  0
H  H52  1  0.15483737  0.27831873  0.51776471  1  0.03121  0  0.0892  0.120644  0  1.003555  0
H  H53  1  0.89826256  0.98348930  0.75258699  1  0.072954  0  0.097237  0.142594  0  0.985005  0
H  H54  1  0.86540716  0.01955532  0.69865534  1  0.026415  0  0.09345  0.132905  0  1.005043  0
H  H55  1  0.84515481  0.01784155  0.77809205  1  0.038275  0  0.088949  0.120258  0  1.00398  0
H  H56  1  0.76396044  0.51660433  0.08508432  1  0.078285  0  0.097255  0.142633  0  0.985521  0
H  H57  1  0.78176450  0.48049692  0.15405498  1  0.031668  0  0.093429  0.13295  0  1.004927  0
H  H58  1  0.70406350  0.48225606  0.17252453  1  0.035905  0  0.088761  0.120052  0  1.003925  0
H  H59  1  0.76374925  0.24722455  0.15090992  1  0.070922  0  0.097226  0.142854  0  0.984665  0
H  H60  1  0.78172399  0.30117618  0.06410838  1  0.009611  0  0.093422  0.133198  0  1.005479  0
H  H61  1  0.70393052  0.22180992  0.12323192  1  0.031153  0  0.089305  0.120823  0  1.00384  0
H  H62  1  0.29955621  0.29228333  0.34851042  1  -0.001447  0  0.086941  0.116416  0  1.006825  0
H  H63  1  0.23000627  0.21490659  0.42724646  1  0.05733  0  0.093863  0.135677  0  1.007352  0
H  H64  1  0.22540574  0.24420003  0.34891102  1  0.04634  0  0.095714  0.140195  0  0.989057  0
H  H65  1  0.29977381  0.00728209  0.35204827  1  0.024137  0  0.086649  0.115944  0  1.007137  0
H  H66  1  0.23008793  0.01490355  0.34301593  1  0.06594  0  0.093913  0.135597  0  1.00619  0
H  H67  1  0.22567698  0.98118357  0.42586215  1  0.078269  0  0.09572  0.139885  0  0.989261  0
H  H68  1  0.23616653  0.58522718  0.01650065  1  0.074596  0  0.09711  0.142439  0  0.984819  0
H  H69  1  0.21823342  0.65410257  0.98042928  1  0.032014  0  0.093357  0.13288  0  1.005003  0
H  H70  1  0.29596937  0.67270514  0.98211690  1  0.037787  0  0.088934  0.12021  0  1.004086  0
H  H71  1  0.23630161  0.65093477  0.74715605  1  0.069679  0  0.097181  0.142678  0  0.984874  0
H  H72  1  0.21835242  0.56414714  0.80114007  1  0.010348  0  0.093378  0.133045  0  1.005336  0
H  H73  1  0.29611478  0.62326406  0.72175600  1  0.031459  0  0.089291  0.12074  0  1.00375  0
H  H74  1  0.70062383  0.84652942  0.79291481  1  0.038205  0  0.087069  0.116794  0  1.006991  0
H  H75  1  0.76969555  0.92604448  0.71589230  1  0.079649  0  0.094007  0.136225  0  1.004102  0
H  H76  1  0.77513976  0.84819247  0.74373747  1  0.054517  0  0.095837  0.139948  0  0.992107  0
H  H77  1  0.70041576  0.85387011  0.50644013  1  0.012156  0  0.087024  0.116592  0  1.007035  0
H  H78  1  0.76961138  0.84359698  0.51426570  1  0.035934  0  0.093705  0.136032  0  1.00382  0
H  H79  1  0.77488159  0.92681109  0.48102074  1  0.062126  0  0.095654  0.139746  0  0.991796  0
C  C80  1  0.17993209  0.08985658  0.41018695  1  1.509135  0  0.225428  0.611411  0  4.140771  0
C  C81  1  0.99978754  0.13831471  0.36166724  1  1.559275  0  0.229676  0.607968  0  4.156826  0
C  C82  1  0.00022523  0.90897402  0.40882338  1  1.49955  0  0.226165  0.613244  0  4.148906  0
C  C83  1  0.82016258  0.91012941  0.58975949  1  1.511886  0  0.224285  0.609912  0  4.144613  0
C  C84  1  0.99953394  0.86138415  0.63878800  1  1.560715  0  0.229102  0.606928  0  4.158813  0
C  C85  1  0.00006119  0.09115928  0.59099456  1  1.492463  0  0.225639  0.612493  0  4.150984  0
C  C86  1  0.00004247  0.58974496  0.09010542  1  1.525148  0  0.224183  0.609529  0  4.143504  0
C  C87  1  0.99994134  0.36157301  0.13855545  1  1.55728  0  0.229316  0.606736  0  4.158707  0
C  C88  1  0.81784905  0.40887430  0.09101033  1  1.529942  0  0.226257  0.613118  0  4.150257  0
C  C89  1  0.00002838  0.41017699  0.90990970  1  1.556174  0  0.224644  0.610208  0  4.141873  0
C  C90  1  0.99981745  0.63854714  0.86185830  1  1.557585  0  0.229429  0.60752  0  4.158038  0
C  C91  1  0.18221110  0.59106100  0.90881723  1  1.531809  0  0.226096  0.612902  0  4.149514  0
C  C92  1  0.99951815  0.80375337  0.69648881  1  -0.062872  0  -0.012492  -0.029575  0  3.962332  0
C  C93  1  0.99968921  0.69612304  0.80425550  1  -0.007574  0  -0.012702  -0.03017  0  3.962487  0
C  C94  1  0.95619091  0.77651727  0.76672650  1  0.031588  0  -0.079564  -0.091429  0  3.968453  0
C  C95  1  0.04260862  0.72296390  0.73401363  1  -0.085925  0  -0.079392  -0.090362  0  3.969245  0
C  C96  1  0.95666486  0.72334638  0.82036019  1  -0.07037  0  -0.079706  -0.09113  0  3.967901  0
C  C97  1  0.04291669  0.77689787  0.68039740  1  -0.009825  0  -0.079458  -0.091545  0  3.969655  0
C  C98  1  0.99973979  0.19599416  0.30407090  1  -0.035575  0  -0.013395  -0.030793  0  3.962967  0
C  C99  1  0.99983821  0.30387415  0.19628146  1  -0.029376  0  -0.013195  -0.029948  0  3.962652  0
C  C100  1  0.95635055  0.17997440  0.27718873  1  -0.035307  0  -0.079039  -0.090457  0  3.970723  0
C  C101  1  0.04281320  0.31988913  0.22357551  1  -0.037854  0  -0.07901  -0.090884  0  3.970151  0
C  C102  1  0.95679335  0.23365824  0.22316335  1  -0.007833  0  -0.079212  -0.09056  0  3.970091  0
C  C103  1  0.04314452  0.26620953  0.27681860  1  -0.040406  0  -0.078809  -0.090103  0  3.969005  0
C  C104  1  0.00001613  0.62733740  0.12763726  1  -0.025295  0  -0.019749  -0.17966  0  3.838726  0
C  C105  1  0.94816462  0.64569426  0.14545331  1  -0.006881  0  0.005707  0.182513  0  3.931731  0
C  C106  1  0.94936142  0.68077010  0.18047159  1  0.012153  0  -0.09081  -0.206274  0  3.922268  0
C  C107  1  0.99995883  0.69868007  0.19881905  1  0.078431  0  0.001497  0.162939  0  4.164585  0
C  C108  1  0.05059585  0.68035564  0.18098764  1  0.006096  0  -0.090733  -0.206  0  3.922277  0
C  C109  1  0.05184359  0.64525884  0.14599343  1  -0.009847  0  0.005635  0.18165  0  3.932101  0
C  C110  1  0.99994114  0.73425198  0.23430918  1  -0.168202  0  -0.041883  -0.103212  0  4.100351  0
C  C111  1  0.00000893  0.76500391  0.26495119  1  -0.231384  0  -0.041157  -0.100291  0  4.103265  0
C  C112  1  0.00004853  0.80055853  0.30046684  1  0.012381  0  -0.000136  0.154549  0  4.163241  0
C  C113  1  0.94617726  0.81323878  0.32392805  1  0.047808  0  -0.089647  -0.202085  0  3.91937  0
C  C114  1  0.94547301  0.84875442  0.35848730  1  -0.061372  0  0.003427  0.175529  0  3.951292  0
C  C115  1  0.00018885  0.87143383  0.37126084  1  0.041465  0  -0.017952  -0.166393  0  3.853234  0
C  C116  1  0.05483314  0.85858325  0.34853476  1  -0.059528  0  0.003058  0.175556  0  3.952219  0
C  C117  1  0.05399852  0.82399938  0.31305278  1  0.044145  0  -0.089756  -0.202913  0  3.918414  0
C  C118  1  0.00003719  0.37256485  0.87239226  1  -0.049519  0  -0.020118  -0.181168  0  3.837871  0
C  C119  1  0.05207045  0.40633587  0.80235273  1  0.024287  0  0.005831  0.183306  0  3.930202  0
C  C120  1  0.05084662  0.37000647  0.76858573  1  -0.037799  0  -0.090821  -0.207597  0  3.921078  0
C  C121  1  0.00001312  0.30119471  0.80123479  1  0.116564  0  0.001487  0.164247  0  4.163202  0
C  C122  1  0.94920845  0.26862927  0.87004036  1  -0.035172  0  -0.090828  -0.207252  0  3.920907  0
C  C123  1  0.94800790  0.30249960  0.90627002  1  0.025644  0  0.005902  0.183152  0  3.930694  0
C  C124  1  0.99999823  0.26563220  0.76573720  1  -0.16488  0  -0.042246  -0.103467  0  4.100055  0
C  C125  1  0.99998830  0.23495523  0.73503354  1  -0.2343  0  -0.041045  -0.100454  0  4.103778  0
C  C126  1  0.99999682  0.19945266  0.69946720  1  0.076851  0  1.4e-05  0.154914  0  4.16331  0
C  C127  1  0.05390195  0.22996287  0.63290525  1  0.041587  0  -0.089731  -0.202669  0  3.918585  0
C  C128  1  0.05467089  0.19620298  0.59659123  1  -0.047427  0  0.003167  0.175399  0  3.951939  0
C  C129  1  0.00002650  0.12870603  0.62855054  1  0.003752  0  -0.017536  -0.165645  0  3.853159  0
C  C130  1  0.94535324  0.09668878  0.69605354  1  -0.059579  0  0.003268  0.175176  0  3.951286  0
C  C131  1  0.94610533  0.13291517  0.72990010  1  0.042611  0  -0.089476  -0.202277  0  3.918934  0
C  C132  1  0.74274881  0.37138341  0.12851882  1  0.018968  0  -0.017738  -0.166095  0  3.852982  0
C  C133  1  0.70726661  0.40341146  0.15116632  1  -0.044539  0  0.003156  0.174865  0  3.951932  0
C  C134  1  0.63719908  0.36720393  0.18661545  1  0.064623  0  -0.089462  -0.2018  0  3.9191  0
C  C135  1  0.60109275  0.30067339  0.19923944  1  0.057247  0  -0.000248  0.154852  0  4.162912  0
C  C136  1  0.63714346  0.27016363  0.17583418  1  -0.077555  0  -0.089746  -0.20283  0  3.918423  0
C  C137  1  0.70720775  0.30389974  0.14133612  1  0.04179  0  0.003214  0.176062  0  3.950706  0
C  C138  1  0.53002393  0.26516081  0.23478026  1  -0.352688  0  -0.041172  -0.100433  0  4.104773  0
C  C139  1  0.46864436  0.23447881  0.26548222  1  -0.063395  0  -0.042125  -0.103668  0  4.101247  0
C  C140  1  0.39758599  0.19887929  0.30109931  1  0.066111  0  0.001414  0.164392  0  4.163143  0
C  C141  1  0.36134357  0.23141032  0.31943702  1  0.00592  0  -0.090973  -0.207851  0  3.921402  0
C  C142  1  0.29124601  0.19752183  0.35456651  1  0.036015  0  0.00626  0.183621  0  3.93071  0
C  C143  1  0.25506464  0.12747638  0.37255407  1  -0.03981  0  -0.020177  -0.181522  0  3.837833  0
C  C144  1  0.29133587  0.09372091  0.35423564  1  0.008266  0  0.006035  0.182973  0  3.930465  0
C  C145  1  0.36143144  0.13007357  0.31906246  1  -0.002112  0  -0.090694  -0.20694  0  3.920776  0
C  C146  1  0.25731253  0.62859821  0.87130250  1  0.019013  0  -0.01757  -0.16567  0  3.852057  0
C  C147  1  0.29280036  0.65128603  0.90330688  1  -0.053669  0  0.00336  0.175332  0  3.9515  0
C  C148  1  0.36287308  0.68676605  0.86708198  1  0.060825  0  -0.089941  -0.202677  0  3.919705  0
C  C149  1  0.39899638  0.69941908  0.80053976  1  0.056282  0  -0.000111  0.154802  0  4.162583  0
C  C150  1  0.36293144  0.67599224  0.77004630  1  0.057653  0  -0.089916  -0.203118  0  3.91837  0
C  C151  1  0.29286294  0.64143353  0.80381069  1  -0.091937  0  0.003175  0.175494  0  3.951275  0
C  C152  1  0.47006609  0.73494291  0.76502155  1  -0.324114  0  -0.040957  -0.099769  0  4.103723  0
C  C153  1  0.53145329  0.76563406  0.73433175  1  -0.08791  0  -0.042145  -0.103665  0  4.100951  0
C  C154  1  0.60251884  0.80118500  0.69874878  1  0.060544  0  0.001206  0.162411  0  4.164491  0
C  C155  1  0.63877233  0.81900341  0.73148165  1  0.05791  0  -0.090917  -0.206404  0  3.922004  0
C  C156  1  0.70887066  0.85407807  0.69760270  1  -0.034579  0  0.005933  0.182517  0  3.931352  0
C  C157  1  0.74504349  0.87251215  0.62737512  1  -0.036607  0  -0.019867  -0.179884  0  3.838661  0
C  C158  1  0.70877610  0.85467240  0.59343408  1  -0.001252  0  0.005917  0.182358  0  3.931937  0
C  C159  1  0.63868203  0.81958470  0.62976544  1  0.002914  0  -0.090563  -0.205703  0  3.922823  0
C  C160  1  0.89050101  0.63021037  0.12948594  1  0.039172  0  -0.240345  -0.407957  0  3.972441  0
C  C161  1  0.10950066  0.62927492  0.13061560  1  -0.010186  0  -0.239851  -0.406968  0  3.972712  0
C  C162  1  0.88536864  0.85969567  0.38140911  1  -0.065314  0  -0.239319  -0.410873  0  3.97482  0
C  C163  1  0.11499520  0.88144657  0.35940506  1  -0.05612  0  -0.23967  -0.41176  0  3.973294  0
C  C164  1  0.10999733  0.47978961  0.76024609  1  -0.072408  0  -0.240197  -0.407332  0  3.972462  0
C  C165  1  0.89009097  0.26046676  0.97972485  1  -0.051783  0  -0.240489  -0.407566  0  3.972554  0
C  C166  1  0.11477772  0.23351956  0.52552999  1  -0.047248  0  -0.239701  -0.411852  0  3.974108  0
C  C167  1  0.88523652  0.02564658  0.73328097  1  -0.050215  0  -0.239652  -0.411061  0  3.974209  0
C  C168  1  0.74107553  0.47443107  0.14026836  1  -0.065748  0  -0.239364  -0.410831  0  3.974671  0
C  C169  1  0.74095825  0.26658212  0.11852821  1  -0.027894  0  -0.239866  -0.412516  0  3.973873  0
C  C170  1  0.25982730  0.23951321  0.37057437  1  -0.007099  0  -0.240778  -0.408363  0  3.973802  0
C  C171  1  0.25999909  0.02026352  0.36975583  1  -0.077249  0  -0.240266  -0.407045  0  3.972773  0
C  C172  1  0.25897388  0.64039198  0.97432985  1  -0.053243  0  -0.239308  -0.410767  0  3.974096  0
C  C173  1  0.25909818  0.61857001  0.76652578  1  -0.027977  0  -0.239728  -0.411771  0  3.973393  0
C  C174  1  0.74031525  0.86944392  0.73983441  1  -0.076446  0  -0.240714  -0.408578  0  3.974034  0
C  C175  1  0.74013993  0.87072851  0.51977248  1  -0.014861  0  -0.240131  -0.407832  0  3.973167  0
O  O176  1  0.99999649  0.99994642  0.49999188  1  -1.23494  0  -0.579142  -1.026953  0  2.572474  0
O  O177  1  0.14964339  0.02907266  0.42082945  1  -1.175133  0  -0.313931  -0.548285  0  2.384946  0
O  O178  1  0.04638325  0.15608610  0.37727315  1  -1.173948  0  -0.316331  -0.548679  0  2.332874  0
O  O179  1  0.97343853  0.94908908  0.39852924  1  -1.149197  0  -0.312641  -0.544745  0  2.348672  0
O  O180  1  0.14958571  0.12028477  0.42990650  1  -1.172154  0  -0.313502  -0.548182  0  2.385702  0
O  O181  1  0.02703893  0.89863010  0.44892124  1  -1.15605  0  -0.312328  -0.544908  0  2.350818  0
O  O182  1  0.95323097  0.07607686  0.39047063  1  -1.178115  0  -0.316121  -0.548464  0  2.331239  0
O  O183  1  0.85048739  0.91972435  0.52949272  1  -1.17635  0  -0.31335  -0.548105  0  2.384548  0
O  O184  1  0.95300642  0.87711892  0.65647816  1  -1.170718  0  -0.316341  -0.547951  0  2.331467  0
O  O185  1  0.85050444  0.93091915  0.61967054  1  -1.175705  0  -0.313489  -0.547969  0  2.384035  0
O  O186  1  0.04609732  0.89010636  0.57659723  1  -1.178304  0  -0.315781  -0.548285  0  2.33395  0
O  O187  1  0.02690286  0.12826910  0.52408216  1  -1.151376  0  -0.312389  -0.544749  0  2.351162  0
O  O188  1  0.97325966  0.02426475  0.62810298  1  -1.147668  0  -0.312427  -0.544639  0  2.350005  0
O  O189  1  0.00007003  0.50003206  0.99997658  1  -1.234646  0  -0.579128  -1.02696  0  2.572363  0
O  O190  1  0.94942223  0.56908376  0.08040618  1  -1.1714  0  -0.313256  -0.54778  0  2.384612  0
O  O191  1  0.03343754  0.42380407  0.12284389  1  -1.174323  0  -0.3161  -0.548142  0  2.332282  0
O  O192  1  0.84762123  0.37173478  0.10131329  1  -1.158967  0  -0.312356  -0.544721  0  2.351306  0
O  O193  1  0.05067526  0.58004799  0.06949366  1  -1.171257  0  -0.313358  -0.547926  0  2.383573  0
O  O194  1  0.84766337  0.47577935  0.05093845  1  -1.161445  0  -0.313007  -0.545289  0  2.349889  0
O  O195  1  0.96651513  0.34381739  0.10975636  1  -1.173298  0  -0.316221  -0.548127  0  2.333491  0
O  O196  1  0.94982438  0.37981158  0.97061547  1  -1.184261  0  -0.313389  -0.547914  0  2.386253  0
O  O197  1  0.03329311  0.60982771  0.84400716  1  -1.172181  0  -0.315891  -0.548433  0  2.333769  0
O  O198  1  0.05023260  0.47090568  0.87948396  1  -1.184272  0  -0.313244  -0.547689  0  2.384534  0
O  O199  1  0.96645156  0.62286184  0.92411205  1  -1.17551  0  -0.316462  -0.548322  0  2.331251  0
O  O200  1  0.15240957  0.55093525  0.97571525  1  -1.160571  0  -0.312687  -0.544937  0  2.34887  0
O  O201  1  0.15243723  0.60140926  0.87168835  1  -1.15968  0  -0.312231  -0.544704  0  2.351154  0
