# generated using pymatgen
data_ZnH23C32N5O4
_symmetry_space_group_name_H-M   'P 1'
_cell_length_a   9.94310380
_cell_length_b   11.95547401
_cell_length_c   12.09354870
_cell_angle_alpha   98.36952617
_cell_angle_beta   100.12923943
_cell_angle_gamma   91.91809914
_symmetry_Int_Tables_number   1
_chemical_formula_structural   ZnH23C32N5O4
_chemical_formula_sum   'Zn2 H46 C64 N10 O8'
_cell_volume   1397.55776297
_cell_formula_units_Z   2
loop_
 _symmetry_equiv_pos_site_id
 _symmetry_equiv_pos_as_xyz
  1  'x, y, z'
loop_
 _atom_site_type_symbol
 _atom_site_label
 _atom_site_symmetry_multiplicity
 _atom_site_fract_x
 _atom_site_fract_y
 _atom_site_fract_z
 _atom_site_occupancy
 _atom_site_hle17_bader_spin_density
 _atom_site_hle17_ddec_charge
 _atom_site_hle17_ddec_spin_density
 _atom_site_hle17_ddec_sum_bond_order
 _atom_site_hle17_magmom
 _atom_site_hse06_10hf_bader_spin_density
 _atom_site_hse06_10hf_ddec_charge
 _atom_site_hse06_10hf_ddec_spin_density
 _atom_site_hse06_10hf_ddec_sum_bond_order
 _atom_site_hse06_10hf_magmom
 _atom_site_hse06_bader_spin_density
 _atom_site_hse06_ddec_charge
 _atom_site_hse06_ddec_spin_density
 _atom_site_hse06_ddec_sum_bond_order
 _atom_site_hse06_magmom
 _atom_site_pbe_bader_spin_density
 _atom_site_pbe_cm5_charge
 _atom_site_pbe_ddec_charge
 _atom_site_pbe_ddec_spin_density
 _atom_site_pbe_ddec_sum_bond_order
 _atom_site_pbe_magmom
Zn  Zn0  1  0.82655158  0.41299699  0.17549685  1  0  1.002123  0  1.917191  0  0  0.817177  0  2.398138  0  0  0.861867  0  2.343455  0  0  0.699377  0.786111  0  2.435703  0
Zn  Zn1  1  0.17344686  0.58700310  0.82450382  1  0  1.002198  0  1.917131  0  0  0.817247  0  2.398071  0  0  0.861941  0  2.343392  0  0  0.699397  0.786186  0  2.435639  0
H  H2  1  0.82864233  0.05125127  0.12276403  1  0  0.095057  0  0.983104  0  0  0.101765  0  1.051428  0  0  0.104487  0  1.050885  0  0  0.097711  0.099838  0  1.051862  0
H  H3  1  0.17135943  0.94875307  0.87723604  1  0  0.095041  0  0.983134  0  0  0.101755  0  1.051445  0  0  0.10447  0  1.050922  0  0  0.097711  0.099827  0  1.051876  0
H  H4  1  0.86593091  0.84729040  0.05926724  1  0  0.0908  0  0.961333  0  0  0.097083  0  1.030498  0  0  0.100281  0  1.029073  0  0  0.09766  0.094901  0  1.031436  0
H  H5  1  0.13406991  0.15271479  0.94073530  1  0  0.090755  0  0.961366  0  0  0.097059  0  1.030507  0  0  0.100257  0  1.029083  0  0  0.097641  0.094873  0  1.031441  0
H  H6  1  0.52536317  0.32541302  0.36886027  1  0  0.091665  0  0.983718  0  0  0.097939  0  1.053357  0  0  0.10097  0  1.05231  0  0  0.096748  0.095834  0  1.054119  0
H  H7  1  0.47464045  0.67458879  0.63113887  1  0  0.091665  0  0.983662  0  0  0.097944  0  1.053305  0  0  0.100977  0  1.052255  0  0  0.096743  0.095838  0  1.054071  0
H  H8  1  0.37511257  0.32065508  0.51609727  1  0  0.100022  0  0.940496  0  0  0.111062  0  0.997861  0  0  0.114978  0  0.995429  0  0  0.103162  0.108248  0  0.999695  0
H  H9  1  0.62488385  0.67934584  0.48390075  1  0  0.10001  0  0.940555  0  0  0.111053  0  0.997916  0  0  0.114969  0  0.995483  0  0  0.103161  0.10824  0  0.99975  0
H  H10  1  0.02284712  0.44502332  0.41668708  1  0  0.104819  0  0.955373  0  0  0.116024  0  1.012202  0  0  0.118249  0  1.011689  0  0  0.121826  0.114497  0  1.012438  0
H  H11  1  0.97715429  0.55497510  0.58331458  1  0  0.104825  0  0.955303  0  0  0.11603  0  1.012143  0  0  0.118255  0  1.01163  0  0  0.121815  0.114502  0  1.012383  0
H  H12  1  0.20067081  0.63446617  0.49042780  1  0  0.122416  0  0.971414  0  0  0.130599  0  1.03501  0  0  0.133543  0  1.033541  0  0  0.124624  0.128461  0  1.036248  0
H  H13  1  0.79932757  0.36553308  0.50957274  1  0  0.122423  0  0.971397  0  0  0.130597  0  1.035003  0  0  0.133542  0  1.033534  0  0  0.124634  0.128457  0  1.036237  0
H  H14  1  0.02417794  0.62535090  0.14119466  1  0  0.117822  0  0.961322  0  0  0.123277  0  1.029834  0  0  0.126699  0  1.025812  0  0  0.138901  0.12077  0  1.032758  0
H  H15  1  0.97582107  0.37464242  0.85880347  1  0  0.117844  0  0.961287  0  0  0.12334  0  1.029749  0  0  0.126753  0  1.02574  0  0  0.138906  0.120833  0  1.032677  0
H  H16  1  0.08650766  0.80309474  0.16214054  1  0  0.104084  0  0.994433  0  0  0.111579  0  1.062386  0  0  0.113798  0  1.061876  0  0  0.10635  0.11017  0  1.062222  0
H  H17  1  0.91348869  0.19690449  0.83785971  1  0  0.104075  0  0.994439  0  0  0.111562  0  1.062402  0  0  0.113781  0  1.061891  0  0  0.106355  0.110161  0  1.062213  0
H  H18  1  0.24671907  0.95196711  0.13416681  1  0  0.102912  0  0.97776  0  0  0.11228  0  1.04007  0  0  0.114196  0  1.041408  0  0  0.101183  0.110864  0  1.039373  0
H  H19  1  0.75327632  0.04803296  0.86583426  1  0  0.10291  0  0.977734  0  0  0.112304  0  1.04002  0  0  0.11422  0  1.041358  0  0  0.101161  0.110868  0  1.039345  0
H  H20  1  0.52425295  0.89520281  0.43508279  1  0  0.106535  0  0.945624  0  0  0.119239  0  1.000676  0  0  0.122211  0  0.999798  0  0  0.107269  0.117239  0  1.000909  0
H  H21  1  0.47574232  0.10479557  0.56491720  1  0  0.106578  0  0.945554  0  0  0.11922  0  1.000673  0  0  0.122193  0  0.999795  0  0  0.107269  0.117218  0  1.000913  0
H  H22  1  0.36664255  0.74160054  0.45908547  1  0  0.095471  0  0.989118  0  0  0.106613  0  1.052529  0  0  0.108676  0  1.052177  0  0  0.101874  0.105167  0  1.052954  0
H  H23  1  0.63335366  0.25839699  0.54091205  1  0  0.0955  0  0.98903  0  0  0.106633  0  1.052453  0  0  0.108699  0  1.052092  0  0  0.101865  0.105188  0  1.05287  0
H  H24  1  0.29328406  0.13850665  0.30432873  1  0  0.107397  0  0.932588  0  0  0.123414  0  0.980742  0  0  0.126245  0  0.98007  0  0  0.110232  0.121296  0  0.981465  0
H  H25  1  0.70671973  0.86149686  0.69567480  1  0  0.107384  0  0.932675  0  0  0.123397  0  0.980828  0  0  0.126226  0  0.980155  0  0  0.11023  0.121281  0  0.981547  0
H  H26  1  0.22405316  0.31070605  0.22013915  1  0  0.113651  0  0.931331  0  0  0.12611  0  0.986419  0  0  0.128789  0  0.985729  0  0  0.112207  0.124118  0  0.987046  0
H  H27  1  0.77595385  0.68930003  0.77986518  1  0  0.113666  0  0.931319  0  0  0.12611  0  0.986436  0  0  0.128787  0  0.985747  0  0  0.112187  0.124121  0  0.987068  0
H  H28  1  0.53151484  0.26331861  0.01036032  1  0  0.105554  0  0.950988  0  0  0.115515  0  1.013478  0  0  0.118331  0  1.012099  0  0  0.1074  0.113436  0  1.014681  0
H  H29  1  0.46848740  0.73667727  0.98963944  1  0  0.105533  0  0.950922  0  0  0.11549  0  1.013427  0  0  0.118307  0  1.012047  0  0  0.107389  0.113412  0  1.014627  0
H  H30  1  0.59883645  0.08997728  0.09171383  1  0  0.110652  0  0.945743  0  0  0.12177  0  1.004637  0  0  0.124836  0  1.003369  0  0  0.109014  0.119482  0  1.005776  0
H  H31  1  0.40115965  0.91001856  0.90828343  1  0  0.110705  0  0.945726  0  0  0.121793  0  1.004642  0  0  0.124875  0  1.003355  0  0  0.109005  0.119511  0  1.005766  0
H  H32  1  0.28528389  0.34975373  0.88976084  1  0  0.10801  0  0.936443  0  0  0.118152  0  0.999738  0  0  0.120945  0  0.996009  0  0  0.141565  0.116051  0  1.002408  0
H  H33  1  0.71472191  0.65024979  0.11023966  1  0  0.107983  0  0.936528  0  0  0.118164  0  0.999749  0  0  0.120934  0  0.996059  0  0  0.141583  0.116059  0  1.00242  0
H  H34  1  0.28691532  0.67052734  0.08918069  1  0  0.10002  0  0.978699  0  0  0.109779  0  1.039601  0  0  0.111622  0  1.040149  0  0  0.115547  0.10825  0  1.03972  0
H  H35  1  0.71309457  0.32947621  0.91082120  1  0  0.100008  0  0.978738  0  0  0.109742  0  1.03966  0  0  0.111584  0  1.040213  0  0  0.115532  0.108218  0  1.039777  0
H  H36  1  0.37981959  0.51522562  0.23160788  1  0  0.121611  0  0.953585  0  0  0.130915  0  1.01402  0  0  0.132991  0  1.014203  0  0  0.12556  0.129353  0  1.013999  0
H  H37  1  0.62018819  0.48477706  0.76839195  1  0  0.1216  0  0.953596  0  0  0.130903  0  1.014043  0  0  0.132979  0  1.014225  0  0  0.125563  0.129342  0  1.014011  0
H  H38  1  0.62203137  0.81278337  0.25210434  1  0  0.104905  0  0.957112  0  0  0.115322  0  1.018276  0  0  0.118535  0  1.016812  0  0  0.101454  0.112932  0  1.019552  0
H  H39  1  0.37796879  0.18721082  0.74790068  1  0  0.104981  0  0.957104  0  0  0.115387  0  1.018265  0  0  0.118599  0  1.016801  0  0  0.101491  0.112997  0  1.019546  0
H  H40  1  0.86667224  0.79019850  0.31209350  1  0  0.093774  0  0.951466  0  0  0.103599  0  1.011831  0  0  0.106296  0  1.010678  0  0  0.097251  0.101375  0  1.013067  0
H  H41  1  0.13332711  0.20979990  0.68790705  1  0  0.093784  0  0.951462  0  0  0.103605  0  1.011832  0  0  0.106302  0  1.010681  0  0  0.097242  0.101379  0  1.01307  0
H  H42  1  0.02986795  0.96047657  0.38302322  1  0  0.084817  0  0.964034  0  0  0.0952  0  1.025174  0  0  0.097479  0  1.02578  0  0  0.094722  0.094088  0  1.02369  0
H  H43  1  0.97012939  0.03952266  0.61697552  1  0  0.084824  0  0.963935  0  0  0.095203  0  1.025076  0  0  0.097481  0  1.025684  0  0  0.09474  0.094084  0  1.023598  0
H  H44  1  0.93982513  0.15352322  0.39237718  1  0  0.08549  0  0.936277  0  0  0.10037  0  0.987071  0  0  0.103174  0  0.985782  0  0  0.100514  0.098252  0  0.988167  0
H  H45  1  0.06017216  0.84647517  0.60762143  1  0  0.085425  0  0.936351  0  0  0.100345  0  0.987108  0  0  0.103149  0  0.985817  0  0  0.100512  0.098226  0  0.988213  0
H  H46  1  0.69372757  0.17697826  0.33277045  1  0  0.106529  0  0.957297  0  0  0.116781  0  1.02045  0  0  0.119915  0  1.018757  0  0  0.102861  0.114431  0  1.021961  0
H  H47  1  0.30626962  0.82301843  0.66722873  1  0  0.106588  0  0.957165  0  0  0.116858  0  1.0203  0  0  0.119991  0  1.018612  0  0  0.10287  0.114507  0  1.0218  0
C  C48  1  0.95001588  0.23618395  0.06582068  1  0  0.618614  0  3.947991  0  0  0.572551  0  4.240024  0  0  0.606232  0  4.23224  0  0  0.193181  0.549759  0  4.244322  0
C  C49  1  0.04998172  0.76381868  0.93418188  1  0  0.618635  0  3.948213  0  0  0.57259  0  4.240204  0  0  0.606271  0  4.232419  0  0  0.193186  0.549796  0  4.244515  0
C  C50  1  0.97841437  0.11403800  0.03476408  1  0  -0.064333  0  3.753147  0  0  -0.039563  0  3.978772  0  0  -0.04633  0  4.000805  0  0  -0.020835  -0.035139  0  3.963954  0
C  C51  1  0.02158744  0.88596636  0.96524013  1  0  -0.064211  0  3.75316  0  0  -0.03942  0  3.978712  0  0  -0.046183  0  4.000741  0  0  -0.020799  -0.035009  0  3.963912  0
C  C52  1  0.90291657  0.02788230  0.06850955  1  0  -0.076532  0  3.732607  0  0  -0.098225  0  3.979018  0  0  -0.098486  0  3.998679  0  0  -0.087514  -0.097629  0  3.965301  0
C  C53  1  0.09708737  0.97212376  0.93149354  1  0  -0.076559  0  3.732685  0  0  -0.098262  0  3.979105  0  0  -0.098522  0  3.998757  0  0  -0.08752  -0.097661  0  3.965382  0
C  C54  1  0.92402095  0.91481280  0.03354399  1  0  -0.078142  0  3.755271  0  0  -0.099417  0  4.004108  0  0  -0.10066  0  4.024936  0  0  -0.08795  -0.098375  0  3.989579  0
C  C55  1  0.07598288  0.08519157  0.96645885  1  0  -0.07807  0  3.755231  0  0  -0.099347  0  4.004062  0  0  -0.100589  0  4.024888  0  0  -0.087919  -0.098305  0  3.989512  0
C  C56  1  0.67331805  0.50449148  0.33090505  1  0  0.620044  0  3.956582  0  0  0.573985  0  4.249538  0  0  0.607259  0  4.242368  0  0  0.191662  0.551478  0  4.253454  0
C  C57  1  0.32668038  0.49550944  0.66909077  1  0  0.620231  0  3.956455  0  0  0.574173  0  4.249382  0  0  0.607447  0  4.24221  0  0  0.191729  0.551677  0  4.253288  0
C  C58  1  0.58401160  0.50243795  0.41866463  1  0  -0.061704  0  3.775982  0  0  -0.039728  0  4.007504  0  0  -0.045516  0  4.029088  0  0  -0.022156  -0.035945  0  3.993001  0
C  C59  1  0.41598486  0.49756382  0.58133269  1  0  -0.06187  0  3.776253  0  0  -0.039875  0  4.007745  0  0  -0.045666  0  4.029331  0  0  -0.022169  -0.036092  0  3.993239  0
C  C60  1  0.51368986  0.40130417  0.42723411  1  0  -0.097725  0  3.775382  0  0  -0.120521  0  4.02942  0  0  -0.121378  0  4.049094  0  0  -0.095183  -0.119857  0  4.016097  0
C  C61  1  0.48630860  0.59869676  0.57276337  1  0  -0.097593  0  3.775327  0  0  -0.120403  0  4.029349  0  0  -0.121257  0  4.049022  0  0  -0.09514  -0.119737  0  4.016029  0
C  C62  1  0.43016280  0.39862773  0.50794282  1  0  -0.083251  0  3.75751  0  0  -0.104289  0  4.005117  0  0  -0.105614  0  4.024847  0  0  -0.089679  -0.103364  0  3.991774  0
C  C63  1  0.56983580  0.60137573  0.49205338  1  0  -0.083314  0  3.757498  0  0  -0.104353  0  4.005132  0  0  -0.105678  0  4.024858  0  0  -0.089685  -0.103428  0  3.991787  0
C  C64  1  0.04970131  0.51107421  0.37052181  1  0  0.001409  0  3.757378  0  0  -0.031761  0  4.020391  0  0  -0.029993  0  4.039999  0  0  -0.00129  -0.032626  0  4.00665  0
C  C65  1  0.95029875  0.48891912  0.62947895  1  0  0.001217  0  3.757587  0  0  -0.031962  0  4.0206  0  0  -0.030189  0  4.040213  0  0  -0.001413  -0.032827  0  4.00686  0
C  C66  1  0.13791894  0.60480618  0.40798801  1  0  -0.063423  0  3.663525  0  0  -0.104582  0  3.921012  0  0  -0.103282  0  3.939819  0  0  0.000677  -0.105423  0  3.908391  0
C  C67  1  0.86208046  0.39519306  0.59201184  1  0  -0.063292  0  3.663642  0  0  -0.104439  0  3.921117  0  0  -0.103146  0  3.939927  0  0  0.000712  -0.105275  0  3.908487  0
C  C68  1  0.04515399  0.60210276  0.22606254  1  0  0.17041  0  3.60414  0  0  0.109976  0  3.86924  0  0  0.124065  0  3.880231  0  0  0.151237  0.101018  0  3.861602  0
C  C69  1  0.95484611  0.39789142  0.77393751  1  0  0.170508  0  3.604026  0  0  0.110038  0  3.869108  0  0  0.124129  0  3.880108  0  0  0.151316  0.10107  0  3.861481  0
C  C70  1  0.21787010  0.75929392  0.31016216  1  0  0.153297  0  3.794976  0  0  0.144581  0  4.04238  0  0  0.148439  0  4.065226  0  0  0.084345  0.143512  0  4.025574  0
C  C71  1  0.78212511  0.24070361  0.68983770  1  0  0.153552  0  3.795026  0  0  0.14478  0  4.04248  0  0  0.148624  0  4.065338  0  0  0.08442  0.143709  0  4.02567  0
C  C72  1  0.18278500  0.82221712  0.22173376  1  0  -0.13983  0  3.779017  0  0  -0.159033  0  4.03159  0  0  -0.161222  0  4.052487  0  0  -0.091402  -0.15737  0  4.016124  0
C  C73  1  0.81720827  0.17778209  0.77826607  1  0  -0.139966  0  3.779059  0  0  -0.159139  0  4.031643  0  0  -0.161322  0  4.052538  0  0  -0.091465  -0.157471  0  4.016164  0
C  C74  1  0.27374480  0.90657144  0.20592790  1  0  -0.14858  0  3.742447  0  0  -0.166268  0  3.990729  0  0  -0.170193  0  4.010992  0  0  -0.096657  -0.164742  0  3.977357  0
C  C75  1  0.72624957  0.09342863  0.79407386  1  0  -0.14853  0  3.74237  0  0  -0.166218  0  3.990645  0  0  -0.170139  0  4.010906  0  0  -0.096614  -0.16468  0  3.977288  0
C  C76  1  0.40048961  0.93160404  0.27990987  1  0  0.189419  0  3.806782  0  0  0.180198  0  4.057672  0  0  0.188394  0  4.078182  0  0  0.092813  0.174497  0  4.044232  0
C  C77  1  0.59950474  0.06839602  0.72008940  1  0  0.189338  0  3.806828  0  0  0.180054  0  4.057806  0  0  0.188248  0  4.078317  0  0  0.092768  0.174354  0  4.044365  0
C  C78  1  0.42881877  0.87458700  0.37448699  1  0  -0.142349  0  3.750693  0  0  -0.161998  0  4.003401  0  0  -0.165909  0  4.023115  0  0  -0.092605  -0.157817  0  3.988799  0
C  C79  1  0.57117553  0.12541222  0.62551299  1  0  -0.142312  0  3.750572  0  0  -0.161892  0  4.003295  0  0  -0.165802  0  4.023011  0  0  -0.09257  -0.157712  0  3.988699  0
C  C80  1  0.33935076  0.78829318  0.38856151  1  0  -0.126755  0  3.765712  0  0  -0.147751  0  4.016926  0  0  -0.149466  0  4.037779  0  0  -0.092036  -0.146841  0  4.001957  0
C  C81  1  0.66064660  0.21170606  0.61143806  1  0  -0.126828  0  3.765604  0  0  -0.14779  0  4.016805  0  0  -0.149505  0  4.037667  0  0  -0.091995  -0.146883  0  4.00184  0
C  C82  1  0.45245822  0.10398986  0.20519121  1  0  0.1887  0  3.793158  0  0  0.18158  0  4.043062  0  0  0.189283  0  4.064111  0  0  0.096295  0.176553  0  4.028585  0
C  C83  1  0.54754220  0.89600940  0.79480877  1  0  0.188732  0  3.793266  0  0  0.181567  0  4.043207  0  0  0.189269  0  4.064263  0  0  0.096336  0.176544  0  4.028728  0
C  C84  1  0.34521772  0.16571820  0.23970198  1  0  -0.142838  0  3.745403  0  0  -0.161489  0  3.996227  0  0  -0.165796  0  4.016606  0  0  -0.089055  -0.1589  0  3.983107  0
C  C85  1  0.65478502  0.83428530  0.76029975  1  0  -0.142858  0  3.745497  0  0  -0.161489  0  3.996317  0  0  -0.165792  0  4.016692  0  0  -0.089075  -0.158898  0  3.983198  0
C  C86  1  0.30639348  0.26190189  0.19313895  1  0  -0.112156  0  3.749054  0  0  -0.135425  0  4.006164  0  0  -0.137205  0  4.026761  0  0  -0.080698  -0.134253  0  3.992791  0
C  C87  1  0.69361423  0.73809911  0.80686394  1  0  -0.112102  0  3.749028  0  0  -0.135383  0  4.006129  0  0  -0.13716  0  4.026723  0  0  -0.080649  -0.134216  0  3.992771  0
C  C88  1  0.37542571  0.29754656  0.11209594  1  0  0.15884  0  3.779394  0  0  0.150203  0  4.0321  0  0  0.153443  0  4.05558  0  0  0.089071  0.147552  0  4.016666  0
C  C89  1  0.62458005  0.70245611  0.88790609  1  0  0.158721  0  3.779353  0  0  0.150115  0  4.032023  0  0  0.15335  0  4.055504  0  0  0.089064  0.147466  0  4.016596  0
C  C90  1  0.47869713  0.23474002  0.07380050  1  0  -0.117248  0  3.740669  0  0  -0.138639  0  3.99308  0  0  -0.139745  0  4.012372  0  0  -0.082711  -0.137853  0  3.980402  0
C  C91  1  0.52130742  0.76526010  0.92619935  1  0  -0.117151  0  3.740669  0  0  -0.138548  0  3.993058  0  0  -0.139653  0  4.012354  0  0  -0.082706  -0.137761  0  3.98038  0
C  C92  1  0.51630448  0.13777419  0.11958560  1  0  -0.128166  0  3.720947  0  0  -0.147767  0  3.970846  0  0  -0.151259  0  3.990037  0  0  -0.085958  -0.145522  0  3.95814  0
C  C93  1  0.48369370  0.86222167  0.88041526  1  0  -0.128284  0  3.721002  0  0  -0.147833  0  3.97088  0  0  -0.151337  0  3.990069  0  0  -0.085958  -0.145589  0  3.958177  0
C  C94  1  0.29764956  0.41621874  0.96260277  1  0  0.193681  0  3.615198  0  0  0.128701  0  3.879839  0  0  0.143945  0  3.890175  0  0  0.155324  0.118902  0  3.872463  0
C  C95  1  0.70236032  0.58378480  0.03739830  1  0  0.193863  0  3.615274  0  0  0.128868  0  3.879876  0  0  0.144122  0  3.890232  0  0  0.15544  0.119075  0  3.872493  0
C  C96  1  0.30066042  0.58084975  0.06910823  1  0  -1.2e-05  0  3.75762  0  0  -0.033996  0  4.024184  0  0  -0.032551  0  4.043866  0  0  -0.001207  -0.035033  0  4.011202  0
C  C97  1  0.69934832  0.41915209  0.93089161  1  0  -7e-06  0  3.757577  0  0  -0.033975  0  4.024146  0  0  -0.032529  0  4.043825  0  0  -0.001164  -0.035014  0  4.01117  0
C  C98  1  0.34469330  0.50531347  0.14060218  1  0  -0.03961  0  3.638431  0  0  -0.080941  0  3.89602  0  0  -0.078974  0  3.914477  0  0  0.007027  -0.082354  0  3.883863  0
C  C99  1  0.65531562  0.49469092  0.85939886  1  0  -0.039527  0  3.638429  0  0  -0.080862  0  3.896014  0  0  -0.078891  0  3.914469  0  0  0.007073  -0.082274  0  3.883857  0
C  C100  1  0.63983874  0.99667769  0.28924474  1  0  0.181818  0  3.798061  0  0  0.176098  0  4.047461  0  0  0.183214  0  4.06983  0  0  0.086626  0.171764  0  4.032131  0
C  C101  1  0.36015848  0.00331984  0.71075291  1  0  0.181914  0  3.797992  0  0  0.176165  0  4.047418  0  0  0.183282  0  4.069787  0  0  0.086676  0.171843  0  4.032072  0
C  C102  1  0.69099193  0.88807368  0.28198981  1  0  -0.166515  0  3.751387  0  0  -0.185404  0  3.998847  0  0  -0.190201  0  4.020102  0  0  -0.099786  -0.182532  0  3.985101  0
C  C103  1  0.30900527  0.11192302  0.71801021  1  0  -0.166634  0  3.751443  0  0  -0.185492  0  3.998905  0  0  -0.19029  0  4.020161  0  0  -0.099855  -0.182632  0  3.98517  0
C  C104  1  0.83030439  0.87556392  0.31662986  1  0  -0.062932  0  3.788099  0  0  -0.072473  0  4.034252  0  0  -0.073564  0  4.056413  0  0  -0.096686  -0.072142  0  4.020006  0
C  C105  1  0.16969294  0.12443531  0.68336805  1  0  -0.062942  0  3.788097  0  0  -0.072483  0  4.034242  0  0  -0.073572  0  4.056402  0  0  -0.09667  -0.072147  0  4.019986  0
C  C106  1  0.92101332  0.97053080  0.35659970  1  0  -0.091577  0  3.792993  0  0  -0.108143  0  4.045169  0  0  -0.111844  0  4.068883  0  0  -0.101951  -0.105917  0  4.028556  0
C  C107  1  0.07898397  0.02946759  0.64339891  1  0  -0.09153  0  3.792881  0  0  -0.108086  0  4.045057  0  0  -0.111788  0  4.06877  0  0  -0.101946  -0.105855  0  4.028433  0
C  C108  1  0.87043899  0.07846182  0.36205834  1  0  -0.049558  0  3.791569  0  0  -0.062204  0  4.042068  0  0  -0.062685  0  4.063064  0  0  -0.089754  -0.061431  0  4.027989  0
C  C109  1  0.12955823  0.92153572  0.63793931  1  0  -0.04953  0  3.791667  0  0  -0.062225  0  4.042191  0  0  -0.062707  0  4.063187  0  0  -0.089801  -0.061462  0  4.028123  0
C  C110  1  0.73112276  0.09206798  0.32926733  1  0  -0.160766  0  3.740698  0  0  -0.182679  0  3.996108  0  0  -0.186991  0  4.01661  0  0  -0.09929  -0.180357  0  3.982705  0
C  C111  1  0.26887129  0.90792784  0.67072964  1  0  -0.160895  0  3.74066  0  0  -0.182805  0  3.99606  0  0  -0.187117  0  4.016559  0  0  -0.099316  -0.180473  0  3.982654  0
N  N112  1  0.99264897  0.51079253  0.25781171  1  0  -0.371895  0  3.332979  0  0  -0.293873  0  3.633475  0  0  -0.312237  0  3.643699  0  0  -0.357452  -0.281363  0  3.626101  0
N  N113  1  0.00735414  0.48920081  0.74218864  1  0  -0.371871  0  3.332955  0  0  -0.293824  0  3.633427  0  0  -0.312197  0  3.643662  0  0  -0.357399  -0.281317  0  3.626063  0
N  N114  1  0.13410497  0.66232547  0.31573703  1  0  -0.082486  0  3.598164  0  0  0.00766  0  3.807943  0  0  -0.006856  0  3.833584  0  0  -0.22252  0.017158  0  3.790083  0
N  N115  1  0.86589216  0.33767038  0.68426203  1  0  -0.082696  0  3.598134  0  0  0.007459  0  3.807963  0  0  -0.007045  0  3.833599  0  0  -0.222612  0.016962  0  3.790101  0
N  N116  1  0.49724902  0.01018963  0.25791977  1  0  -0.247066  0  3.47356  0  0  -0.171723  0  3.6955  0  0  -0.192036  0  3.718568  0  0  -0.25624  -0.158527  0  3.679514  0
N  N117  1  0.50274823  0.98980791  0.74207954  1  0  -0.247075  0  3.473537  0  0  -0.171694  0  3.695518  0  0  -0.192008  0  3.718589  0  0  -0.256266  -0.158501  0  3.67953  0
N  N118  1  0.34215959  0.40141812  0.07193115  1  0  -0.083235  0  3.600691  0  0  0.005987  0  3.814349  0  0  -0.008606  0  3.839775  0  0  -0.220049  0.015706  0  3.797176  0
N  N119  1  0.65785029  0.59858543  0.92806991  1  0  -0.083341  0  3.600748  0  0  0.005862  0  3.814421  0  0  -0.008729  0  3.83985  0  0  -0.220227  0.015579  0  3.797253  0
N  N120  1  0.27128557  0.52423074  0.95875689  1  0  -0.380155  0  3.320878  0  0  -0.298507  0  3.622895  0  0  -0.317946  0  3.633386  0  0  -0.357822  -0.285441  0  3.615589  0
N  N121  1  0.72872224  0.47577278  0.04124141  1  0  -0.380226  0  3.320903  0  0  -0.298549  0  3.622901  0  0  -0.317986  0  3.633381  0  0  -0.357833  -0.285479  0  3.615593  0
O  O122  1  0.00543278  0.31191229  0.02408038  1  0  -0.621477  0  1.912181  0  0  -0.581637  0  2.142422  0  0  -0.60345  0  2.133627  0  0  -0.331368  -0.566321  0  2.147837  0
O  O123  1  0.99456404  0.68809457  0.97592019  1  0  -0.621515  0  1.912224  0  0  -0.581697  0  2.142493  0  0  -0.603508  0  2.133697  0  0  -0.331407  -0.566377  0  2.147916  0
O  O124  1  0.86352083  0.25385825  0.13454641  1  0  -0.640778  0  2.034858  0  0  -0.565922  0  2.302878  0  0  -0.593823  0  2.287834  0  0  -0.339048  -0.546426  0  2.312502  0
O  O125  1  0.13647459  0.74614267  0.86545396  1  0  -0.640799  0  2.034931  0  0  -0.565948  0  2.302935  0  0  -0.593848  0  2.287892  0  0  -0.339014  -0.546444  0  2.312562  0
O  O126  1  0.71632768  0.40612632  0.29602152  1  0  -0.650801  0  2.019285  0  0  -0.578279  0  2.287474  0  0  -0.606212  0  2.273051  0  0  -0.342211  -0.558621  0  2.296636  0
O  O127  1  0.28366776  0.59387544  0.70397566  1  0  -0.650939  0  2.019229  0  0  -0.578391  0  2.287396  0  0  -0.606323  0  2.272974  0  0  -0.342252  -0.558738  0  2.296561  0
O  O128  1  0.70002478  0.59527116  0.29706274  1  0  -0.620478  0  1.901188  0  0  -0.580899  0  2.123331  0  0  -0.603409  0  2.116046  0  0  -0.332209  -0.565008  0  2.127798  0
O  O129  1  0.29997861  0.40472725  0.70293423  1  0  -0.62054  0  1.901066  0  0  -0.58097  0  2.123221  0  0  -0.603481  0  2.115937  0  0  -0.332233  -0.56508  0  2.127683  0
