# generated using pymatgen
data_CdH20C18(NO)6
_symmetry_space_group_name_H-M   'P 1'
_cell_length_a   8.98013592
_cell_length_b   9.21953302
_cell_length_c   12.82045082
_cell_angle_alpha   89.99998341
_cell_angle_beta   90.00013229
_cell_angle_gamma   107.08795471
_symmetry_Int_Tables_number   1
_chemical_formula_structural   CdH20C18(NO)6
_chemical_formula_sum   'Cd2 H40 C36 N12 O12'
_cell_volume   1014.58178518
_cell_formula_units_Z   2
loop_
 _symmetry_equiv_pos_site_id
 _symmetry_equiv_pos_as_xyz
  1  'x, y, z'
loop_
 _atom_site_type_symbol
 _atom_site_label
 _atom_site_symmetry_multiplicity
 _atom_site_fract_x
 _atom_site_fract_y
 _atom_site_fract_z
 _atom_site_occupancy
 _atom_site_hle17_bader_spin_density
 _atom_site_hle17_ddec_charge
 _atom_site_hle17_ddec_spin_density
 _atom_site_hle17_ddec_sum_bond_order
 _atom_site_hle17_magmom
 _atom_site_hse06_10hf_bader_spin_density
 _atom_site_hse06_10hf_ddec_charge
 _atom_site_hse06_10hf_ddec_spin_density
 _atom_site_hse06_10hf_ddec_sum_bond_order
 _atom_site_hse06_10hf_magmom
 _atom_site_hse06_bader_spin_density
 _atom_site_hse06_ddec_charge
 _atom_site_hse06_ddec_spin_density
 _atom_site_hse06_ddec_sum_bond_order
 _atom_site_hse06_magmom
 _atom_site_pbe_bader_spin_density
 _atom_site_pbe_cm5_charge
 _atom_site_pbe_ddec_charge
 _atom_site_pbe_ddec_spin_density
 _atom_site_pbe_ddec_sum_bond_order
 _atom_site_pbe_magmom
Cd  Cd0  1  0.99999971  0.00000056  0.00000003  1  0  1.151986  0  1.734786  0  0  0.972232  0  2.191778  0  0  1.021191  0  2.140354  0  0  0.791449  0.935845  0  2.230217  0
Cd  Cd1  1  0.49999923  0.00000100  0.49999998  1  0  1.152005  0  1.734788  0  0  0.972245  0  2.191786  0  0  1.021201  0  2.140359  0  0  0.791439  0.935856  0  2.230212  0
H  H2  1  0.37100171  0.44947474  0.16303586  1  0  0.115522  0  0.945303  0  0  0.125463  0  1.00504  0  0  0.128437  0  1.004351  0  0  0.110035  0.123792  0  1.004943  0
H  H3  1  0.12899921  0.55052169  0.66303679  1  0  0.115519  0  0.945321  0  0  0.12548  0  1.005035  0  0  0.128454  0  1.004345  0  0  0.110039  0.1238  0  1.004953  0
H  H4  1  0.62899975  0.55052145  0.83696322  1  0  0.115519  0  0.945311  0  0  0.125465  0  1.005042  0  0  0.128439  0  1.004352  0  0  0.110036  0.123781  0  1.004961  0
H  H5  1  0.87099960  0.44947677  0.33696462  1  0  0.115519  0  0.945304  0  0  0.125459  0  1.005042  0  0  0.128431  0  1.004355  0  0  0.110045  0.123774  0  1.004963  0
H  H6  1  0.53226692  0.27447501  0.17837166  1  0  0.094593  0  0.971394  0  0  0.10557  0  1.034036  0  0  0.108219  0  1.032702  0  0  0.102655  0.103526  0  1.035471  0
H  H7  1  0.96773590  0.72552539  0.67837232  1  0  0.094564  0  0.971364  0  0  0.105555  0  1.034003  0  0  0.108203  0  1.032672  0  0  0.102651  0.103514  0  1.035441  0
H  H8  1  0.46773445  0.72552458  0.82162663  1  0  0.094566  0  0.971394  0  0  0.105542  0  1.03404  0  0  0.10819  0  1.032708  0  0  0.102655  0.1035  0  1.035476  0
H  H9  1  0.03226582  0.27447534  0.32162831  1  0  0.094573  0  0.971404  0  0  0.105551  0  1.034044  0  0  0.1082  0  1.03271  0  0  0.102652  0.103507  0  1.035482  0
H  H10  1  0.81330935  0.35412788  0.13382197  1  0  0.105315  0  0.949923  0  0  0.119449  0  1.003827  0  0  0.122118  0  1.00313  0  0  0.105494  0.117279  0  1.005161  0
H  H11  1  0.68669400  0.64587476  0.63382141  1  0  0.105299  0  0.949945  0  0  0.119433  0  1.003847  0  0  0.122103  0  1.003149  0  0  0.105493  0.117263  0  1.00518  0
H  H12  1  0.18669348  0.64587285  0.86617789  1  0  0.105298  0  0.949946  0  0  0.119434  0  1.003844  0  0  0.122103  0  1.003146  0  0  0.105492  0.117264  0  1.005174  0
H  H13  1  0.31330806  0.35412710  0.36617767  1  0  0.105279  0  0.949947  0  0  0.119411  0  1.003851  0  0  0.12208  0  1.003152  0  0  0.105481  0.117241  0  1.005185  0
H  H14  1  0.94440444  0.61752704  0.06815508  1  0  0.124542  0  0.937089  0  0  0.136252  0  0.992037  0  0  0.139831  0  0.989807  0  0  0.112984  0.133975  0  0.993239  0
H  H15  1  0.55559500  0.38247442  0.56815593  1  0  0.124565  0  0.937052  0  0  0.136274  0  0.992003  0  0  0.139853  0  0.989773  0  0  0.113  0.133995  0  0.993203  0
H  H16  1  0.05559539  0.38247482  0.93184555  1  0  0.124573  0  0.937064  0  0  0.136284  0  0.992008  0  0  0.13986  0  0.989781  0  0  0.113002  0.134008  0  0.993207  0
H  H17  1  0.44440706  0.61752744  0.43184314  1  0  0.124558  0  0.937062  0  0  0.136256  0  0.992022  0  0  0.139836  0  0.989792  0  0  0.112995  0.133979  0  0.993221  0
H  H18  1  0.28501612  0.67216186  0.11711070  1  0  0.085909  0  0.907613  0  0  0.104939  0  0.9641  0  0  0.105842  0  0.962764  0  0  0.119203  0.104492  0  0.963464  0
H  H19  1  0.21498018  0.32783454  0.61711416  1  0  0.085901  0  0.907571  0  0  0.104924  0  0.964081  0  0  0.105824  0  0.96275  0  0  0.119184  0.10448  0  0.963446  0
H  H20  1  0.71498114  0.32783887  0.88288837  1  0  0.08589  0  0.907634  0  0  0.104917  0  0.964126  0  0  0.105822  0  0.962792  0  0  0.119187  0.104471  0  0.963487  0
H  H21  1  0.78501828  0.67216279  0.38289037  1  0  0.085913  0  0.907592  0  0  0.104943  0  0.964086  0  0  0.105846  0  0.962753  0  0  0.119199  0.1045  0  0.963446  0
H  H22  1  0.33387820  0.81769299  0.02181377  1  0  0.085409  0  0.929543  0  0  0.095665  0  1.002282  0  0  0.096372  0  1.000518  0  0  0.116119  0.09412  0  1.004736  0
H  H23  1  0.16611845  0.18230561  0.52181484  1  0  0.08539  0  0.929539  0  0  0.095664  0  1.002263  0  0  0.096369  0  1.000501  0  0  0.116118  0.094119  0  1.004727  0
H  H24  1  0.66612163  0.18230887  0.97818609  1  0  0.085398  0  0.929559  0  0  0.095677  0  1.002274  0  0  0.096387  0  1.00051  0  0  0.116131  0.094131  0  1.004736  0
H  H25  1  0.83388181  0.81769398  0.47818736  1  0  0.085377  0  0.929579  0  0  0.095661  0  1.002305  0  0  0.096367  0  1.000545  0  0  0.116122  0.094118  0  1.004764  0
H  H26  1  0.48085433  0.99817315  0.16645464  1  0  0.109714  0  0.948014  0  0  0.119742  0  1.017816  0  0  0.122307  0  1.016224  0  0  0.104215  0.117797  0  1.019604  0
H  H27  1  0.01914224  0.00181987  0.66645240  1  0  0.109652  0  0.948084  0  0  0.119676  0  1.017874  0  0  0.122245  0  1.016287  0  0  0.104188  0.11773  0  1.019664  0
H  H28  1  0.51914482  0.00182644  0.83354521  1  0  0.109698  0  0.948031  0  0  0.119723  0  1.017831  0  0  0.122288  0  1.01624  0  0  0.10421  0.117775  0  1.019626  0
H  H29  1  0.98085554  0.99817518  0.33354512  1  0  0.109689  0  0.948024  0  0  0.119716  0  1.017826  0  0  0.12228  0  1.016236  0  0  0.104208  0.117773  0  1.019619  0
H  H30  1  0.38787877  0.86040430  0.25811439  1  0  0.113764  0  0.953687  0  0  0.124472  0  1.020307  0  0  0.126772  0  1.020311  0  0  0.10043  0.122028  0  1.021734  0
H  H31  1  0.11211409  0.13958651  0.75811538  1  0  0.113764  0  0.953597  0  0  0.124447  0  1.020241  0  0  0.126756  0  1.020248  0  0  0.100403  0.122005  0  1.021664  0
H  H32  1  0.61212183  0.13959643  0.74188547  1  0  0.11373  0  0.95362  0  0  0.124438  0  1.020244  0  0  0.126739  0  1.020248  0  0  0.100408  0.121997  0  1.021666  0
H  H33  1  0.88787787  0.86040401  0.24188603  1  0  0.113749  0  0.953599  0  0  0.124447  0  1.020247  0  0  0.126749  0  1.020251  0  0  0.100412  0.122007  0  1.021673  0
H  H34  1  0.89487489  0.13309318  0.18687011  1  0  0.413072  0  0.893619  0  0  0.379679  0  0.96264  0  0  0.39091  0  0.946485  0  0  0.279548  0.371355  0  0.974727  0
H  H35  1  0.60512864  0.86690949  0.68686938  1  0  0.413022  0  0.893688  0  0  0.379629  0  0.962708  0  0  0.390859  0  0.946555  0  0  0.279523  0.371304  0  0.974798  0
H  H36  1  0.10512682  0.86690755  0.81313052  1  0  0.413056  0  0.89364  0  0  0.379672  0  0.962648  0  0  0.390898  0  0.946501  0  0  0.279546  0.371348  0  0.974735  0
H  H37  1  0.39487342  0.13309237  0.31312970  1  0  0.413063  0  0.89363  0  0  0.379672  0  0.962649  0  0  0.390904  0  0.946493  0  0  0.279542  0.37135  0  0.974735  0
H  H38  1  0.07601153  0.14634180  0.17897737  1  0  0.40296  0  0.90058  0  0  0.369304  0  0.977621  0  0  0.380687  0  0.961007  0  0  0.278994  0.361332  0  0.989144  0
H  H39  1  0.42399115  0.85366031  0.67897715  1  0  0.40298  0  0.900496  0  0  0.36931  0  0.9776  0  0  0.380694  0  0.960983  0  0  0.279009  0.361338  0  0.989123  0
H  H40  1  0.92399121  0.85366233  0.82102248  1  0  0.402975  0  0.90051  0  0  0.36932  0  0.977583  0  0  0.380699  0  0.960975  0  0  0.279005  0.361344  0  0.989114  0
H  H41  1  0.57601090  0.14634155  0.32102348  1  0  0.402989  0  0.900497  0  0  0.369332  0  0.977568  0  0  0.380716  0  0.960953  0  0  0.27901  0.361361  0  0.989091  0
C  C42  1  0.56918102  0.63277885  0.10573692  1  0  0.089185  0  3.795128  0  0  0.064602  0  4.038843  0  0  0.078443  0  4.063635  0  0  0.106319  0.062408  0  4.023306  0
C  C43  1  0.93081795  0.36721696  0.60573838  1  0  0.089081  0  3.795226  0  0  0.064535  0  4.038924  0  0  0.078391  0  4.063652  0  0  0.106303  0.062338  0  4.023379  0
C  C44  1  0.43081744  0.36721847  0.89426137  1  0  0.089079  0  3.795278  0  0  0.064522  0  4.038961  0  0  0.078366  0  4.063704  0  0  0.106297  0.062327  0  4.023417  0
C  C45  1  0.06918051  0.63278036  0.39426147  1  0  0.089116  0  3.795059  0  0  0.064599  0  4.03874  0  0  0.078444  0  4.063476  0  0  0.106339  0.062412  0  4.02319  0
C  C46  1  0.49421850  0.48648771  0.14279642  1  0  -0.139646  0  3.74582  0  0  -0.159098  0  4.006843  0  0  -0.16308  0  4.025698  0  0  -0.089108  -0.156435  0  3.992539  0
C  C47  1  0.00578183  0.51351437  0.64279872  1  0  -0.139673  0  3.745803  0  0  -0.159145  0  4.006812  0  0  -0.163142  0  4.02566  0  0  -0.089152  -0.156473  0  3.992516  0
C  C48  1  0.50578022  0.51351415  0.85720032  1  0  -0.139679  0  3.74591  0  0  -0.159141  0  4.006923  0  0  -0.163134  0  4.025774  0  0  -0.089163  -0.156462  0  3.99262  0
C  C49  1  0.99422100  0.48648636  0.35720270  1  0  -0.139626  0  3.745928  0  0  -0.159084  0  4.006936  0  0  -0.163077  0  4.025788  0  0  -0.089156  -0.15641  0  3.992637  0
C  C50  1  0.58624113  0.38962913  0.15109184  1  0  -0.046394  0  3.738606  0  0  -0.069891  0  4.000179  0  0  -0.069932  0  4.020895  0  0  -0.088379  -0.069555  0  3.985967  0
C  C51  1  0.91376125  0.61037012  0.65109400  1  0  -0.046356  0  3.738616  0  0  -0.069867  0  4.000196  0  0  -0.069909  0  4.020918  0  0  -0.088381  -0.069535  0  3.985988  0
C  C52  1  0.41376024  0.61037047  0.84890567  1  0  -0.046359  0  3.738697  0  0  -0.06986  0  4.00028  0  0  -0.0699  0  4.020999  0  0  -0.088373  -0.069527  0  3.986064  0
C  C53  1  0.08623900  0.38962947  0.34890663  1  0  -0.046383  0  3.738638  0  0  -0.069879  0  4.000212  0  0  -0.069922  0  4.020932  0  0  -0.088366  -0.069542  0  3.985996  0
C  C54  1  0.74687534  0.43518430  0.12496028  1  0  -0.080491  0  3.759715  0  0  -0.097138  0  4.01653  0  0  -0.100587  0  4.039398  0  0  -0.091413  -0.094815  0  4.001458  0
C  C55  1  0.75312720  0.56481947  0.62496297  1  0  -0.080455  0  3.759666  0  0  -0.0971  0  4.016476  0  0  -0.100549  0  4.039343  0  0  -0.091383  -0.094775  0  4.001404  0
C  C56  1  0.25312740  0.56481983  0.87503645  1  0  -0.080414  0  3.759642  0  0  -0.097057  0  4.016444  0  0  -0.100508  0  4.039312  0  0  -0.091369  -0.094733  0  4.001369  0
C  C57  1  0.24687417  0.43518012  0.37503611  1  0  -0.080394  0  3.759597  0  0  -0.097036  0  4.016394  0  0  -0.100481  0  4.039259  0  0  -0.091366  -0.094713  0  4.001324  0
C  C58  1  0.82105278  0.57982192  0.08808565  1  0  -0.120773  0  3.715864  0  0  -0.139871  0  3.96298  0  0  -0.141362  0  3.982327  0  0  -0.083092  -0.138637  0  3.949756  0
C  C59  1  0.67894827  0.42017728  0.58808669  1  0  -0.12076  0  3.715881  0  0  -0.139874  0  3.962987  0  0  -0.141366  0  3.982336  0  0  -0.083095  -0.138646  0  3.949761  0
C  C60  1  0.17894748  0.42017767  0.91191421  1  0  -0.120798  0  3.715904  0  0  -0.139925  0  3.962993  0  0  -0.141417  0  3.982345  0  0  -0.083095  -0.138695  0  3.949771  0
C  C61  1  0.32105233  0.57982344  0.41191239  1  0  -0.120792  0  3.715902  0  0  -0.139885  0  3.963017  0  0  -0.14138  0  3.982367  0  0  -0.083102  -0.138654  0  3.949793  0
C  C62  1  0.72882584  0.67851717  0.07807265  1  0  0.118308  0  3.837719  0  0  0.114434  0  4.091299  0  0  0.115801  0  4.112011  0  0  0.094384  0.113932  0  4.075216  0
C  C63  1  0.77117208  0.32148656  0.57807308  1  0  0.118302  0  3.837802  0  0  0.114472  0  4.091315  0  0  0.115824  0  4.112025  0  0  0.09442  0.11398  0  4.07522  0
C  C64  1  0.27117398  0.32148469  0.92192642  1  0  0.118279  0  3.837952  0  0  0.114484  0  4.091403  0  0  0.11584  0  4.112117  0  0  0.094405  0.113981  0  4.075323  0
C  C65  1  0.22882997  0.67851530  0.42192677  1  0  0.118241  0  3.837782  0  0  0.114369  0  4.091341  0  0  0.115723  0  4.112055  0  0  0.094376  0.113866  0  4.075257  0
C  C66  1  0.36847706  0.78151037  0.09712160  1  0  0.022074  0  3.637582  0  0  -0.058388  0  3.905485  0  0  -0.04323  0  3.916129  0  0  -0.047764  -0.062129  0  3.899799  0
C  C67  1  0.13151917  0.21848601  0.59712261  1  0  0.022114  0  3.63747  0  0  -0.05835  0  3.905373  0  0  -0.043215  0  3.916022  0  0  -0.047717  -0.062105  0  3.899716  0
C  C68  1  0.63152131  0.21849036  0.90287903  1  0  0.022051  0  3.637585  0  0  -0.05841  0  3.9055  0  0  -0.043286  0  3.916146  0  0  -0.047785  -0.062155  0  3.899835  0
C  C69  1  0.86847963  0.78151244  0.40287958  1  0  0.022054  0  3.637569  0  0  -0.058417  0  3.90551  0  0  -0.043295  0  3.916156  0  0  -0.047777  -0.062164  0  3.899842  0
C  C70  1  0.37566952  0.90264274  0.17935661  1  0  -0.303754  0  3.677203  0  0  -0.343473  0  3.932379  0  0  -0.349754  0  3.937181  0  0  -0.171697  -0.338648  0  3.927094  0
C  C71  1  0.12432777  0.09735255  0.67935529  1  0  -0.303719  0  3.677184  0  0  -0.343415  0  3.932361  0  0  -0.349691  0  3.937132  0  0  -0.171642  -0.338583  0  3.92708  0
C  C72  1  0.62433074  0.09735685  0.82064480  1  0  -0.303714  0  3.677161  0  0  -0.343403  0  3.932327  0  0  -0.349693  0  3.937154  0  0  -0.171659  -0.338584  0  3.927056  0
C  C73  1  0.87567035  0.90264363  0.32064456  1  0  -0.303733  0  3.677195  0  0  -0.343443  0  3.93237  0  0  -0.349722  0  3.937174  0  0  -0.171675  -0.338624  0  3.927101  0
C  C74  1  0.23454024  0.96148566  0.17422797  1  0  0.708413  0  3.850539  0  0  0.65441  0  4.159524  0  0  0.687769  0  4.153363  0  0  0.205219  0.63202  0  4.161967  0
C  C75  1  0.26545771  0.03851190  0.67422923  1  0  0.708418  0  3.850584  0  0  0.654387  0  4.159567  0  0  0.687748  0  4.153415  0  0  0.205174  0.631988  0  4.162021  0
C  C76  1  0.76546036  0.03851507  0.82577267  1  0  0.708413  0  3.850512  0  0  0.654356  0  4.15956  0  0  0.687713  0  4.153404  0  0  0.205211  0.631971  0  4.161998  0
C  C77  1  0.73454220  0.96148656  0.32577140  1  0  0.708426  0  3.85055  0  0  0.654431  0  4.159517  0  0  0.68779  0  4.153356  0  0  0.205237  0.632042  0  4.161963  0
N  N78  1  0.52065024  0.75711426  0.08399660  1  0  0.011074  0  3.507985  0  0  0.123893  0  3.699016  0  0  0.082442  0  3.760042  0  0  -0.119964  0.131794  0  3.682619  0
N  N79  1  0.97934634  0.24288494  0.58399739  1  0  0.011235  0  3.508006  0  0  0.123952  0  3.699127  0  0  0.082579  0  3.760049  0  0  -0.119936  0.131858  0  3.682732  0
N  N80  1  0.47934813  0.24288647  0.91600325  1  0  0.011208  0  3.507943  0  0  0.123924  0  3.699064  0  0  0.082553  0  3.759993  0  0  -0.119951  0.131826  0  3.682668  0
N  N81  1  0.02065203  0.75711579  0.41600403  1  0  0.011175  0  3.508002  0  0  0.123869  0  3.699151  0  0  0.082514  0  3.760063  0  0  -0.119965  0.131768  0  3.682759  0
N  N82  1  0.63839873  0.87083016  0.04593718  1  0  -0.046639  0  2.872519  0  0  -0.059756  0  3.143423  0  0  -0.043825  0  3.160539  0  0  -0.068324  -0.063534  0  3.136294  0
N  N83  1  0.86159805  0.12917016  0.54593780  1  0  -0.04665  0  2.872424  0  0  -0.059732  0  3.14336  0  0  -0.043838  0  3.160468  0  0  -0.068325  -0.06352  0  3.136237  0
N  N84  1  0.36160075  0.12917057  0.95406267  1  0  -0.046662  0  2.872429  0  0  -0.059731  0  3.143327  0  0  -0.043833  0  3.160433  0  0  -0.068314  -0.063511  0  3.136194  0
N  N85  1  0.13840109  0.87082944  0.45406127  1  0  -0.046588  0  2.872469  0  0  -0.059654  0  3.143382  0  0  -0.043764  0  3.160486  0  0  -0.068293  -0.063441  0  3.136262  0
N  N86  1  0.76350565  0.82532458  0.04228687  1  0  -0.27495  0  3.171449  0  0  -0.222278  0  3.468492  0  0  -0.234972  0  3.47887  0  0  -0.212271  -0.213497  0  3.459771  0
N  N87  1  0.73649113  0.17467572  0.54228728  1  0  -0.274968  0  3.171337  0  0  -0.222315  0  3.468372  0  0  -0.235013  0  3.478758  0  0  -0.212305  -0.213534  0  3.459641  0
N  N88  1  0.23649307  0.17467728  0.95771298  1  0  -0.274924  0  3.171372  0  0  -0.22228  0  3.468379  0  0  -0.234978  0  3.478767  0  0  -0.212288  -0.213498  0  3.459652  0
N  N89  1  0.26350913  0.82532387  0.45771102  1  0  -0.274979  0  3.171389  0  0  -0.222309  0  3.468417  0  0  -0.235004  0  3.478804  0  0  -0.212313  -0.213523  0  3.459688  0
O  O90  1  0.12081950  0.88554753  0.11846697  1  0  -0.668246  0  2.0047  0  0  -0.599399  0  2.261121  0  0  -0.627145  0  2.250452  0  0  -0.340085  -0.580149  0  2.269097  0
O  O91  1  0.37917637  0.11445113  0.61846684  1  0  -0.668272  0  2.004744  0  0  -0.599377  0  2.26113  0  0  -0.627125  0  2.250458  0  0  -0.340052  -0.580123  0  2.269106  0
O  O92  1  0.87918067  0.11445547  0.88153366  1  0  -0.66825  0  2.004666  0  0  -0.599362  0  2.26107  0  0  -0.627107  0  2.250407  0  0  -0.34009  -0.580114  0  2.269045  0
O  O93  1  0.62082020  0.88554732  0.38153379  1  0  -0.668261  0  2.004628  0  0  -0.599429  0  2.261055  0  0  -0.627176  0  2.250383  0  0  -0.340103  -0.580177  0  2.26903  0
O  O94  1  0.23923932  0.08251898  0.22415533  1  0  -0.657944  0  1.937278  0  0  -0.593823  0  2.155734  0  0  -0.620477  0  2.146974  0  0  -0.322337  -0.574459  0  2.160907  0
O  O95  1  0.26076138  0.91747975  0.72415561  1  0  -0.657971  0  1.937295  0  0  -0.593852  0  2.155768  0  0  -0.620507  0  2.147008  0  0  -0.322355  -0.574482  0  2.160938  0
O  O96  1  0.76076163  0.91748288  0.77584453  1  0  -0.657951  0  1.937287  0  0  -0.5938  0  2.155745  0  0  -0.620456  0  2.146993  0  0  -0.322328  -0.574442  0  2.160927  0
O  O97  1  0.73923931  0.08251758  0.27584502  1  0  -0.65795  0  1.937351  0  0  -0.593815  0  2.155789  0  0  -0.62047  0  2.147032  0  0  -0.32233  -0.574456  0  2.160973  0
O  O98  1  0.98793466  0.16626898  0.13991630  1  0  -0.837006  0  1.85981  0  0  -0.780883  0  2.055388  0  0  -0.802185  0  2.021294  0  0  -0.596893  -0.765915  0  2.08019  0
O  O99  1  0.51206871  0.83373366  0.63991542  1  0  -0.836971  0  1.859785  0  0  -0.780836  0  2.055417  0  0  -0.802135  0  2.021321  0  0  -0.596884  -0.765868  0  2.080221  0
O  O100  1  0.01206662  0.83373401  0.86008434  1  0  -0.836985  0  1.859783  0  0  -0.780878  0  2.055398  0  0  -0.802175  0  2.021315  0  0  -0.596888  -0.765906  0  2.080207  0
O  O101  1  0.48793369  0.16626934  0.36008444  1  0  -0.837031  0  1.859761  0  0  -0.780902  0  2.055363  0  0  -0.802205  0  2.021267  0  0  -0.596895  -0.765937  0  2.080162  0
