# generated using pymatgen
data_CoH20C26N4O7
_symmetry_space_group_name_H-M   'P 1'
_cell_length_a   9.84850750
_cell_length_b   11.24916772
_cell_length_c   11.83140000
_cell_angle_alpha   93.85861140
_cell_angle_beta   102.30589279
_cell_angle_gamma   111.66454741
_symmetry_Int_Tables_number   1
_chemical_formula_structural   CoH20C26N4O7
_chemical_formula_sum   'Co2 H40 C52 N8 O14'
_cell_volume   1174.70943341
_cell_formula_units_Z   2
loop_
 _symmetry_equiv_pos_site_id
 _symmetry_equiv_pos_as_xyz
  1  'x, y, z'
loop_
 _atom_site_type_symbol
 _atom_site_label
 _atom_site_symmetry_multiplicity
 _atom_site_fract_x
 _atom_site_fract_y
 _atom_site_fract_z
 _atom_site_occupancy
 _atom_site_hle17_ddec_charge
 _atom_site_hle17_ddec_spin_density
 _atom_site_hle17_ddec_sum_bond_order
 _atom_site_hle17_magmom
 _atom_site_hse06_10hf_ddec_charge
 _atom_site_hse06_10hf_ddec_spin_density
 _atom_site_hse06_10hf_ddec_sum_bond_order
 _atom_site_hse06_10hf_magmom
 _atom_site_hse06_ddec_charge
 _atom_site_hse06_ddec_spin_density
 _atom_site_hse06_ddec_sum_bond_order
 _atom_site_hse06_magmom
 _atom_site_pbe_bader_charge
 _atom_site_pbe_bader_spin_density
 _atom_site_pbe_cm5_charge
 _atom_site_pbe_ddec_charge
 _atom_site_pbe_ddec_spin_density
 _atom_site_pbe_ddec_sum_bond_order
 _atom_site_pbe_magmom
Co  Co0  1  0.14868634  0.23953164  0.31056960  1  0.979112  2.8105  2.000917  2.524  0.922904  2.81965  2.460464  2.579  1.015818  2.867229  2.371251  2.671  1.198621  2.55482  0.682628  0.848772  2.772629  2.528081  2.491
Co  Co1  1  0.85131316  0.76046997  0.68943118  1  0.979203  2.810524  2.000958  2.524  0.922899  2.819638  2.460509  2.579  1.015878  2.867228  2.371289  2.671  1.198616  2.554775  0.682603  0.848758  2.772594  2.52815  2.491
H  H2  1  0.54313675  0.61050127  0.00017410  1  0.400064  -1e-06  0.895916  0.0  0.370515  -4e-06  0.970691  0.0  0.383736  -5e-06  0.952114  0.0  0.652017  1e-06  0.303959  0.361179  -3e-06  0.981091  0.0
H  H3  1  0.45686527  0.38950130  0.99982381  1  0.40011  -1e-06  0.895871  0.0  0.370523  -4e-06  0.970684  0.0  0.383753  -5e-06  0.952094  0.0  0.65199  1e-06  0.303962  0.361187  -3e-06  0.98109  0.0
H  H4  1  0.58454537  0.41831154  0.67440186  1  0.324215  7.9e-05  0.928989  0.0  0.305537  0.000125  0.990414  0.0  0.314167  8e-05  0.983471  0.0  0.555944  0.000345  0.311066  0.299401  0.000182  0.995423  0.0
H  H5  1  0.41545324  0.58168812  0.32560032  1  0.32419  8e-05  0.929002  0.0  0.305511  0.000125  0.990435  0.0  0.314137  8e-05  0.983494  0.0  0.555956  0.000345  0.311069  0.299377  0.000182  0.995443  0.0
H  H6  1  0.86498924  0.07211379  0.62513323  1  0.33142  0.000269  0.933834  0.001  0.310231  0.000305  0.99829  0.0  0.319711  0.000227  0.990035  0.0  0.573384  0.000494  0.311373  0.303499  0.000387  1.004219  0.001
H  H7  1  0.13501042  0.92788587  0.37486998  1  0.331449  0.00027  0.933818  0.001  0.310257  0.000305  0.998292  0.0  0.319753  0.000227  0.990007  0.0  0.573543  0.000494  0.311373  0.303526  0.000387  1.004219  0.001
H  H8  1  0.86367714  0.42461378  0.15147087  1  0.111389  2.4e-05  0.965122  0.0  0.117032  4.1e-05  1.034752  0.0  0.121244  -1.1e-05  1.031166  0.0  0.136453  0.000358  0.106792  0.113946  0.000101  1.03749  0.0
H  H9  1  0.13632222  0.57538976  0.84852577  1  0.111428  2.6e-05  0.96526  0.0  0.117064  4.1e-05  1.034876  0.0  0.121275  -1.1e-05  1.031292  0.0  0.136481  0.000358  0.106799  0.113972  0.000101  1.037621  0.0
H  H10  1  0.92040630  0.78620322  0.02732257  1  0.125584  -0.000129  0.956475  0.0  0.132797  -8.7e-05  1.022738  0.0  0.136995  -0.000117  1.019657  0.0  0.095539  0.000186  0.110028  0.129666  -3.9e-05  1.025148  0.0
H  H11  1  0.07959454  0.21380129  0.97267186  1  0.125516  -0.000132  0.956496  0.0  0.132757  -8.7e-05  1.02271  0.0  0.136951  -0.000117  1.019641  0.0  0.095631  0.000187  0.109993  0.129626  -3.9e-05  1.025115  0.0
H  H12  1  0.30665069  0.68677456  0.14143804  1  0.123897  -4e-06  0.936427  0.0  0.131245  -2.1e-05  1.001461  0.0  0.135802  -2e-05  0.997494  0.0  0.115171  3.4e-05  0.112743  0.128113  -2.1e-05  1.004094  0.0
H  H13  1  0.69335030  0.31322801  0.85855799  1  0.123913  -2e-06  0.936458  0.0  0.131203  -2.1e-05  1.001543  0.0  0.135767  -2e-05  0.997569  0.0  0.115141  3.4e-05  0.112739  0.128073  -2.1e-05  1.00417  0.0
H  H14  1  0.08153452  0.95160432  0.99106908  1  0.086867  -0.000334  0.96659  0.0  0.095894  -9.4e-05  1.036447  0.0  0.098203  -0.000139  1.034255  0.0  0.102741  0.000315  0.107071  0.094088  -3e-05  1.03824  0.0
H  H15  1  0.91846395  0.04839729  0.00892728  1  0.08686  -0.000338  0.966436  0.0  0.095889  -9.4e-05  1.03632  0.0  0.098191  -0.000139  1.034126  0.0  0.102836  0.000316  0.107048  0.094091  -3e-05  1.038111  0.0
H  H16  1  0.27826465  0.04885665  0.03331290  1  0.107805  -0.000335  0.899866  0.0  0.123426  -1.6e-05  0.952755  0.0  0.124773  -2.3e-05  0.951658  0.0  0.086993  0.000177  0.123299  0.122482  -4e-06  0.953639  0.0
H  H17  1  0.72173278  0.95114495  0.96668244  1  0.107815  -0.000338  0.899839  0.0  0.123458  -1.5e-05  0.952725  0.0  0.124801  -2.3e-05  0.951622  0.0  0.086984  0.000178  0.123321  0.122516  -3e-06  0.953611  0.0
H  H18  1  0.43293126  0.25889869  0.20798977  1  0.113485  -7.2e-05  0.946974  0.0  0.124722  2.8e-05  1.005053  0.0  0.127713  -2e-05  1.003612  0.0  0.104662  0.000305  0.10831  0.122418  8.4e-05  1.006436  0.0
H  H19  1  0.56706973  0.74109710  0.79201343  1  0.113501  -7.5e-05  0.946964  0.0  0.124686  2.8e-05  1.005104  0.0  0.127675  -2e-05  1.003667  0.0  0.104543  0.000305  0.108314  0.122382  8.4e-05  1.006487  0.0
H  H20  1  0.69685348  0.28387312  0.21482532  1  0.093323  -4.4e-05  0.955166  0.0  0.107101  -5.6e-05  1.010732  0.0  0.10988  -4.8e-05  1.009301  0.0  0.087855  2.6e-05  0.101315  0.105004  -3.2e-05  1.011948  0.0
H  H21  1  0.30314869  0.71612751  0.78518009  1  0.09329  -4.2e-05  0.955223  0.0  0.107074  -5.6e-05  1.010776  0.0  0.109852  -4.8e-05  1.009348  0.0  0.087767  2.6e-05  0.10131  0.104978  -3.2e-05  1.011991  0.0
H  H22  1  0.89430062  0.35383545  0.40123333  1  0.091311  -0.000293  0.961815  0.0  0.101781  -0.000301  1.023828  0.0  0.104162  -0.000292  1.023547  0.0  0.074094  -4.9e-05  0.097588  0.100222  -0.000255  1.023728  0.0
H  H23  1  0.10570126  0.64616228  0.59877184  1  0.091307  -0.000292  0.961801  0.0  0.101771  -0.000301  1.023825  0.0  0.104153  -0.000292  1.023542  0.0  0.0742  -4.9e-05  0.097592  0.100207  -0.000255  1.023729  0.0
H  H24  1  0.83476838  0.39710799  0.59142200  1  0.106266  6.5e-05  0.959351  0.0  0.117138  4.2e-05  1.018649  0.0  0.11986  1e-06  1.017983  0.0  0.079851  0.0004  0.101157  0.115008  8e-05  1.019443  0.0
H  H25  1  0.16523083  0.60289071  0.40858192  1  0.106212  6.5e-05  0.959313  0.0  0.117085  4.2e-05  1.018611  0.0  0.119806  1e-06  1.017946  0.0  0.079931  0.0004  0.101132  0.114958  8e-05  1.019403  0.0
H  H26  1  0.21578178  0.41489730  0.55546859  1  0.096593  -6.8e-05  0.956534  0.0  0.10913  0.000331  1.022108  0.0  0.110457  0.000258  1.023082  0.0  0.08405  0.000643  0.102021  0.108341  0.00039  1.021215  0.0
H  H27  1  0.78421847  0.58510139  0.44453213  1  0.096591  -7.5e-05  0.956519  0.0  0.109146  0.000331  1.022093  0.0  0.110474  0.000259  1.023064  0.0  0.084066  0.000642  0.102023  0.108358  0.00039  1.021199  0.0
H  H28  1  0.34068085  0.41775914  0.68724946  1  0.114073  -7.2e-05  0.909967  0.0  0.133398  2e-06  0.959437  0.0  0.135415  0.0  0.959406  0.0  0.074146  0.000182  0.112663  0.131814  6e-06  0.959715  0.0
H  H29  1  0.65931969  0.58224246  0.31275065  1  0.114064  -7.9e-05  0.909991  0.0  0.133395  2e-06  0.959468  0.0  0.135412  1e-06  0.959435  0.0  0.074159  0.000181  0.112658  0.13181  6e-06  0.959742  0.0
H  H30  1  0.21273237  0.16471979  0.64622732  1  0.101129  -0.00036  0.96664  0.0  0.113359  -3.9e-05  1.03178  0.0  0.11453  -2.9e-05  1.033876  0.0  0.072685  0.000108  0.102228  0.112506  -4.6e-05  1.030365  0.0
H  H31  1  0.78726624  0.83527987  0.35377486  1  0.10117  -0.000361  0.966655  0.0  0.113395  -3.9e-05  1.031781  0.0  0.114572  -2.9e-05  1.033884  0.0  0.072874  0.000108  0.102217  0.11254  -4.6e-05  1.030365  0.0
H  H32  1  0.11817610  0.25333784  0.69778918  1  0.104337  7.9e-05  0.924407  0.0  0.122519  0.000121  0.978231  0.0  0.124139  8.7e-05  0.978347  0.0  0.099154  0.000451  0.107528  0.121173  0.000167  0.978326  0.0
H  H33  1  0.88182607  0.74666280  0.30221201  1  0.104404  7.9e-05  0.92434  0.0  0.122575  0.000121  0.978154  0.0  0.124205  8.7e-05  0.978277  0.0  0.099181  0.00045  0.107528  0.121228  0.000167  0.978248  0.0
H  H34  1  0.83306789  0.08605857  0.16576601  1  0.106098  0.000102  0.972394  0.0  0.114039  0.000334  1.039682  0.0  0.117048  0.000225  1.038044  0.0  0.101201  0.001003  0.104129  0.1117  0.00047  1.041089  0.0
H  H35  1  0.16693384  0.91394787  0.83424138  1  0.106112  0.000103  0.972361  0.0  0.114075  0.000334  1.03963  0.0  0.117086  0.000224  1.037988  0.0  0.101174  0.001002  0.104133  0.111735  0.00047  1.04104  0.0
H  H36  1  0.55435509  0.95092399  0.11529659  1  0.091077  -2.7e-05  0.948234  0.0  0.102955  -1.8e-05  1.005312  0.0  0.106224  -1.6e-05  1.003564  0.0  0.06691  -0.0  0.098703  0.100529  -2.2e-05  1.006729  0.0
H  H37  1  0.44564797  0.04907858  0.88470319  1  0.0911  -2.7e-05  0.948273  0.0  0.102971  -1.8e-05  1.00535  0.0  0.10624  -1.6e-05  1.003605  0.0  0.066995  -0.0  0.098731  0.100548  -2.2e-05  1.006764  0.0
H  H38  1  0.42301928  0.88300846  0.26969850  1  0.095547  -8.9e-05  0.973136  0.0  0.103459  -2.5e-05  1.039459  0.0  0.10666  -1.8e-05  1.037597  0.0  0.088718  1.2e-05  0.09772  0.101021  -3.4e-05  1.04094  0.0
H  H39  1  0.57698201  0.11699024  0.73030072  1  0.095556  -8.6e-05  0.973131  0.0  0.103453  -2.5e-05  1.039465  0.0  0.106653  -1.8e-05  1.037605  0.0  0.088705  1.3e-05  0.097714  0.101015  -3.3e-05  1.040943  0.0
H  H40  1  0.56522311  0.93652856  0.48127650  1  0.115433  0.000107  0.950145  0.0  0.126469  7.5e-05  1.007283  0.0  0.129346  3.9e-05  1.006641  0.0  0.093214  0.0004  0.107516  0.124374  0.000123  1.007946  0.0
H  H41  1  0.43477595  0.06346529  0.51872116  1  0.115376  0.000107  0.950264  0.0  0.126506  7.5e-05  1.00728  0.0  0.129383  3.9e-05  1.006638  0.0  0.093206  0.000401  0.107556  0.124412  0.000123  1.007939  0.0
C  C42  1  0.09275262  0.54807876  0.15528591  1  -0.059897  0.002891  3.798865  0.004  -0.032518  0.00137  4.032594  0.002  -0.040568  0.00074  4.055697  0.001  -0.032065  0.003941  -0.020501  -0.027517  0.002018  4.017469  0.003
C  C43  1  0.90724584  0.45192284  0.84471215  1  -0.059913  0.002901  3.79887  0.004  -0.032547  0.00137  4.032586  0.002  -0.040596  0.000743  4.055695  0.001  -0.032013  0.00394  -0.020554  -0.027539  0.002017  4.017448  0.003
C  C44  1  0.93763842  0.51678368  0.13456752  1  -0.082121  0.001268  3.714011  0.001  -0.125148  0.001174  3.967802  0.001  -0.122766  0.000745  3.986748  0.001  -0.037787  0.003371  -0.084444  -0.126506  0.001743  3.955259  0.002
C  C45  1  0.06236182  0.48322180  0.86542857  1  -0.082219  0.001259  3.714163  0.001  -0.12524  0.001175  3.967959  0.001  -0.12286  0.000744  3.986903  0.001  -0.037867  0.003372  -0.084469  -0.126594  0.001742  3.955404  0.002
C  C46  1  0.87732691  0.60289265  0.08813261  1  -0.071163  -0.000686  3.809373  -0.001  -0.045763  -0.000379  4.050176  0.0  -0.055124  -0.000389  4.074906  0.0  -0.094657  -9.7e-05  -0.021605  -0.0396  -0.000327  4.033495  0.0
C  C47  1  0.12267052  0.39710896  0.91186357  1  -0.071117  -0.000678  3.809292  -0.001  -0.045742  -0.000382  4.050082  0.0  -0.0551  -0.000389  4.074813  0.0  -0.094335  -9.7e-05  -0.02158  -0.039583  -0.000327  4.033391  0.0
C  C48  1  0.97136341  0.72253248  0.06576188  1  -0.170895  0.001328  3.66923  0.002  -0.209367  0.001168  3.922415  0.001  -0.210445  0.000727  3.939997  0.001  0.102621  0.003426  -0.091912  -0.208345  0.001656  3.910672  0.002
C  C49  1  0.02863505  0.27746913  0.93423026  1  -0.170815  0.001332  3.66921  0.002  -0.209336  0.001169  3.922317  0.001  -0.210417  0.000727  3.939895  0.001  0.102424  0.003426  -0.091907  -0.208339  0.001656  3.910613  0.002
C  C50  1  0.12676156  0.75305129  0.08691034  1  0.271134  -0.000374  3.789193  0.0  0.267584  -0.000395  4.052294  0.0  0.276375  -0.000426  4.067778  0.0  0.41869  2.7e-05  0.087115  0.26105  -0.000316  4.041946  0.0
C  C51  1  0.87323661  0.24694741  0.91308156  1  0.271036  -0.000366  3.789239  0.0  0.267654  -0.000398  4.052079  0.0  0.276447  -0.000426  4.067567  0.0  0.418724  2.7e-05  0.087107  0.261117  -0.000317  4.041722  0.0
C  C52  1  0.18668874  0.66491587  0.12951216  1  -0.144848  -0.001847  3.665458  -0.001  -0.18569  -0.000341  3.923523  0.0  -0.185551  -5.4e-05  3.93846  0.0  0.023465  -0.00024  -0.081166  -0.18505  -0.000738  3.913067  0.0
C  C53  1  0.81331120  0.33508670  0.87048283  1  -0.144876  -0.001878  3.66549  -0.001  -0.18571  -0.000338  3.923485  0.0  -0.185575  -5.6e-05  3.938414  0.0  0.023395  -0.00024  -0.081159  -0.185067  -0.000738  3.913019  0.0
C  C54  1  0.15937429  0.45622383  0.20323166  1  0.633371  -0.005128  3.904714  -0.005  0.588148  0.002726  4.204269  0.002  0.623806  0.001894  4.200259  0.001  1.556439  0.003683  0.209198  0.562654  0.003601  4.206121  0.002
C  C55  1  0.84062447  0.54378068  0.79676917  1  0.633514  -0.005124  3.904711  -0.005  0.588308  0.002725  4.204227  0.002  0.623966  0.001891  4.200215  0.001  1.55645  0.00368  0.209289  0.562806  0.003598  4.206073  0.002
C  C56  1  0.71050705  0.56040123  0.05553167  1  0.668056  4e-06  3.793182  0.0  0.614224  -4e-05  4.094762  0.0  0.648442  -4.8e-05  4.085798  0.0  1.52787  4.4e-05  0.239302  0.590599  -1.7e-05  4.100677  0.0
C  C57  1  0.28949913  0.43960813  0.94446571  1  0.667972  -2e-06  3.793452  0.0  0.614227  -4e-05  4.094924  0.0  0.648442  -4.6e-05  4.08596  0.0  1.527799  4.5e-05  0.239296  0.590606  -1.7e-05  4.100833  0.0
C  C58  1  0.18705055  0.97352599  0.05900062  1  -0.078903  0.003198  3.635152  0.005  -0.136067  0.001727  3.897844  0.002  -0.133276  0.00101  3.898341  0.002  0.406973  0.004942  -0.066092  -0.137862  0.002562  3.897547  0.003
C  C59  1  0.81294792  0.02647561  0.94099405  1  -0.078878  0.003203  3.634978  0.005  -0.136112  0.001728  3.89779  0.002  -0.133289  0.001008  3.898246  0.002  0.406931  0.00494  -0.066116  -0.137929  0.002561  3.897514  0.003
C  C60  1  0.17464893  0.02701541  0.17714156  1  0.656569  -0.003818  3.889961  -0.004  0.610454  0.002602  4.201109  0.002  0.644727  0.001702  4.196691  0.001  1.574613  0.004216  0.210318  0.58607  0.003596  4.202944  0.002
C  C61  1  0.82535058  0.97298619  0.82285330  1  0.656525  -0.003811  3.890172  -0.004  0.610407  0.002603  4.201346  0.002  0.644673  0.001703  4.196926  0.001  1.574701  0.004213  0.210341  0.586019  0.003593  4.203172  0.002
C  C62  1  0.48442961  0.30806644  0.39691640  1  0.145655  -0.001217  3.8232  0.0  0.146484  0.001575  4.074043  0.002  0.151069  0.001078  4.098522  0.002  0.323932  0.003674  0.084532  0.143018  0.002198  4.05737  0.003
C  C63  1  0.51556812  0.69192451  0.60308507  1  0.145803  -0.001248  3.823074  0.0  0.14664  0.001575  4.073883  0.002  0.151227  0.001078  4.098365  0.002  0.323949  0.003673  0.084613  0.143192  0.002197  4.057182  0.003
C  C64  1  0.51859592  0.28519017  0.29090851  1  -0.130802  0.001524  3.726261  0.002  -0.15286  0.00058  3.978749  0.001  -0.155742  0.000309  3.999162  0.001  -0.014276  0.002023  -0.088748  -0.150972  0.00094  3.965404  0.001
C  C65  1  0.48140329  0.71480174  0.70909497  1  -0.130913  0.001548  3.726209  0.002  -0.152932  0.00058  3.978717  0.001  -0.155812  0.000309  3.999128  0.001  -0.014137  0.002023  -0.088788  -0.151044  0.00094  3.965366  0.001
C  C66  1  0.66707233  0.30186111  0.29582721  1  -0.068044  -0.001783  3.776087  -0.001  -0.086666  -0.000368  4.035443  0.0  -0.08907  -0.000297  4.058774  0.0  -0.010774  -2.7e-05  -0.094415  -0.085025  -0.000221  4.019964  0.0
C  C67  1  0.33292926  0.69813371  0.70417772  1  -0.06796  -0.001821  3.776138  -0.001  -0.086569  -0.000369  4.03545  0.0  -0.088973  -0.000296  4.058779  0.0  -0.01092  -2.6e-05  -0.094425  -0.08493  -0.00022  4.01997  0.0
C  C68  1  0.77952752  0.34117088  0.40266272  1  -0.071576  0.000719  3.783838  0.001  -0.089138  -3.7e-05  4.041377  0.0  -0.090903  -0.000165  4.064093  0.0  -0.083613  0.000756  -0.098588  -0.088205  0.000262  4.026153  0.0
C  C69  1  0.22047436  0.65882684  0.59734330  1  -0.071595  0.000725  3.783816  0.001  -0.089161  -3.8e-05  4.041366  0.0  -0.090926  -0.000167  4.064079  0.0  -0.083635  0.000757  -0.0986  -0.088223  0.000263  4.026141  0.0
C  C70  1  0.74745551  0.36572568  0.50897883  1  -0.163879  -5.8e-05  3.760419  0.0  -0.180245  0.000264  4.0101  0.0  -0.18342  0.00013  4.029655  0.0  0.020739  0.00071  -0.100314  -0.177988  0.00031  3.997034  0.0
C  C71  1  0.25254459  0.63426817  0.49102663  1  -0.163831  -7.1e-05  3.760345  0.0  -0.180176  0.000264  4.010023  0.0  -0.18335  0.00013  4.029578  0.0  0.020887  0.000709  -0.100295  -0.177926  0.000309  3.99695  0.0
C  C72  1  0.59837004  0.34957322  0.50397003  1  0.149326  0.002241  3.796258  0.003  0.142456  0.001343  4.03791  0.002  0.14596  0.000864  4.060366  0.001  0.322337  0.003594  0.090777  0.140454  0.00184  4.022554  0.003
C  C73  1  0.40162799  0.65042063  0.49603421  1  0.149265  0.002252  3.796149  0.003  0.142373  0.001343  4.037835  0.002  0.145866  0.000864  4.060287  0.001  0.322256  0.003593  0.090775  0.140365  0.00184  4.022465  0.003
C  C74  1  0.38133997  0.34249568  0.53636785  1  0.418185  -0.003543  3.680054  -0.002  0.38947  0.003522  3.96237  0.004  0.41032  0.002815  3.974699  0.004  1.027288  0.006448  0.235136  0.37503  0.004067  3.953537  0.005
C  C75  1  0.61865939  0.65750108  0.46363343  1  0.418223  -0.003571  3.679982  -0.002  0.389498  0.003522  3.962316  0.004  0.410344  0.002816  3.97464  0.004  1.027297  0.006444  0.235166  0.375049  0.004064  3.953479  0.005
C  C76  1  0.27392307  0.35853863  0.60155154  1  -0.198514  -2.3e-05  3.689437  0.001  -0.239572  0.000589  3.936381  0.001  -0.24331  0.000447  3.945605  0.0  -0.003138  0.00138  -0.146485  -0.236845  0.000735  3.92995  0.001
C  C77  1  0.72607659  0.64146104  0.39844914  1  -0.198467  -3e-06  3.689534  0.001  -0.239582  0.000589  3.936524  0.001  -0.243307  0.000446  3.945759  0.0  -0.003152  0.001378  -0.146492  -0.236852  0.000733  3.930085  0.001
C  C78  1  0.15751179  0.23163034  0.62170128  1  -0.190387  -0.000528  3.668138  0.0  -0.228204  -5.1e-05  3.910181  0.0  -0.231303  -7.7e-05  3.918609  0.0  -0.034311  0.000613  -0.144879  -0.22589  -2.2e-05  3.904262  0.0
C  C79  1  0.84248831  0.76837030  0.37830123  1  -0.190604  -0.000535  3.668342  0.0  -0.228391  -5.1e-05  3.910307  0.0  -0.231538  -7.6e-05  3.9188  0.0  -0.034453  0.000612  -0.144902  -0.226073  -2.3e-05  3.904384  0.0
C  C80  1  0.01983789  0.16381754  0.52260606  1  0.419652  -0.005704  3.654398  -0.003  0.392689  0.002491  3.932176  0.004  0.413722  0.001988  3.944024  0.003  1.026603  0.004489  0.235455  0.378593  0.003049  3.922809  0.004
C  C81  1  0.98016265  0.83618407  0.47739828  1  0.419688  -0.005701  3.654439  -0.003  0.392834  0.002491  3.932079  0.004  0.413883  0.001988  3.943934  0.003  1.026517  0.004484  0.235499  0.378727  0.003046  3.922711  0.004
C  C82  1  0.85348567  0.08581048  0.35179383  1  0.13183  -0.003071  3.848774  -0.002  0.133523  0.000741  4.09657  0.001  0.137207  0.000255  4.121649  0.0  0.275743  0.001987  0.080068  0.130471  0.001039  4.079512  0.001
C  C83  1  0.14651339  0.91419016  0.64821018  1  0.13181  -0.003072  3.848715  -0.002  0.133458  0.000741  4.096576  0.001  0.137137  0.000256  4.121665  0.0  0.275875  0.001987  0.080053  0.130412  0.001038  4.079507  0.001
C  C84  1  0.77524740  0.05215847  0.23336502  1  -0.150987  0.002013  3.756364  0.003  -0.171031  0.0013  4.008262  0.002  -0.174374  0.001005  4.029339  0.001  -0.01427  0.003141  -0.095122  -0.168443  0.001649  3.994055  0.002
C  C85  1  0.22475507  0.94784507  0.76663894  1  -0.150985  0.002008  3.756458  0.003  -0.171038  0.001301  4.00836  0.002  -0.174377  0.001006  4.029437  0.001  -0.014326  0.003142  -0.095123  -0.168444  0.001649  3.994145  0.002
C  C86  1  0.62039458  0.97752171  0.20642638  1  -0.076668  -0.001679  3.782749  -0.001  -0.093636  -0.000149  4.03961  0.0  -0.096092  -0.000303  4.062018  0.0  -0.006434  -0.000184  -0.098954  -0.092318  -0.000404  4.024637  0.0
C  C87  1  0.37960403  0.02247796  0.79357496  1  -0.076721  -0.001673  3.782863  -0.001  -0.093685  -0.000151  4.039726  0.0  -0.096141  -0.000305  4.062132  0.0  -0.006554  -0.000184  -0.09899  -0.092371  -0.000404  4.024752  0.0
C  C88  1  0.54495005  0.93703541  0.29449304  1  -0.065543  0.00108  3.76972  0.001  -0.085204  0.00032  4.03096  0.0  -0.086487  0.000249  4.052304  0.0  -0.063457  0.001247  -0.097657  -0.08403  0.000594  4.016438  0.001
C  C89  1  0.45505153  0.06296619  0.70550726  1  -0.065486  0.001072  3.769643  0.001  -0.085132  0.000321  4.0309  0.0  -0.086413  0.000251  4.052239  0.0  -0.063427  0.001247  -0.097631  -0.08396  0.000594  4.016378  0.001
C  C90  1  0.62219039  0.96821614  0.41267120  1  -0.15176  -0.000492  3.738651  0.0  -0.170364  8.5e-05  3.990816  0.0  -0.173289  -0.000141  4.009949  0.0  0.019726  0.000581  -0.095218  -0.168349  0.000242  3.977901  0.0
C  C91  1  0.37780822  0.03178352  0.58733014  1  -0.151786  -0.000481  3.738938  0.0  -0.170462  8.3e-05  3.991069  0.0  -0.17339  -0.000143  4.010202  0.0  0.019729  0.000582  -0.095221  -0.16845  0.000242  3.978146  0.0
C  C92  1  0.77703990  0.04333941  0.43917975  1  0.155592  0.002216  3.821533  0.003  0.148211  0.001333  4.064464  0.002  0.152241  0.000952  4.086205  0.002  0.317962  0.003654  0.092657  0.145655  0.001864  4.050051  0.003
C  C93  1  0.22296435  0.95666123  0.56082434  1  0.15577  0.002218  3.821282  0.003  0.148431  0.001333  4.064244  0.002  0.152464  0.000952  4.085985  0.002  0.317792  0.003653  0.092669  0.145871  0.001864  4.049825  0.003
N  N94  1  0.34969205  0.30275465  0.42076835  1  -0.502964  0.042615  3.259726  0.064  -0.472628  0.030785  3.590506  0.036  -0.505994  0.023754  3.59837  0.026  -1.225938  0.070651  -0.372541  -0.447907  0.037028  3.585167  0.043
N  N95  1  0.65030746  0.69724017  0.57923368  1  -0.503002  0.042625  3.259698  0.064  -0.472628  0.030785  3.590461  0.036  -0.506008  0.023754  3.598326  0.026  -1.22598  0.070643  -0.372557  -0.447923  0.037025  3.585132  0.043
N  N96  1  0.52846097  0.37036490  0.58884915  1  -0.382835  0.002875  3.346006  0.005  -0.323804  0.003242  3.571884  0.005  -0.34255  0.002332  3.584258  0.004  -1.280354  0.009001  -0.372261  -0.311388  0.004084  3.563608  0.006
N  N97  1  0.47153779  0.62963283  0.41115293  1  -0.382802  0.002876  3.345739  0.005  -0.323764  0.003242  3.571642  0.005  -0.342486  0.002331  3.583993  0.004  -1.280371  0.008998  -0.37228  -0.311354  0.004082  3.563354  0.006
N  N98  1  0.00555145  0.16102354  0.40662210  1  -0.506806  0.042798  3.22711  0.067  -0.472298  0.031792  3.547679  0.04  -0.505329  0.024994  3.556226  0.031  -1.186847  0.072621  -0.369777  -0.44745  0.037874  3.540905  0.048
N  N99  1  0.99444939  0.83898097  0.59338079  1  -0.506864  0.042795  3.227138  0.067  -0.472356  0.031792  3.547677  0.04  -0.505402  0.024995  3.556238  0.031  -1.186937  0.072615  -0.369803  -0.44753  0.037872  3.540944  0.048
N  N100  1  0.88536106  0.09374861  0.54433371  1  -0.388636  0.001943  3.352875  0.003  -0.330176  0.002372  3.580202  0.004  -0.34865  0.001648  3.590688  0.003  -1.30994  0.006946  -0.375172  -0.317852  0.003171  3.573286  0.005
N  N101  1  0.11463859  0.90625106  0.45566865  1  -0.388762  0.001939  3.352687  0.003  -0.330408  0.002372  3.580119  0.004  -0.348895  0.001647  3.590576  0.003  -1.309762  0.006943  -0.375245  -0.318088  0.003169  3.573195  0.005
O  O102  1  0.29497474  0.47610937  0.20728204  1  -0.612014  0.002985  1.952227  0.005  -0.573679  0.004885  2.181838  0.008  -0.597802  0.003289  2.173491  0.005  -1.190006  0.014004  -0.317572  -0.555961  0.006714  2.187009  0.01
O  O103  1  0.70502654  0.52389611  0.79272183  1  -0.612053  0.002984  1.952264  0.005  -0.573745  0.004885  2.181921  0.008  -0.59787  0.003289  2.173575  0.005  -1.190065  0.014003  -0.317627  -0.556033  0.006713  2.18709  0.01
O  O104  1  0.07028633  0.36004271  0.24161703  1  -0.611454  0.057663  2.060491  0.096  -0.573216  0.042925  2.348209  0.064  -0.6177  0.031712  2.336916  0.047  -1.147007  0.106514  -0.322843  -0.538011  0.053868  2.354415  0.08
O  O105  1  0.92971258  0.63995986  0.75838286  1  -0.61156  0.057664  2.060571  0.096  -0.573294  0.042929  2.348281  0.064  -0.617794  0.031716  2.336993  0.047  -1.147141  0.106513  -0.322872  -0.538102  0.053867  2.354492  0.08
O  O106  1  0.62666543  0.44440241  0.05094326  1  -0.564827  -2e-06  1.987317  0.0  -0.514946  3.4e-05  2.202345  0.0  -0.537725  1e-05  2.192068  0.0  -1.163092  0.000175  -0.283083  -0.499348  6.1e-05  2.208734  0.0
O  O107  1  0.37332843  0.55559144  0.94905179  1  -0.564639  3e-06  1.987793  0.0  -0.514875  3.3e-05  2.202854  0.0  -0.53764  1e-05  2.192564  0.0  -1.163296  0.000176  -0.282998  -0.499275  6.1e-05  2.209233  0.0
O  O108  1  0.65995647  0.65209528  0.03269890  1  -0.537322  -4.8e-05  2.070139  0.0  -0.486947  -5.2e-05  2.278699  0.0  -0.508619  -5.5e-05  2.260318  0.0  -1.167779  3.6e-05  -0.325969  -0.472051  -3.9e-05  2.289211  0.0
O  O109  1  0.34004408  0.34790632  0.96730036  1  -0.537415  -4.5e-05  2.069959  0.0  -0.487045  -5.3e-05  2.278512  0.0  -0.508722  -5.6e-05  2.26012  0.0  -1.167625  3.7e-05  -0.326037  -0.472147  -3.8e-05  2.289025  0.0
O  O110  1  0.22830750  0.86480727  0.06414357  1  -0.257329  0.001556  2.321222  0.003  -0.19311  0.000873  2.551985  0.002  -0.210052  0.000484  2.554047  0.001  -1.074697  0.003113  -0.180897  -0.180518  0.001447  2.549866  0.003
O  O111  1  0.77168904  0.13519240  0.93584726  1  -0.25727  0.001556  2.321276  0.003  -0.193088  0.000872  2.55199  0.002  -0.21004  0.000483  2.554048  0.001  -1.074703  0.003113  -0.180857  -0.180488  0.001447  2.549875  0.003
O  O112  1  0.20542997  0.97816424  0.26553831  1  -0.592876  0.00211  2.002049  0.004  -0.551187  0.003525  2.23186  0.006  -0.57579  0.00249  2.225407  0.004  -1.191318  0.009908  -0.302699  -0.533433  0.004644  2.235708  0.007
O  O113  1  0.79455959  0.02182476  0.73445651  1  -0.592854  0.002106  2.00236  0.004  -0.551165  0.003524  2.232156  0.006  -0.57577  0.00249  2.225732  0.004  -1.191268  0.009905  -0.302682  -0.533411  0.004642  2.235995  0.007
O  O114  1  0.13446871  0.12411430  0.17280864  1  -0.635372  0.047593  2.08466  0.079  -0.595414  0.036087  2.378543  0.053  -0.637816  0.026927  2.363823  0.039  -1.156721  0.089485  -0.325426  -0.561901  0.045147  2.387099  0.066
O  O115  1  0.86553688  0.87588925  0.82719334  1  -0.635359  0.047592  2.084599  0.079  -0.595354  0.036089  2.378439  0.053  -0.637782  0.026926  2.363753  0.039  -1.156658  0.089485  -0.325469  -0.561866  0.045146  2.38703  0.066
