# generated using pymatgen
data_Zn3P2H20C18(N2O5)2
_symmetry_space_group_name_H-M   'P 1'
_cell_length_a   8.59158422
_cell_length_b   16.43254682
_cell_length_c   18.62622636
_cell_angle_alpha   102.23674514
_cell_angle_beta   89.99987593
_cell_angle_gamma   89.99995329
_symmetry_Int_Tables_number   1
_chemical_formula_structural   Zn3P2H20C18(N2O5)2
_chemical_formula_sum   'Zn12 P8 H80 C72 N16 O40'
_cell_volume   2569.93471432
_cell_formula_units_Z   4
loop_
 _symmetry_equiv_pos_site_id
 _symmetry_equiv_pos_as_xyz
  1  'x, y, z'
loop_
 _atom_site_type_symbol
 _atom_site_label
 _atom_site_symmetry_multiplicity
 _atom_site_fract_x
 _atom_site_fract_y
 _atom_site_fract_z
 _atom_site_occupancy
 _atom_site_pbe_bader_charge
 _atom_site_pbe_bader_spin_density
 _atom_site_pbe_cm5_charge
 _atom_site_pbe_ddec_charge
 _atom_site_pbe_ddec_spin_density
 _atom_site_pbe_ddec_sum_bond_order
 _atom_site_pbe_magmom
Zn  Zn0  1  0.79646583  0.24288363  0.74218386  1  1.338445  0  0.695675  1.009901  0  2.214304  0
Zn  Zn1  1  0.29646564  0.75711707  0.75781538  1  1.33819  0  0.695692  1.009948  0  2.214258  0
Zn  Zn2  1  0.20353285  0.75711663  0.25781669  1  1.338417  0  0.695693  1.009938  0  2.214233  0
Zn  Zn3  1  0.70353421  0.24288381  0.24218422  1  1.338399  0  0.695686  1.009931  0  2.21426  0
Zn  Zn4  1  0.22700527  0.06261016  0.72398435  1  1.281331  0  0.696957  0.840869  0  2.379733  0
Zn  Zn5  1  0.72700421  0.93738872  0.77601570  1  1.281438  0  0.69693  0.840849  0  2.379768  0
Zn  Zn6  1  0.77299458  0.93738948  0.27601556  1  1.281335  0  0.696939  0.840895  0  2.37973  0
Zn  Zn7  1  0.27299331  0.06261029  0.22398409  1  1.281339  0  0.696966  0.840868  0  2.379701  0
Zn  Zn8  1  0.73888725  0.54422962  0.70482415  1  1.277885  0  0.69927  0.844671  0  2.355343  0
Zn  Zn9  1  0.23888851  0.45577112  0.79517515  1  1.277904  0  0.699259  0.844624  0  2.355396  0
Zn  Zn10  1  0.26111493  0.45577189  0.29517610  1  1.277898  0  0.699258  0.844646  0  2.355355  0
Zn  Zn11  1  0.76111366  0.54422852  0.20482529  1  1.277921  0  0.699299  0.844692  0  2.355311  0
P  P12  1  0.59466621  0.08460269  0.71897459  1  3.334194  0  0.319957  1.284703  0  5.422528  0
P  P13  1  0.09466565  0.91539690  0.78102465  1  3.334283  0  0.319954  1.284771  0  5.422427  0
P  P14  1  0.40533247  0.91539757  0.28102543  1  3.334398  0  0.320016  1.284745  0  5.422438  0
P  P15  1  0.90533187  0.08460274  0.21897471  1  3.33441  0  0.320008  1.284786  0  5.422449  0
P  P16  1  0.55857012  0.38898742  0.74576004  1  3.366192  0  0.318  1.275085  0  5.444938  0
P  P17  1  0.05856784  0.61101280  0.75423774  1  3.366037  0  0.317989  1.275043  0  5.445128  0
P  P18  1  0.44143438  0.61101408  0.25423913  1  3.366204  0  0.318023  1.275105  0  5.444978  0
P  P19  1  0.94143550  0.38898621  0.24576152  1  3.366195  0  0.318006  1.275025  0  5.445037  0
H  H20  1  0.76424684  0.07122630  0.41742779  1  0.135018  0  0.123258  0.104099  0  0.981276  0
H  H21  1  0.26424836  0.92877286  0.08257175  1  0.135044  0  0.123249  0.104096  0  0.981264  0
H  H22  1  0.23574719  0.92877334  0.58257265  1  0.135041  0  0.123261  0.104106  0  0.981251  0
H  H23  1  0.73574567  0.07122553  0.91742793  1  0.135053  0  0.123276  0.104106  0  0.98126  0
H  H24  1  0.78248063  0.07824757  0.55412096  1  0.134145  0  0.115059  0.140687  0  0.991412  0
H  H25  1  0.28248045  0.92175188  0.94587807  1  0.134119  0  0.115064  0.1407  0  0.991414  0
H  H26  1  0.21751573  0.92175393  0.44587983  1  0.134212  0  0.114994  0.140562  0  0.991384  0
H  H27  1  0.71751591  0.07824713  0.05412172  1  0.134178  0  0.115039  0.140654  0  0.991426  0
H  H28  1  0.87836353  0.81431611  0.50251365  1  0.066874  0  0.109785  0.115995  0  0.99595  0
H  H29  1  0.37836311  0.18568391  0.99748592  1  0.066878  0  0.109777  0.115985  0  0.995939  0
H  H30  1  0.12163864  0.18568540  0.49748767  1  0.06672  0  0.10976  0.115959  0  0.995997  0
H  H31  1  0.62163907  0.81431448  0.00251375  1  0.066853  0  0.109789  0.116005  0  0.995888  0
H  H32  1  0.85185884  0.81818776  0.36970956  1  0.129527  0  0.118329  0.092868  0  1.02785  0
H  H33  1  0.35185550  0.18181196  0.13029053  1  0.129505  0  0.118338  0.092852  0  1.027884  0
H  H34  1  0.14814450  0.18181313  0.63029219  1  0.129486  0  0.118339  0.092867  0  1.027845  0
H  H35  1  0.64814552  0.81818643  0.86970968  1  0.129488  0  0.11831  0.092836  0  1.027916  0
H  H36  1  0.92731455  0.90203385  0.63094472  1  0.098542  0  0.114409  0.112427  0  0.993006  0
H  H37  1  0.42731371  0.09796613  0.86905426  1  0.098537  0  0.114404  0.11241  0  0.992971  0
H  H38  1  0.07268646  0.09796704  0.36905649  1  0.098531  0  0.114455  0.112459  0  0.993027  0
H  H39  1  0.57268614  0.90203226  0.13094596  1  0.098522  0  0.114459  0.112458  0  0.99294  0
H  H40  1  0.87516767  0.00880028  0.65031273  1  0.115343  0  0.116885  0.11435  0  0.983731  0
H  H41  1  0.37517016  0.99119975  0.84968738  1  0.115333  0  0.116892  0.114337  0  0.983745  0
H  H42  1  0.12482869  0.99119936  0.34968771  1  0.115336  0  0.116887  0.114352  0  0.983714  0
H  H43  1  0.62482969  0.00879927  0.15031348  1  0.115328  0  0.116896  0.114362  0  0.98376  0
H  H44  1  0.73476693  0.79818396  0.62286561  1  0.07933  0  0.12421  0.131807  0  0.949044  0
H  H45  1  0.23476588  0.20181490  0.87713336  1  0.079344  0  0.124221  0.131813  0  0.949051  0
H  H46  1  0.26523292  0.20181630  0.37713441  1  0.079313  0  0.124193  0.13178  0  0.949075  0
H  H47  1  0.76523513  0.79818411  0.12286644  1  0.079329  0  0.124217  0.131799  0  0.949094  0
H  H48  1  0.57606521  0.83049332  0.57318383  1  0.056579  0  0.103688  0.102551  0  0.975772  0
H  H49  1  0.07606514  0.16950504  0.92681521  1  0.056607  0  0.103717  0.102574  0  0.975767  0
H  H50  1  0.42393581  0.16950632  0.42681554  1  0.056575  0  0.103705  0.102569  0  0.975777  0
H  H51  1  0.92393704  0.83049398  0.07318459  1  0.056574  0  0.103708  0.102577  0  0.975769  0
H  H52  1  0.45777122  0.96006368  0.66490160  1  0.069242  0  0.114636  0.125786  0  1.034149  0
H  H53  1  0.95777130  0.03993566  0.83509831  1  0.069388  0  0.114628  0.125748  0  1.03416  0
H  H54  1  0.54222747  0.03993658  0.33509842  1  0.069214  0  0.114602  0.125695  0  1.03423  0
H  H55  1  0.04222971  0.96006397  0.16490106  1  0.069213  0  0.114631  0.125767  0  1.034157  0
H  H56  1  0.55032318  0.00019589  0.59462599  1  0.032867  0  0.100771  0.116712  0  1.013791  0
H  H57  1  0.05032423  0.99980310  0.90537319  1  0.032887  0  0.100784  0.116737  0  1.013735  0
H  H58  1  0.44967318  0.99980374  0.40537338  1  0.032933  0  0.100753  0.116662  0  1.013789  0
H  H59  1  0.94967446  0.00019591  0.09462606  1  0.032924  0  0.100762  0.116701  0  1.013758  0
H  H60  1  0.14551303  0.55670989  0.43267258  1  0.099636  0  0.122463  0.096457  0  0.98554  0
H  H61  1  0.64551490  0.44329123  0.06733066  1  0.099628  0  0.122453  0.096485  0  0.985496  0
H  H62  1  0.85448333  0.44328976  0.56732894  1  0.099641  0  0.12245  0.096475  0  0.985507  0
H  H63  1  0.35448146  0.55671027  0.93266959  1  0.09964  0  0.12245  0.096484  0  0.985524  0
H  H64  1  0.16403431  0.56881862  0.56920273  1  0.136029  0  0.117265  0.138994  0  0.983297  0
H  H65  1  0.66403099  0.43118342  0.93080011  1  0.136036  0  0.117241  0.138975  0  0.983265  0
H  H66  1  0.83596554  0.43118040  0.43079867  1  0.136033  0  0.11727  0.139003  0  0.983344  0
H  H67  1  0.33596537  0.56881870  0.06920025  1  0.136066  0  0.11725  0.138975  0  0.983221  0
H  H68  1  0.47933033  0.35936034  0.52522871  1  0.07852  0  0.110558  0.120843  0  0.996885  0
H  H69  1  0.97933113  0.64063961  0.97477128  1  0.078506  0  0.110548  0.120814  0  0.996906  0
H  H70  1  0.52066835  0.64063867  0.47477108  1  0.078593  0  0.110574  0.120843  0  0.996901  0
H  H71  1  0.02066756  0.35936190  0.02522950  1  0.078577  0  0.11056  0.12083  0  0.996915  0
H  H72  1  0.44544866  0.35489902  0.39173523  1  0.152078  0  0.118039  0.102493  0  1.023393  0
H  H73  1  0.94545351  0.64510126  0.10826595  1  0.152031  0  0.118078  0.102489  0  1.023453  0
H  H74  1  0.55455119  0.64510186  0.60826490  1  0.152064  0  0.118064  0.102505  0  1.02341  0
H  H75  1  0.05454751  0.35489900  0.89173514  1  0.15206  0  0.118048  0.10249  0  1.023426  0
H  H76  1  0.46593077  0.48444875  0.65443978  1  0.113559  0  0.114121  0.099724  0  1.049445  0
H  H77  1  0.96593121  0.51555246  0.84556208  1  0.113573  0  0.114126  0.099776  0  1.049441  0
H  H78  1  0.53406908  0.51555152  0.34556132  1  0.113564  0  0.1141  0.099695  0  1.049469  0
H  H79  1  0.03406980  0.48444904  0.15443925  1  0.113587  0  0.114097  0.099647  0  1.049459  0
H  H80  1  0.28160963  0.53207141  0.66771149  1  0.10345  0  0.112005  0.099694  0  1.025985  0
H  H81  1  0.78161021  0.46792993  0.83229003  1  0.103486  0  0.112026  0.099734  0  1.025985  0
H  H82  1  0.71839022  0.46792823  0.33228895  1  0.103459  0  0.112005  0.099711  0  1.02597  0
H  H83  1  0.21839313  0.53207096  0.16771064  1  0.103461  0  0.112011  0.0997  0  1.025971  0
H  H84  1  0.15145353  0.32287172  0.59206070  1  0.053472  0  0.100352  0.095514  0  0.996746  0
H  H85  1  0.65145343  0.67712970  0.90793989  1  0.053535  0  0.100349  0.095521  0  0.996737  0
H  H86  1  0.84854748  0.67712792  0.40794028  1  0.053723  0  0.100356  0.09552  0  0.99673  0
H  H87  1  0.34854875  0.32287118  0.09206024  1  0.053456  0  0.100344  0.095504  0  0.996744  0
H  H88  1  0.06899942  0.42257019  0.63048568  1  0.136839  0  0.121716  0.137745  0  0.999448  0
H  H89  1  0.56899849  0.57743128  0.86951501  1  0.136821  0  0.121718  0.137771  0  0.999449  0
H  H90  1  0.93100276  0.57742944  0.36951423  1  0.13684  0  0.121777  0.137885  0  0.999362  0
H  H91  1  0.43100252  0.42257022  0.13048470  1  0.136915  0  0.12173  0.137781  0  0.99943  0
H  H92  1  0.45816639  0.31222214  0.62673148  1  0.053881  0  0.102774  0.121044  0  0.992582  0
H  H93  1  0.95816876  0.68777906  0.87326715  1  0.05389  0  0.102728  0.121008  0  0.992609  0
H  H94  1  0.54183229  0.68777750  0.37326896  1  0.053871  0  0.102767  0.121055  0  0.99255  0
H  H95  1  0.04183341  0.31222181  0.12673137  1  0.053883  0  0.102767  0.121051  0  0.992542  0
H  H96  1  0.34949012  0.29297100  0.70245103  1  0.070912  0  0.11706  0.143505  0  0.984089  0
H  H97  1  0.84948932  0.70702966  0.79754976  1  0.070871  0  0.117082  0.143553  0  0.984074  0
H  H98  1  0.65051206  0.70702926  0.29755060  1  0.070903  0  0.117086  0.143544  0  0.98409  0
H  H99  1  0.15051286  0.29297060  0.20244972  1  0.070879  0  0.117076  0.143545  0  0.984088  0
C  C100  1  0.78462956  0.01576212  0.43962780  1  0.386433  0  0.049351  0.092729  0  3.94541  0
C  C101  1  0.28462994  0.98423765  0.06037237  1  0.38641  0  0.049345  0.09271  0  3.945383  0
C  C102  1  0.21536912  0.98424002  0.56037418  1  0.386419  0  0.049332  0.092678  0  3.945642  0
C  C103  1  0.71536642  0.01576074  0.93962731  1  0.386437  0  0.049371  0.092754  0  3.945334  0
C  C104  1  0.79596373  0.01917825  0.51471346  1  0.008864  0  -0.082487  -0.186791  0  3.931265  0
C  C105  1  0.29596560  0.98082120  0.98528609  1  0.008856  0  -0.082482  -0.186794  0  3.93122  0
C  C106  1  0.20403263  0.98082202  0.48528764  1  0.008847  0  -0.082426  -0.186604  0  3.93113  0
C  C107  1  0.70403192  0.01917844  0.01471435  1  0.008817  0  -0.082502  -0.186808  0  3.931193  0
C  C108  1  0.82867751  0.94609469  0.53936075  1  -0.038302  0  0.009018  0.145187  0  3.942888  0
C  C109  1  0.32867747  0.05390411  0.96063919  1  -0.038452  0  0.009033  0.145219  0  3.942848  0
C  C110  1  0.17132117  0.05390618  0.46063885  1  -0.038467  0  0.009023  0.145121  0  3.942901  0
C  C111  1  0.67132122  0.94609428  0.03936049  1  -0.038337  0  0.009037  0.145258  0  3.942784  0
C  C112  1  0.84823870  0.87242212  0.48642856  1  -0.062493  0  -0.082864  -0.185114  0  3.954667  0
C  C113  1  0.34823832  0.12757697  0.01357035  1  -0.062525  0  -0.082892  -0.185159  0  3.954694  0
C  C114  1  0.15176232  0.12757876  0.51357157  1  -0.062352  0  -0.082859  -0.185052  0  3.954675  0
C  C115  1  0.65176269  0.87242142  0.98642987  1  -0.06254  0  -0.082886  -0.185123  0  3.954532  0
C  C116  1  0.83333475  0.87374281  0.41246053  1  0.514458  0  0.052287  0.105067  0  3.93035  0
C  C117  1  0.33333286  0.12625692  0.08753851  1  0.514507  0  0.052311  0.105109  0  3.930356  0
C  C118  1  0.16666626  0.12625807  0.58754014  1  0.514696  0  0.052293  0.105062  0  3.93033  0
C  C119  1  0.66666582  0.87374210  0.91246236  1  0.514503  0  0.052315  0.105042  0  3.93033  0
C  C120  1  0.84003495  0.94665694  0.62007882  1  0.225765  0  -0.067153  -0.141859  0  3.882851  0
C  C121  1  0.34003528  0.05334310  0.87992026  1  0.225853  0  -0.067184  -0.141821  0  3.882796  0
C  C122  1  0.15996490  0.05334456  0.37992143  1  0.225598  0  -0.067284  -0.142038  0  3.882969  0
C  C123  1  0.65996456  0.94665716  0.12007976  1  0.225807  0  -0.067289  -0.142025  0  3.882844  0
C  C124  1  0.63502858  0.84108642  0.62696303  1  0.260205  0  -0.067828  -0.228083  0  3.902143  0
C  C125  1  0.13502879  0.15891314  0.87303563  1  0.260202  0  -0.067844  -0.228093  0  3.902215  0
C  C126  1  0.36497010  0.15891446  0.37303657  1  0.260242  0  -0.067819  -0.228102  0  3.90219  0
C  C127  1  0.86497106  0.84108525  0.12696405  1  0.260227  0  -0.067874  -0.228158  0  3.902273  0
C  C128  1  0.52405708  0.81999238  0.68474104  1  1.575037  0  0.212377  0.604177  0  4.151929  0
C  C129  1  0.02405752  0.18000726  0.81525827  1  1.575014  0  0.212409  0.604196  0  4.151904  0
C  C130  1  0.47594160  0.18000850  0.31525801  1  1.575054  0  0.212417  0.604275  0  4.151927  0
C  C131  1  0.97594349  0.81999176  0.18474152  1  1.575035  0  0.212413  0.604319  0  4.151942  0
C  C132  1  0.56674997  0.98734939  0.64991754  1  -0.188445  0  -0.090038  -0.396565  0  3.906191  0
C  C133  1  0.06675051  0.01264960  0.85008162  1  -0.188609  0  -0.090061  -0.396551  0  3.906119  0
C  C134  1  0.43324871  0.01265025  0.35008237  1  -0.188173  0  -0.089989  -0.39637  0  3.906088  0
C  C135  1  0.93324817  0.98734941  0.14991763  1  -0.188469  0  -0.090039  -0.396545  0  3.906177  0
C  C136  1  0.21589234  0.51351452  0.45600237  1  0.45979  0  0.052249  0.103244  0  3.942894  0
C  C137  1  0.71589193  0.48648530  0.04399949  1  0.459909  0  0.052249  0.103194  0  3.942911  0
C  C138  1  0.78410634  0.48648450  0.54399849  1  0.459917  0  0.052288  0.103289  0  3.942851  0
C  C139  1  0.28410559  0.51351496  0.95600107  1  0.459911  0  0.052247  0.103183  0  3.942927  0
C  C140  1  0.22700769  0.52004912  0.53142055  1  -0.043096  0  -0.079107  -0.183769  0  3.923218  0
C  C141  1  0.72700877  0.47995101  0.96858188  1  -0.04322  0  -0.079076  -0.183691  0  3.923236  0
C  C142  1  0.77299099  0.47994990  0.46858086  1  -0.043253  0  -0.079127  -0.183818  0  3.923351  0
C  C143  1  0.27298991  0.52004925  0.03141814  1  -0.043252  0  -0.079099  -0.183748  0  3.923164  0
C  C144  1  0.32251625  0.46446957  0.55887854  1  -0.035702  0  0.013372  0.153126  0  3.930913  0
C  C145  1  0.82251504  0.53553111  0.94112228  1  -0.035658  0  0.013327  0.153009  0  3.931046  0
C  C146  1  0.67748709  0.53553132  0.44112267  1  -0.035705  0  0.013302  0.15302  0  3.931105  0
C  C147  1  0.17748364  0.46446915  0.05887774  1  -0.035664  0  0.013351  0.153087  0  3.930899  0
C  C148  1  0.40041474  0.40322491  0.50766204  1  -0.076132  0  -0.085757  -0.186023  0  3.947233  0
C  C149  1  0.90041436  0.59677634  0.99233774  1  -0.075814  0  -0.085721  -0.185889  0  3.947301  0
C  C150  1  0.59958744  0.59677598  0.49233810  1  -0.076008  0  -0.085711  -0.185912  0  3.947361  0
C  C151  1  0.09958665  0.40322454  0.00766186  1  -0.076318  0  -0.085712  -0.185891  0  3.947262  0
C  C152  1  0.38278138  0.40024967  0.43290950  1  0.466465  0  0.045443  0.088064  0  3.937039  0
C  C153  1  0.88278534  0.59975127  0.06709078  1  0.466141  0  0.045359  0.087977  0  3.937077  0
C  C154  1  0.61721730  0.59974996  0.56708986  1  0.466279  0  0.045465  0.088084  0  3.937016  0
C  C155  1  0.11721684  0.40025023  0.93290893  1  0.466601  0  0.045383  0.08797  0  3.937137  0
C  C156  1  0.34238549  0.47520811  0.64065545  1  0.23516  0  -0.06975  -0.135164  0  3.858065  0
C  C157  1  0.84238469  0.52479318  0.85934546  1  0.235147  0  -0.069807  -0.135287  0  3.858223  0
C  C158  1  0.65761436  0.52479215  0.35934564  1  0.235158  0  -0.069707  -0.135139  0  3.857988  0
C  C159  1  0.15761632  0.47520708  0.14065509  1  0.235168  0  -0.069751  -0.135119  0  3.858043  0
C  C160  1  0.13876887  0.37101322  0.64287550  1  0.225579  0  -0.074392  -0.245316  0  3.929851  0
C  C161  1  0.63876791  0.62898821  0.85712457  1  0.225883  0  -0.074408  -0.245377  0  3.929964  0
C  C162  1  0.86123331  0.62898642  0.35712495  1  0.225666  0  -0.074483  -0.245518  0  3.92991  0
C  C163  1  0.36123659  0.37101205  0.14287491  1  0.225853  0  -0.074424  -0.245369  0  3.929774  0
C  C164  1  0.04267240  0.33735093  0.69874564  1  1.569497  0  0.216799  0.623831  0  4.142892  0
C  C165  1  0.54267515  0.66264994  0.80125442  1  1.569479  0  0.216744  0.62378  0  4.142928  0
C  C166  1  0.95732628  0.66264933  0.30125438  1  1.569494  0  0.216798  0.623872  0  4.142778  0
C  C167  1  0.45733052  0.33735094  0.19874571  1  1.569498  0  0.216798  0.623855  0  4.1429  0
C  C168  1  0.40560784  0.34221549  0.67980441  1  -0.220307  0  -0.085323  -0.387579  0  3.882714  0
C  C169  1  0.90560701  0.65778637  0.82019440  1  -0.219924  0  -0.085347  -0.387659  0  3.882799  0
C  C170  1  0.59439318  0.65778477  0.32019561  1  -0.220312  0  -0.08536  -0.387651  0  3.882685  0
C  C171  1  0.09439517  0.34221450  0.17980466  1  -0.2203  0  -0.085382  -0.387678  0  3.882731  0
N  N172  1  0.80161767  0.94421616  0.38940082  1  -1.241994  0  -0.324701  -0.22841  0  3.531175  0
N  N173  1  0.30161694  0.05578359  0.11059880  1  -1.241988  0  -0.324704  -0.228411  0  3.5312  0
N  N174  1  0.19837986  0.05578472  0.61060039  1  -1.242259  0  -0.32467  -0.228356  0  3.531396  0
N  N175  1  0.69838058  0.94421543  0.88940153  1  -1.24194  0  -0.324698  -0.228359  0  3.531158  0
N  N176  1  0.69131726  0.92652056  0.65246385  1  -1.00355  0  -0.329697  -0.050305  0  3.568701  0
N  N177  1  0.19131656  0.07347896  0.84753582  1  -1.003472  0  -0.329681  -0.050355  0  3.56872  0
N  N178  1  0.30868375  0.07347907  0.34753552  1  -1.003526  0  -0.32963  -0.050198  0  3.568544  0
N  N179  1  0.80868329  0.92652005  0.15246451  1  -1.003569  0  -0.329645  -0.050268  0  3.568613  0
N  N180  1  0.29241972  0.45482171  0.40736664  1  -1.214754  0  -0.324855  -0.231586  0  3.537055  0
N  N181  1  0.79242480  0.54517806  0.09263567  1  -1.214746  0  -0.324829  -0.231545  0  3.53695  0
N  N182  1  0.70757780  0.54517793  0.59263434  1  -1.214757  0  -0.324913  -0.231659  0  3.537034  0
N  N183  1  0.20757621  0.45482220  0.90736489  1  -1.214784  0  -0.324831  -0.231541  0  3.537036  0
N  N184  1  0.28688930  0.40574005  0.67357726  1  -1.020963  0  -0.328235  -0.052622  0  3.562517  0
N  N185  1  0.78688971  0.59426191  0.82642490  1  -1.021651  0  -0.328163  -0.052538  0  3.562569  0
N  N186  1  0.71311055  0.59426021  0.32642383  1  -1.02128  0  -0.328241  -0.052624  0  3.562576  0
N  N187  1  0.21311247  0.40573898  0.17357631  1  -1.021266  0  -0.328189  -0.05259  0  3.562602  0
O  O188  1  0.69631339  0.14286161  0.68410724  1  -1.43637  0  -0.386656  -0.750047  0  2.270188  0
O  O189  1  0.19630694  0.85713542  0.81589304  1  -1.436446  0  -0.386662  -0.750052  0  2.27012  0
O  O190  1  0.30368646  0.85713865  0.31589386  1  -1.436383  0  -0.386673  -0.750059  0  2.270132  0
O  O191  1  0.80368592  0.14286111  0.18410683  1  -1.436383  0  -0.386672  -0.750066  0  2.270192  0
O  O192  1  0.43029366  0.11966333  0.73812061  1  -1.444146  0  -0.391163  -0.739442  0  2.293312  0
O  O193  1  0.93029276  0.88033727  0.76187848  1  -1.444147  0  -0.391128  -0.739468  0  2.293392  0
O  O194  1  0.56970619  0.88033755  0.26187952  1  -1.444323  0  -0.391173  -0.73947  0  2.293305  0
O  O195  1  0.06970476  0.11966298  0.23811993  1  -1.444321  0  -0.391155  -0.739435  0  2.293268  0
O  O196  1  0.67703040  0.05770601  0.78401467  1  -1.439525  0  -0.390327  -0.760004  0  2.296371  0
O  O197  1  0.17703127  0.94229290  0.71598490  1  -1.439375  0  -0.390353  -0.760062  0  2.296327  0
O  O198  1  0.32296828  0.94229363  0.21598524  1  -1.439368  0  -0.390361  -0.760033  0  2.296373  0
O  O199  1  0.82296858  0.05770611  0.28401489  1  -1.439388  0  -0.390363  -0.760057  0  2.296365  0
O  O200  1  0.41105356  0.77101477  0.66404468  1  -1.155045  0  -0.305257  -0.527751  0  2.245151  0
O  O201  1  0.91105217  0.22898460  0.83595366  1  -1.15528  0  -0.30527  -0.527757  0  2.245122  0
O  O202  1  0.58894629  0.22898548  0.33595426  1  -1.155237  0  -0.305299  -0.527827  0  2.245176  0
O  O203  1  0.08894651  0.77101441  0.16404505  1  -1.155267  0  -0.305269  -0.527802  0  2.245162  0
O  O204  1  0.55100070  0.85209701  0.75198257  1  -1.165625  0  -0.30691  -0.542369  0  2.35662  0
O  O205  1  0.05100268  0.14790323  0.74801629  1  -1.165672  0  -0.306957  -0.542391  0  2.35662  0
O  O206  1  0.44899798  0.14790262  0.24801679  1  -1.165689  0  -0.306926  -0.542415  0  2.356651  0
O  O207  1  0.94900066  0.85209765  0.25198223  1  -1.165691  0  -0.306936  -0.54245  0  2.356672  0
O  O208  1  0.63048931  0.32058586  0.77959342  1  -1.439108  0  -0.388394  -0.745398  0  2.292927  0
O  O209  1  0.13048941  0.67941494  0.72040547  1  -1.439149  0  -0.388385  -0.745413  0  2.29294  0
O  O210  1  0.36951403  0.67941689  0.22040759  1  -1.439143  0  -0.388375  -0.745421  0  2.292931  0
O  O211  1  0.86951393  0.32058344  0.27959367  1  -1.439158  0  -0.388372  -0.745365  0  2.292917  0
O  O212  1  0.67802080  0.42889688  0.70209225  1  -1.451147  0  -0.39307  -0.74905  0  2.341072  0
O  O213  1  0.17801722  0.57110326  0.79790540  1  -1.451073  0  -0.393024  -0.748996  0  2.341109  0
O  O214  1  0.32198137  0.57110335  0.29790347  1  -1.451104  0  -0.393049  -0.749021  0  2.341031  0
O  O215  1  0.82198147  0.42889576  0.20209600  1  -1.451218  0  -0.393045  -0.749029  0  2.341027  0
O  O216  1  0.47131478  0.45304716  0.80438435  1  -1.437007  0  -0.386044  -0.745673  0  2.295343  0
O  O217  1  0.97130773  0.54695465  0.69561439  1  -1.436879  0  -0.386105  -0.745664  0  2.295457  0
O  O218  1  0.52868973  0.54695558  0.19561452  1  -1.437006  0  -0.386126  -0.745682  0  2.295283  0
O  O219  1  0.02869328  0.45304498  0.30438552  1  -1.436863  0  -0.386111  -0.745669  0  2.295431  0
O  O220  1  0.93758546  0.28497674  0.67259660  1  -1.166552  0  -0.312724  -0.541807  0  2.301435  0
O  O221  1  0.43758616  0.71502386  0.82740356  1  -1.166541  0  -0.312686  -0.541803  0  2.301476  0
O  O222  1  0.06241439  0.71502351  0.32740342  1  -1.166555  0  -0.312737  -0.541845  0  2.301408  0
O  O223  1  0.56241602  0.28497640  0.17259592  1  -1.166591  0  -0.312689  -0.5418  0  2.301537  0
O  O224  1  0.06929595  0.36419479  0.76669612  1  -1.160768  0  -0.305343  -0.54315  0  2.318291  0
O  O225  1  0.56929906  0.63580730  0.73330361  1  -1.160778  0  -0.305313  -0.543112  0  2.318238  0
O  O226  1  0.93070274  0.63580671  0.23330359  1  -1.160776  0  -0.305312  -0.543137  0  2.318216  0
O  O227  1  0.43070661  0.36419544  0.26669633  1  -1.160769  0  -0.305357  -0.543168  0  2.318256  0
