# generated using pymatgen
data_NdH7C13O6
_symmetry_space_group_name_H-M   'P 1'
_cell_length_a   6.84003319
_cell_length_b   13.13118444
_cell_length_c   13.13201541
_cell_angle_alpha   90.00012059
_cell_angle_beta   94.17834788
_cell_angle_gamma   90.00033974
_symmetry_Int_Tables_number   1
_chemical_formula_structural   NdH7C13O6
_chemical_formula_sum   'Nd4 H28 C52 O24'
_cell_volume   1176.35293005
_cell_formula_units_Z   4
loop_
 _symmetry_equiv_pos_site_id
 _symmetry_equiv_pos_as_xyz
  1  'x, y, z'
loop_
 _atom_site_type_symbol
 _atom_site_label
 _atom_site_symmetry_multiplicity
 _atom_site_fract_x
 _atom_site_fract_y
 _atom_site_fract_z
 _atom_site_occupancy
 _atom_site_hle17_bader_spin_density
 _atom_site_hle17_ddec_charge
 _atom_site_hle17_ddec_spin_density
 _atom_site_hle17_ddec_sum_bond_order
 _atom_site_hle17_magmom
 _atom_site_hse06_10hf_bader_spin_density
 _atom_site_hse06_10hf_ddec_charge
 _atom_site_hse06_10hf_ddec_spin_density
 _atom_site_hse06_10hf_ddec_sum_bond_order
 _atom_site_hse06_10hf_magmom
 _atom_site_hse06_bader_spin_density
 _atom_site_hse06_ddec_charge
 _atom_site_hse06_ddec_spin_density
 _atom_site_hse06_ddec_sum_bond_order
 _atom_site_hse06_magmom
 _atom_site_pbe_bader_spin_density
 _atom_site_pbe_cm5_charge
 _atom_site_pbe_ddec_charge
 _atom_site_pbe_ddec_spin_density
 _atom_site_pbe_ddec_sum_bond_order
 _atom_site_pbe_magmom
Nd  Nd0  1  0.90433556  0.62830579  0.06657632  1  0  2.321734  0  1.672961  0  0  2.167767  0  2.137739  0  0  2.259672  0  2.001445  0  0  1.526064  2.133593  0  2.17465  0
Nd  Nd1  1  0.59566658  0.12830791  0.93341972  1  0  2.321725  0  1.672997  0  0  2.167801  0  2.1377  0  0  2.259658  0  2.00149  0  0  1.526076  2.133554  0  2.174729  0
Nd  Nd2  1  0.09566831  0.37169341  0.93342534  1  0  2.321738  0  1.672954  0  0  2.167742  0  2.137779  0  0  2.259673  0  2.001435  0  0  1.526089  2.133563  0  2.174702  0
Nd  Nd3  1  0.40433289  0.87169205  0.06657721  1  0  2.321752  0  1.672958  0  0  2.167801  0  2.137714  0  0  2.259689  0  2.001445  0  0  1.52608  2.133618  0  2.174641  0
H  H4  1  0.56564527  0.37323155  0.06500491  1  0  0.041707  0  0.907981  0  0  0.050332  0  0.9731  0  0  0.051438  0  0.968322  0  0  0.140789  0.049165  0  0.97709  0
H  H5  1  0.93435535  0.87323819  0.93499540  1  0  0.041644  0  0.908086  0  0  0.050348  0  0.973124  0  0  0.051457  0  0.968342  0  0  0.140789  0.049176  0  0.977113  0
H  H6  1  0.43436153  0.62676460  0.93499534  1  0  0.041723  0  0.908076  0  0  0.050344  0  0.973185  0  0  0.05145  0  0.968406  0  0  0.140786  0.049176  0  0.977174  0
H  H7  1  0.06563679  0.12676710  0.06500506  1  0  0.041744  0  0.908029  0  0  0.050413  0  0.973092  0  0  0.051525  0  0.968306  0  0  0.140795  0.049242  0  0.977085  0
H  H8  1  0.23535291  0.00250385  0.27776361  1  0  0.098945  0  0.951741  0  0  0.107942  0  1.013972  0  0  0.111148  0  1.012769  0  0  0.110366  0.105369  0  1.015512  0
H  H9  1  0.26465129  0.50250572  0.72223979  1  0  0.099006  0  0.951624  0  0  0.108006  0  1.013856  0  0  0.111217  0  1.012636  0  0  0.110441  0.105431  0  1.015398  0
H  H10  1  0.76465243  0.99749383  0.72223734  1  0  0.098935  0  0.951727  0  0  0.107926  0  1.013972  0  0  0.111141  0  1.01275  0  0  0.110348  0.105354  0  1.015512  0
H  H11  1  0.73534965  0.49749272  0.27776024  1  0  0.09897  0  0.951619  0  0  0.107971  0  1.013852  0  0  0.111179  0  1.012641  0  0  0.110417  0.105397  0  1.015394  0
H  H12  1  0.33173558  0.06451992  0.45330603  1  0  0.093319  0  0.956799  0  0  0.104869  0  1.018444  0  0  0.107319  0  1.018284  0  0  0.100497  0.103078  0  1.018679  0
H  H13  1  0.16826495  0.56452112  0.54669660  1  0  0.09329  0  0.956795  0  0  0.104817  0  1.018471  0  0  0.107274  0  1.018306  0  0  0.100488  0.103028  0  1.018695  0
H  H14  1  0.66826683  0.93547929  0.54669481  1  0  0.093326  0  0.956788  0  0  0.10487  0  1.018441  0  0  0.107318  0  1.018283  0  0  0.100497  0.103102  0  1.018645  0
H  H15  1  0.83173599  0.43548037  0.45330495  1  0  0.093294  0  0.956808  0  0  0.104827  0  1.018472  0  0  0.107285  0  1.018305  0  0  0.10049  0.103037  0  1.018701  0
H  H16  1  0.98512009  0.71044224  0.59010943  1  0  0.086422  0  0.992981  0  0  0.095263  0  1.059818  0  0  0.097029  0  1.061106  0  0  0.096124  0.093993  0  1.059027  0
H  H17  1  0.51488009  0.21044302  0.40989432  1  0  0.086412  0  0.993026  0  0  0.095286  0  1.059817  0  0  0.097053  0  1.061102  0  0  0.096137  0.094013  0  1.059026  0
H  H18  1  0.01488232  0.28955620  0.40989065  1  0  0.086428  0  0.993001  0  0  0.095278  0  1.059831  0  0  0.097044  0  1.061119  0  0  0.096128  0.094005  0  1.05904  0
H  H19  1  0.48511938  0.78955619  0.59010489  1  0  0.086419  0  0.993067  0  0  0.095293  0  1.05986  0  0  0.09706  0  1.061146  0  0  0.09613  0.094019  0  1.059071  0
H  H20  1  0.09063354  0.77140127  0.76469623  1  0  0.101835  0  0.941106  0  0  0.112559  0  0.999719  0  0  0.116022  0  0.997584  0  0  0.105339  0.110063  0  1.001166  0
H  H21  1  0.40936942  0.27139985  0.23530617  1  0  0.101821  0  0.941235  0  0  0.112567  0  0.999807  0  0  0.116014  0  0.997691  0  0  0.105351  0.110087  0  1.001238  0
H  H22  1  0.90936447  0.22859794  0.23530369  1  0  0.101694  0  0.941228  0  0  0.112451  0  0.999814  0  0  0.115899  0  0.997698  0  0  0.105317  0.109968  0  1.001248  0
H  H23  1  0.59062712  0.72860087  0.76469369  1  0  0.101813  0  0.941119  0  0  0.112534  0  0.999735  0  0  0.115998  0  0.997598  0  0  0.10534  0.110038  0  1.001182  0
H  H24  1  0.34569716  0.03876922  0.64051788  1  0  0.110673  0  0.945029  0  0  0.118786  0  1.010321  0  0  0.122439  0  1.007958  0  0  0.109854  0.116217  0  1.011927  0
H  H25  1  0.15430452  0.53876770  0.35948550  1  0  0.110625  0  0.945072  0  0  0.118775  0  1.010345  0  0  0.122428  0  1.007982  0  0  0.109835  0.116211  0  1.011944  0
H  H26  1  0.65430084  0.96122922  0.35948280  1  0  0.110682  0  0.94495  0  0  0.118776  0  1.01028  0  0  0.122429  0  1.007917  0  0  0.109863  0.116207  0  1.011886  0
H  H27  1  0.84569642  0.46123302  0.64051605  1  0  0.110659  0  0.94507  0  0  0.118767  0  1.010382  0  0  0.122421  0  1.008016  0  0  0.109828  0.1162  0  1.011986  0
H  H28  1  0.97717802  0.73447108  0.39921402  1  0  0.107285  0  0.954566  0  0  0.116527  0  1.018968  0  0  0.119598  0  1.017686  0  0  0.106443  0.114349  0  1.019787  0
H  H29  1  0.52282097  0.23447381  0.60079050  1  0  0.107291  0  0.95455  0  0  0.116521  0  1.018935  0  0  0.119602  0  1.017643  0  0  0.106425  0.114343  0  1.019754  0
H  H30  1  0.02282438  0.26552812  0.60078606  1  0  0.107286  0  0.954553  0  0  0.116526  0  1.018968  0  0  0.119614  0  1.017668  0  0  0.106444  0.114348  0  1.019783  0
H  H31  1  0.47717997  0.76552539  0.39921029  1  0  0.107285  0  0.954561  0  0  0.11652  0  1.018926  0  0  0.119607  0  1.017627  0  0  0.106438  0.114341  0  1.019744  0
C  C32  1  0.71128943  0.37151217  0.03370608  1  0  0.661281  0  3.814633  0  0  0.591855  0  4.12023  0  0  0.626685  0  4.112926  0  0  0.186205  0.567852  0  4.129552  0
C  C33  1  0.78870970  0.87151614  0.96629265  1  0  0.661457  0  3.814923  0  0  0.591981  0  4.120552  0  0  0.62681  0  4.113244  0  0  0.186323  0.567982  0  4.129872  0
C  C34  1  0.28871737  0.62848703  0.96629570  1  0  0.661344  0  3.814602  0  0  0.591933  0  4.12018  0  0  0.626765  0  4.112874  0  0  0.186262  0.567934  0  4.129505  0
C  C35  1  0.21128390  0.12848915  0.03370558  1  0  0.66118  0  3.814959  0  0  0.591746  0  4.120539  0  0  0.626573  0  4.113238  0  0  0.186143  0.567747  0  4.12985  0
C  C36  1  0.05448868  0.82640558  0.22275365  1  0  0.72864  0  3.844601  0  0  0.68054  0  4.13595  0  0  0.716576  0  4.127742  0  0  0.239827  0.655702  0  4.143855  0
C  C37  1  0.44550026  0.32641227  0.77725062  1  0  0.728686  0  3.844284  0  0  0.680499  0  4.135727  0  0  0.71653  0  4.12753  0  0  0.239823  0.655659  0  4.143626  0
C  C38  1  0.94551372  0.17359438  0.77724415  1  0  0.728672  0  3.844549  0  0  0.680482  0  4.136021  0  0  0.716522  0  4.127812  0  0  0.239783  0.655643  0  4.143921  0
C  C39  1  0.55449774  0.67358694  0.22275006  1  0  0.728868  0  3.844126  0  0  0.680682  0  4.135567  0  0  0.716715  0  4.127362  0  0  0.239923  0.655845  0  4.143469  0
C  C40  1  0.10076338  0.86438102  0.32917195  1  0  -0.060229  0  3.732942  0  0  -0.038934  0  3.967738  0  0  -0.046104  0  3.988685  0  0  -0.008402  -0.034075  0  3.953096  0
C  C41  1  0.39922748  0.36437972  0.67083019  1  0  -0.060519  0  3.733246  0  0  -0.039083  0  3.96789  0  0  -0.046255  0  3.988839  0  0  -0.008495  -0.034224  0  3.953252  0
C  C42  1  0.89923756  0.13561971  0.67082655  1  0  -0.060248  0  3.732781  0  0  -0.038929  0  3.967594  0  0  -0.046102  0  3.988547  0  0  -0.008413  -0.034069  0  3.952953  0
C  C43  1  0.60076906  0.63561872  0.32916891  1  0  -0.060474  0  3.733173  0  0  -0.039049  0  3.967842  0  0  -0.046221  0  3.988791  0  0  -0.008446  -0.03419  0  3.953203  0
C  C44  1  0.20175926  0.95829046  0.34434904  1  0  -0.069072  0  3.750816  0  0  -0.096779  0  4.008084  0  0  -0.097495  0  4.029227  0  0  -0.079613  -0.096218  0  3.993976  0
C  C45  1  0.29824149  0.45829187  0.65565368  1  0  -0.069031  0  3.750931  0  0  -0.096786  0  4.008162  0  0  -0.097498  0  4.029309  0  0  -0.07965  -0.096229  0  3.994055  0
C  C46  1  0.79824168  0.04170874  0.65565099  1  0  -0.06909  0  3.750693  0  0  -0.096796  0  4.00795  0  0  -0.097513  0  4.029098  0  0  -0.079593  -0.096245  0  3.993853  0
C  C47  1  0.70175798  0.54170734  0.34434553  1  0  -0.069048  0  3.750852  0  0  -0.096802  0  4.008102  0  0  -0.097516  0  4.029247  0  0  -0.079668  -0.096241  0  3.993994  0
C  C48  1  0.25534003  0.99222818  0.44129095  1  0  -0.106143  0  3.746079  0  0  -0.124776  0  3.997335  0  0  -0.128165  0  4.019669  0  0  -0.084768  -0.122418  0  3.982174  0
C  C49  1  0.24466113  0.49222845  0.55871186  1  0  -0.106098  0  3.746179  0  0  -0.124692  0  3.997428  0  0  -0.128091  0  4.019759  0  0  -0.084769  -0.122329  0  3.982273  0
C  C50  1  0.74466238  0.00777102  0.55870837  1  0  -0.106151  0  3.746075  0  0  -0.124759  0  3.997327  0  0  -0.128149  0  4.019663  0  0  -0.084786  -0.122415  0  3.982161  0
C  C51  1  0.75533981  0.50777151  0.44128817  1  0  -0.106124  0  3.746122  0  0  -0.124735  0  3.99738  0  0  -0.128131  0  4.019712  0  0  -0.08476  -0.122375  0  3.982228  0
C  C52  1  0.21173896  0.93402629  0.52792350  1  0  0.046271  0  3.797085  0  0  0.063924  0  4.023452  0  0  0.063463  0  4.046997  0  0  -0.005956  0.064185  0  4.007548  0
C  C53  1  0.28826297  0.43402576  0.47207921  1  0  0.04616  0  3.797155  0  0  0.063779  0  4.023575  0  0  0.063316  0  4.047127  0  0  -0.006048  0.064036  0  4.007674  0
C  C54  1  0.78826344  0.06597291  0.47207582  1  0  0.046255  0  3.797106  0  0  0.063865  0  4.023524  0  0  0.063402  0  4.047069  0  0  -0.005978  0.064123  0  4.007627  0
C  C55  1  0.71173943  0.56597497  0.52792316  1  0  0.046273  0  3.796906  0  0  0.063932  0  4.023261  0  0  0.063467  0  4.046814  0  0  -0.005982  0.06419  0  4.007365  0
C  C56  1  0.10778092  0.83937129  0.51329621  1  0  0.052796  0  3.780458  0  0  0.069432  0  4.007849  0  0  0.069164  0  4.030937  0  0  -0.004669  0.069609  0  3.992164  0
C  C57  1  0.39221697  0.33937035  0.48670538  1  0  0.052786  0  3.780431  0  0  0.069421  0  4.007856  0  0  0.069149  0  4.030951  0  0  -0.004636  0.0696  0  3.99217  0
C  C58  1  0.89221855  0.16062791  0.48670224  1  0  0.052726  0  3.780608  0  0  0.069367  0  4.008014  0  0  0.069099  0  4.031108  0  0  -0.004698  0.069542  0  3.992328  0
C  C59  1  0.60778544  0.66063038  0.51329470  1  0  0.052836  0  3.780298  0  0  0.06946  0  4.007724  0  0  0.069189  0  4.030819  0  0  -0.004647  0.069635  0  3.992041  0
C  C60  1  0.06500561  0.78189668  0.60074203  1  0  -0.112298  0  3.744462  0  0  -0.13132  0  3.995882  0  0  -0.134541  0  4.018471  0  0  -0.088337  -0.129112  0  3.980477  0
C  C61  1  0.43498867  0.28189417  0.39925855  1  0  -0.112269  0  3.744514  0  0  -0.131334  0  3.995948  0  0  -0.134555  0  4.018532  0  0  -0.088311  -0.129125  0  3.980547  0
C  C62  1  0.93499533  0.21810252  0.39925800  1  0  -0.112254  0  3.744466  0  0  -0.131289  0  3.995886  0  0  -0.134508  0  4.018467  0  0  -0.088286  -0.12908  0  3.980486  0
C  C63  1  0.56501080  0.71810504  0.60074143  1  0  -0.112365  0  3.744486  0  0  -0.131427  0  3.99591  0  0  -0.13465  0  4.018499  0  0  -0.088325  -0.129218  0  3.980508  0
C  C64  1  0.29287962  0.94525571  0.81648625  1  0  0.723223  0  3.843901  0  0  0.678501  0  4.131615  0  0  0.713918  0  4.123288  0  0  0.235275  0.654507  0  4.138385  0
C  C65  1  0.20711804  0.44525433  0.18351175  1  0  0.723255  0  3.843755  0  0  0.678569  0  4.131419  0  0  0.713987  0  4.123094  0  0  0.235326  0.654559  0  4.138217  0
C  C66  1  0.70711691  0.05474349  0.18351056  1  0  0.723457  0  3.843778  0  0  0.67869  0  4.131552  0  0  0.714109  0  4.123223  0  0  0.23536  0.654677  0  4.138349  0
C  C67  1  0.79288143  0.55474640  0.81648974  1  0  0.723391  0  3.843669  0  0  0.678643  0  4.13141  0  0  0.714066  0  4.123077  0  0  0.23536  0.654627  0  4.138211  0
C  C68  1  0.12264672  0.81555035  0.69760971  1  0  -0.0722  0  3.741177  0  0  -0.096383  0  3.992475  0  0  -0.097253  0  4.013359  0  0  -0.086618  -0.09542  0  3.97782  0
C  C69  1  0.37735236  0.31554745  0.30239112  1  0  -0.072198  0  3.741372  0  0  -0.096372  0  3.992681  0  0  -0.097229  0  4.013566  0  0  -0.086626  -0.095423  0  3.978023  0
C  C70  1  0.87735275  0.18444809  0.30239103  1  0  -0.072016  0  3.741136  0  0  -0.096218  0  3.992441  0  0  -0.097075  0  4.013326  0  0  -0.086637  -0.095268  0  3.977779  0
C  C71  1  0.62264858  0.68445099  0.69760967  1  0  -0.072114  0  3.741216  0  0  -0.096276  0  3.99251  0  0  -0.097145  0  4.013395  0  0  -0.086622  -0.095321  0  3.977851  0
C  C72  1  0.22560487  0.90891072  0.71193954  1  0  -0.072353  0  3.750102  0  0  -0.0496  0  3.981464  0  0  -0.057608  0  4.003521  0  0  -0.018111  -0.044143  0  3.965768  0
C  C73  1  0.27439823  0.40890748  0.28806240  1  0  -0.072272  0  3.749979  0  0  -0.04955  0  3.981367  0  0  -0.057556  0  4.003415  0  0  -0.018068  -0.044085  0  3.965675  0
C  C74  1  0.77439460  0.09108848  0.28805968  1  0  -0.072558  0  3.750147  0  0  -0.049809  0  3.981558  0  0  -0.057818  0  4.003608  0  0  -0.018144  -0.04434  0  3.965857  0
C  C75  1  0.72560124  0.59109096  0.71193985  1  0  -0.072408  0  3.750192  0  0  -0.049648  0  3.981554  0  0  -0.057658  0  4.003608  0  0  -0.018113  -0.044158  0  3.965829  0
C  C76  1  0.26780041  0.96691841  0.62819325  1  0  -0.098142  0  3.695255  0  0  -0.129364  0  3.943299  0  0  -0.128566  0  3.961567  0  0  -0.073055  -0.129575  0  3.930509  0
C  C77  1  0.23220484  0.46691674  0.37180890  1  0  -0.098035  0  3.695218  0  0  -0.129283  0  3.943239  0  0  -0.12848  0  3.961502  0  0  -0.073005  -0.129495  0  3.930448  0
C  C78  1  0.73220053  0.03307927  0.37180678  1  0  -0.098032  0  3.695128  0  0  -0.129221  0  3.943157  0  0  -0.128419  0  3.961421  0  0  -0.073025  -0.129435  0  3.930364  0
C  C79  1  0.76779756  0.53308247  0.62819423  1  0  -0.09812  0  3.695302  0  0  -0.129343  0  3.943303  0  0  -0.128541  0  3.961571  0  0  -0.073014  -0.129562  0  3.930508  0
C  C80  1  0.05411280  0.80654923  0.41234704  1  0  -0.093361  0  3.655074  0  0  -0.123272  0  3.898661  0  0  -0.122499  0  3.916139  0  0  -0.071283  -0.123435  0  3.886338  0
C  C81  1  0.44588470  0.30654943  0.58765599  1  0  -0.093277  0  3.65509  0  0  -0.123174  0  3.898593  0  0  -0.122405  0  3.916065  0  0  -0.071258  -0.123338  0  3.886271  0
C  C82  1  0.94588520  0.19345225  0.58765059  1  0  -0.093321  0  3.655038  0  0  -0.123226  0  3.898592  0  0  -0.122467  0  3.916062  0  0  -0.071272  -0.123388  0  3.88627  0
C  C83  1  0.55411623  0.69344977  0.41234404  1  0  -0.09328  0  3.65506  0  0  -0.123185  0  3.898603  0  0  -0.122421  0  3.916072  0  0  -0.071279  -0.123349  0  3.886281  0
O  O84  1  0.11361918  0.88031010  0.14916992  1  0  -0.771324  0  2.00472  0  0  -0.718356  0  2.266923  0  0  -0.750302  0  2.251691  0  0  -0.428532  -0.700595  0  2.276782  0
O  O85  1  0.38637479  0.38031676  0.85083162  1  0  -0.771269  0  2.004591  0  0  -0.718286  0  2.266848  0  0  -0.750233  0  2.25161  0  0  -0.428537  -0.70052  0  2.276705  0
O  O86  1  0.88638029  0.11969062  0.85082853  1  0  -0.771308  0  2.004727  0  0  -0.718304  0  2.266955  0  0  -0.750248  0  2.251727  0  0  -0.428508  -0.700532  0  2.276814  0
O  O87  1  0.61362615  0.61968321  0.14916917  1  0  -0.771328  0  2.004539  0  0  -0.718347  0  2.2668  0  0  -0.750292  0  2.251564  0  0  -0.428557  -0.70059  0  2.27666  0
O  O88  1  0.26881159  0.88574018  0.89170199  1  0  -0.752638  0  2.011773  0  0  -0.702462  0  2.265258  0  0  -0.733144  0  2.250924  0  0  -0.401756  -0.684996  0  2.273422  0
O  O89  1  0.23118685  0.38573567  0.10829668  1  0  -0.752699  0  2.011804  0  0  -0.702531  0  2.265294  0  0  -0.733218  0  2.250954  0  0  -0.401834  -0.68507  0  2.273473  0
O  O90  1  0.73118935  0.11425902  0.10829423  1  0  -0.752724  0  2.011747  0  0  -0.702542  0  2.265262  0  0  -0.733219  0  2.250925  0  0  -0.40178  -0.685074  0  2.273442  0
O  O91  1  0.76881409  0.61426278  0.89170564  1  0  -0.752756  0  2.011768  0  0  -0.702567  0  2.265287  0  0  -0.733252  0  2.250948  0  0  -0.401859  -0.685105  0  2.273468  0
O  O92  1  0.96475686  0.74261865  0.20936086  1  0  -0.711489  0  2.022553  0  0  -0.661258  0  2.277824  0  0  -0.691959  0  2.265496  0  0  -0.382041  -0.643871  0  2.28513  0
O  O93  1  0.53524663  0.24262485  0.79064385  1  0  -0.711446  0  2.022178  0  0  -0.661233  0  2.277546  0  0  -0.691928  0  2.265226  0  0  -0.382039  -0.643831  0  2.284851  0
O  O94  1  0.03524994  0.25737980  0.79063634  1  0  -0.711484  0  2.022442  0  0  -0.66124  0  2.277813  0  0  -0.691947  0  2.265488  0  0  -0.381975  -0.643847  0  2.285118  0
O  O95  1  0.46475577  0.75737435  0.20935471  1  0  -0.711581  0  2.022165  0  0  -0.661349  0  2.277495  0  0  -0.69205  0  2.265171  0  0  -0.382104  -0.643961  0  2.284802  0
O  O96  1  0.82256298  0.44848866  0.04511226  1  0  -0.768971  0  2.188418  0  0  -0.704932  0  2.452498  0  0  -0.740287  0  2.438058  0  0  -0.419002  -0.687102  0  2.460757  0
O  O97  1  0.67743559  0.94849607  0.95488737  1  0  -0.769041  0  2.188253  0  0  -0.705027  0  2.452381  0  0  -0.740373  0  2.437939  0  0  -0.419064  -0.687185  0  2.460643  0
O  O98  1  0.17744382  0.55150826  0.95488951  1  0  -0.768939  0  2.188261  0  0  -0.704899  0  2.452332  0  0  -0.740255  0  2.437889  0  0  -0.418958  -0.68707  0  2.460591  0
O  O99  1  0.32254922  0.05150923  0.04511205  1  0  -0.768881  0  2.188383  0  0  -0.704862  0  2.452466  0  0  -0.740209  0  2.438032  0  0  -0.418886  -0.687024  0  2.46072  0
O  O100  1  0.76667677  0.29242823  0.98746206  1  0  -0.754766  0  2.102602  0  0  -0.700497  0  2.37632  0  0  -0.735269  0  2.361301  0  0  -0.400408  -0.683569  0  2.385617  0
O  O101  1  0.73332583  0.79243613  0.01253435  1  0  -0.754815  0  2.102972  0  0  -0.700588  0  2.376791  0  0  -0.735362  0  2.361776  0  0  -0.400466  -0.68367  0  2.386088  0
O  O102  1  0.23332563  0.70757173  0.01253727  1  0  -0.754859  0  2.102633  0  0  -0.700611  0  2.376369  0  0  -0.735387  0  2.361351  0  0  -0.400485  -0.683694  0  2.385668  0
O  O103  1  0.26667071  0.20756992  0.98746171  1  0  -0.754761  0  2.102734  0  0  -0.700518  0  2.376498  0  0  -0.735294  0  2.361482  0  0  -0.400435  -0.683592  0  2.385791  0
O  O104  1  0.37302809  0.03274867  0.82394855  1  0  -0.731169  0  2.027379  0  0  -0.680378  0  2.281598  0  0  -0.711288  0  2.268344  0  0  -0.404244  -0.663134  0  2.289092  0
O  O105  1  0.12697352  0.53274821  0.17605177  1  0  -0.731192  0  2.027315  0  0  -0.680416  0  2.281546  0  0  -0.711334  0  2.26829  0  0  -0.404242  -0.663185  0  2.289046  0
O  O106  1  0.62696405  0.96725129  0.17604886  1  0  -0.731272  0  2.027397  0  0  -0.68046  0  2.281652  0  0  -0.711375  0  2.268395  0  0  -0.404305  -0.663228  0  2.289157  0
O  O107  1  0.87303328  0.46725328  0.82395076  1  0  -0.731224  0  2.027313  0  0  -0.680426  0  2.281582  0  0  -0.71135  0  2.268321  0  0  -0.404231  -0.663198  0  2.289091  0
