# generated using pymatgen
data_ZnNi2H30(C3O4)6
_symmetry_space_group_name_H-M   'P 1'
_cell_length_a   6.29327697
_cell_length_b   10.84125111
_cell_length_c   10.84124768
_cell_angle_alpha   72.98085615
_cell_angle_beta   72.42898346
_cell_angle_gamma   72.42881076
_symmetry_Int_Tables_number   1
_chemical_formula_structural   ZnNi2H30(C3O4)6
_chemical_formula_sum   'Zn1 Ni2 H30 C18 O24'
_cell_volume   655.51573576
_cell_formula_units_Z   1
loop_
 _symmetry_equiv_pos_site_id
 _symmetry_equiv_pos_as_xyz
  1  'x, y, z'
loop_
 _atom_site_type_symbol
 _atom_site_label
 _atom_site_symmetry_multiplicity
 _atom_site_fract_x
 _atom_site_fract_y
 _atom_site_fract_z
 _atom_site_occupancy
 _atom_site_hle17_ddec_charge
 _atom_site_hle17_ddec_spin_density
 _atom_site_hle17_ddec_sum_bond_order
 _atom_site_hle17_magmom
 _atom_site_hse06_10hf_ddec_charge
 _atom_site_hse06_10hf_ddec_spin_density
 _atom_site_hse06_10hf_ddec_sum_bond_order
 _atom_site_hse06_10hf_magmom
 _atom_site_hse06_ddec_charge
 _atom_site_hse06_ddec_spin_density
 _atom_site_hse06_ddec_sum_bond_order
 _atom_site_hse06_magmom
 _atom_site_pbe_cm5_charge
 _atom_site_pbe_ddec_charge
 _atom_site_pbe_ddec_spin_density
 _atom_site_pbe_ddec_sum_bond_order
 _atom_site_pbe_magmom
Zn  Zn0  1  0.00000100  0.01789764  0.98210161  1  1.248413  -3e-06  1.661675  0.0  1.086886  -3.3e-05  2.11897  0.0  1.131734  2e-06  2.056293  0.0  0.67899  1.05471  -0.000133  2.163081  0.0
Ni  Ni1  1  0.22558603  0.47850942  0.00291307  1  1.044922  -1.784685  1.774124  -1.561  1.057953  -1.84373  2.155858  -1.68  1.134761  -1.887057  2.093461  -1.753  0.619124  0.99211  -1.803792  2.210898  -1.615
Ni  Ni2  1  0.77441476  0.99708807  0.52148923  1  1.044953  -1.784682  1.774087  -1.561  1.057953  -1.843731  2.155886  -1.68  1.134752  -1.887048  2.093486  -1.753  0.619124  0.992128  -1.80379  2.210889  -1.615
H  H3  1  0.56006155  0.61450529  0.87026487  1  0.430675  -0.000185  0.865576  0.0  0.401813  -0.000493  0.928489  -0.001  0.413364  -0.000328  0.911711  -0.001  0.29498  0.393293  -0.000642  0.940799  -0.001
H  H4  1  0.43994396  0.12973190  0.38549318  1  0.430727  -0.000183  0.865556  0.0  0.40186  -0.000493  0.928437  -0.001  0.41341  -0.000328  0.91166  -0.001  0.295001  0.393334  -0.000642  0.940754  -0.001
H  H5  1  0.64260544  0.51284258  0.99716801  1  0.419758  -0.00047  0.864624  -0.001  0.396856  -0.000774  0.925903  -0.001  0.407598  -0.000517  0.91001  -0.001  0.297591  0.388766  -0.001017  0.937832  -0.001
H  H6  1  0.35740037  0.00282916  0.48715767  1  0.419791  -0.00047  0.86459  -0.001  0.396886  -0.000774  0.925866  -0.001  0.407629  -0.000517  0.909971  -0.001  0.297589  0.388795  -0.001017  0.937796  -0.001
H  H7  1  0.41939467  0.26954780  0.13100391  1  0.422811  0.000848  0.880658  0.001  0.387064  0.000317  0.955289  0.0  0.400347  0.000413  0.936249  0.0  0.290204  0.377564  0.000194  0.968856  0.0
H  H8  1  0.58060633  0.86899625  0.73044875  1  0.422872  0.000848  0.880581  0.001  0.387099  0.000316  0.955245  0.0  0.400384  0.000413  0.9362  0.0  0.290212  0.377597  0.000194  0.968812  0.0
H  H9  1  0.57981401  0.27066099  0.98086919  1  0.435427  0.000471  0.849327  0.001  0.40796  -6e-05  0.910136  0.0  0.418596  6.2e-05  0.89478  0.0  0.30526  0.400128  -0.000186  0.921423  0.0
H  H10  1  0.42018116  0.01913030  0.72933945  1  0.435396  0.00047  0.849374  0.001  0.407934  -6e-05  0.910168  0.0  0.418566  6.2e-05  0.894819  0.0  0.305262  0.400103  -0.000186  0.921455  0.0
H  H11  1  0.93654887  0.33896035  0.99128323  1  0.429981  0.000392  0.853224  0.0  0.403518  -1.7e-05  0.917093  0.0  0.413602  8.3e-05  0.902623  0.0  0.30424  0.396185  -0.000126  0.927577  0.0
H  H12  1  0.06344868  0.00871630  0.66104237  1  0.429969  0.000389  0.853204  0.0  0.403503  -1.7e-05  0.917101  0.0  0.413584  8.3e-05  0.902636  0.0  0.304234  0.39617  -0.000126  0.927584  0.0
H  H13  1  0.89043140  0.35340455  0.14088010  1  0.433145  0.000559  0.867121  0.001  0.399859  0.000128  0.935005  0.0  0.411895  0.000218  0.917706  0.0  0.296105  0.391165  2.8e-05  0.947445  0.0
H  H14  1  0.10956898  0.85911964  0.64659705  1  0.43316  0.000559  0.8671  0.001  0.399874  0.000128  0.934978  0.0  0.411911  0.000218  0.91768  0.0  0.296114  0.391177  2.7e-05  0.947421  0.0
H  H15  1  0.85703138  0.68140111  0.03031101  1  0.43795  -7.4e-05  0.857229  0.0  0.408898  -0.00048  0.916598  -0.001  0.420143  -0.000324  0.900475  -0.001  0.306078  0.400613  -0.000606  0.928456  -0.001
H  H16  1  0.14296814  0.96968985  0.31859860  1  0.437986  -7.6e-05  0.857181  0.0  0.408931  -0.00048  0.916553  -0.001  0.420177  -0.000324  0.900428  -0.001  0.306087  0.400647  -0.000605  0.92841  -0.001
H  H17  1  0.03384733  0.69209732  0.87859410  1  0.422569  0.000624  0.885826  0.001  0.387362  0.00015  0.957677  0.0  0.400553  0.000272  0.938913  0.0  0.295804  0.377925  1.7e-05  0.971061  0.0
H  H18  1  0.96615284  0.12140697  0.30790257  1  0.422558  0.000623  0.885823  0.001  0.387349  0.00015  0.957692  0.0  0.400541  0.000272  0.938927  0.0  0.295786  0.377914  1.7e-05  0.971074  0.0
H  H19  1  0.29625834  0.15812983  0.02358601  1  0.440292  -2.6e-05  0.84969  0.0  0.414503  -6.3e-05  0.902988  0.0  0.425164  -2.7e-05  0.887364  0.0  0.296717  0.406705  -0.000105  0.914451  0.0
H  H20  1  0.70373962  0.97641263  0.84187065  1  0.440269  -2.7e-05  0.849712  0.0  0.414495  -6.3e-05  0.902985  0.0  0.425153  -2.7e-05  0.887365  0.0  0.296723  0.406699  -0.000105  0.914445  0.0
H  H21  1  0.31885242  0.00983064  0.10681345  1  0.412966  -5.3e-05  0.898016  0.0  0.381093  -9.4e-05  0.963533  0.0  0.392329  -7.2e-05  0.947071  0.0  0.29204  0.37306  -0.000125  0.975362  0.0
H  H22  1  0.68114640  0.89318618  0.99017079  1  0.412962  -5.5e-05  0.89801  0.0  0.381102  -9.4e-05  0.963508  0.0  0.392336  -7.2e-05  0.947049  0.0  0.292043  0.373069  -0.000125  0.975336  0.0
H  H23  1  0.15487935  0.76445582  0.99121165  1  0.442425  0.000197  0.859134  0.0  0.412755  0.000117  0.919058  0.0  0.424081  0.000124  0.902652  0.0  0.295222  0.404667  0.000109  0.930783  0.0
H  H24  1  0.84512099  0.00878816  0.23554269  1  0.442443  0.000197  0.859112  0.0  0.41277  0.000117  0.919039  0.0  0.424096  0.000124  0.902632  0.0  0.295244  0.40468  0.000109  0.930767  0.0
H  H25  1  0.35603237  0.80461708  0.02469358  1  0.434469  -3e-06  0.861119  0.0  0.4029  -1.3e-05  0.924415  0.0  0.413005  -4e-06  0.909743  0.0  0.29946  0.395658  -3.1e-05  0.934984  0.0
H  H26  1  0.64396793  0.97530769  0.19538087  1  0.434483  -4e-06  0.861106  0.0  0.40291  -1.3e-05  0.924407  0.0  0.413016  -4e-06  0.909734  0.0  0.299473  0.395668  -3.1e-05  0.934977  0.0
H  H27  1  0.30368265  0.78155908  0.47955336  1  0.107779  8.6e-05  0.964327  0.0  0.114508  9.7e-05  1.033671  0.0  0.118173  8.8e-05  1.029942  0.0  0.112055  0.111688  9.5e-05  1.03665  0.0
H  H28  1  0.69631324  0.52044785  0.21844084  1  0.107772  8.8e-05  0.964326  0.0  0.114507  9.7e-05  1.033655  0.0  0.118173  8.8e-05  1.029925  0.0  0.112062  0.11169  9.5e-05  1.036636  0.0
H  H29  1  0.49999879  0.36194223  0.63805734  1  0.117531  -0.000414  0.934732  0.0  0.125432  -0.000244  0.994969  0.0  0.129732  -0.00016  0.991114  0.0  0.111153  0.122202  -0.000353  0.997885  0.0
H  H30  1  0.20222374  0.21497956  0.52536134  1  0.095613  0.000147  0.98107  0.0  0.101132  0.000125  1.054411  0.0  0.105063  0.000111  1.050336  0.0  0.108704  0.098077  0.000131  1.057651  0.0
H  H31  1  0.79777244  0.47464149  0.78501829  1  0.095632  0.000147  0.981017  0.0  0.101141  0.000125  1.054369  0.0  0.105073  0.000111  1.050293  0.0  0.108701  0.09809  0.00013  1.057614  0.0
H  H32  1  0.00000231  0.63427617  0.36571964  1  0.11544  -0.000348  0.926109  0.0  0.122032  -0.000221  0.988519  0.0  0.126133  -0.000146  0.98497  0.0  0.110974  0.118937  -0.000322  0.991279  0.0
C  C33  1  0.38770640  0.57351937  0.57426127  1  -0.091215  -0.005548  3.769781  -0.007  -0.062973  -0.002529  4.00404  -0.003  -0.075934  -0.001875  4.028448  -0.003  -0.017854  -0.054856  -0.003285  3.988323  -0.004
C  C34  1  0.61228870  0.42574124  0.42648027  1  -0.091358  -0.005549  3.76997  -0.007  -0.063086  -0.00253  4.004221  -0.003  -0.076052  -0.001875  4.028636  -0.003  -0.017877  -0.054969  -0.003286  3.988508  -0.004
C  C35  1  0.38953854  0.68179103  0.46587975  1  -0.022421  0.003296  3.648451  0.002  -0.068029  0.000607  3.906627  0.0  -0.060802  0.000613  3.922047  0.0  -0.064186  -0.072678  0.001003  3.896565  0.0
C  C36  1  0.61046200  0.53412264  0.31820853  1  -0.022325  0.003296  3.648689  0.002  -0.067947  0.000607  3.906878  0.0  -0.060719  0.000613  3.922301  0.0  -0.064187  -0.072585  0.001003  3.896791  0.0
C  C37  1  0.50000422  0.66233747  0.33766194  1  -0.090653  -0.001563  3.743428  -0.002  -0.064924  -0.000464  3.992118  -0.001  -0.077279  -0.000361  4.014953  -0.001  -0.019334  -0.057159  -0.000595  3.977012  -0.001
C  C38  1  0.49999838  0.44617926  0.55382043  1  -0.034419  0.004595  3.680492  0.003  -0.069434  0.001148  3.92011  0.001  -0.063438  0.001016  3.937961  0.001  -0.063459  -0.073099  0.000956  3.908445  0.001
C  C39  1  0.26663736  0.58996110  0.71229575  1  0.664522  0.006554  3.851669  0.005  0.612292  0.001406  4.156746  0.001  0.649516  0.001067  4.149362  0.0  0.219087  0.586339  0.001675  4.160598  0.001
C  C40  1  0.73335906  0.28770472  0.41004025  1  0.66457  0.006554  3.851565  0.005  0.612291  0.001408  4.156697  0.001  0.649515  0.00107  4.149315  0.0  0.219109  0.586339  0.001676  4.160549  0.001
C  C41  1  0.50000008  0.77788366  0.22211932  1  0.679247  -0.000236  3.835626  0.0  0.620105  -0.000312  4.128612  0.0  0.654345  -0.000185  4.121446  0.0  0.231714  0.596986  -0.000448  4.132884  -0.001
C  C42  1  0.10969716  0.42146101  0.42972930  1  -0.087569  -0.006437  3.749909  -0.009  -0.059341  -0.002874  3.982439  -0.004  -0.071606  -0.00214  4.006586  -0.003  -0.016066  -0.051649  -0.003706  3.966591  -0.005
C  C43  1  0.89030100  0.57027141  0.57853508  1  -0.087613  -0.006437  3.750043  -0.009  -0.05935  -0.002875  3.982534  -0.004  -0.071619  -0.002142  4.006685  -0.003  -0.016046  -0.051653  -0.003706  3.966678  -0.005
C  C44  1  0.11299690  0.31438393  0.53892492  1  -0.027311  0.003958  3.672124  0.002  -0.071352  0.000945  3.92842  0.0  -0.065259  0.000944  3.944789  0.0  -0.066862  -0.075051  0.00118  3.917398  0.0
C  C45  1  0.88700134  0.46107499  0.68561425  1  -0.027263  0.003959  3.672011  0.002  -0.071304  0.000945  3.92832  0.0  -0.065213  0.000942  3.944697  0.0  -0.066831  -0.075014  0.00118  3.917291  0.0
C  C46  1  0.99999728  0.33349343  0.66650655  1  -0.083264  -0.001934  3.770257  -0.003  -0.059355  -0.000585  4.016756  -0.001  -0.071259  -0.000466  4.039114  -0.001  -0.02157  -0.051868  -0.000717  4.001766  -0.001
C  C47  1  0.00000202  0.54990697  0.45009183  1  -0.028066  0.005561  3.645807  0.003  -0.062625  0.001681  3.888296  0.001  -0.0563  0.001459  3.905309  0.001  -0.057626  -0.066445  0.001701  3.877079  0.001
C  C48  1  0.21740348  0.39460367  0.29307205  1  0.659487  0.007932  3.867869  0.006  0.608069  0.002208  4.175858  0.002  0.645  0.001765  4.169105  0.001  0.214238  0.582622  0.002566  4.178769  0.002
C  C49  1  0.78260033  0.70692941  0.60539104  1  0.659466  0.007934  3.8679  0.006  0.60803  0.002209  4.175912  0.002  0.644963  0.001768  4.16916  0.001  0.214238  0.582585  0.002566  4.178817  0.002
C  C50  1  0.99999649  0.21913568  0.78086808  1  0.676991  -8.8e-05  3.836071  0.0  0.623667  -0.000146  4.117001  0.0  0.658114  -8e-05  4.111053  0.0  0.224072  0.600383  -0.000241  4.120489  0.0
O  O51  1  0.29227768  0.48637791  0.80500716  1  -0.611683  -0.045495  2.051206  -0.08  -0.588018  -0.026916  2.327763  -0.049  -0.624417  -0.019448  2.318465  -0.038  -0.314948  -0.559649  -0.033568  2.332917  -0.058
O  O52  1  0.70771516  0.19499454  0.51362361  1  -0.611662  -0.045493  2.051211  -0.08  -0.587985  -0.026917  2.327808  -0.049  -0.624381  -0.019451  2.318508  -0.038  -0.314954  -0.55962  -0.033568  2.332961  -0.058
O  O53  1  0.14232770  0.70396995  0.73004404  1  -0.62636  0.001487  2.048532  0.0  -0.558663  0.001072  2.264516  0.0  -0.585968  0.001184  2.254218  0.0  -0.304848  -0.539676  0.000749  2.271565  0.0
O  O54  1  0.85767544  0.26995950  0.29602877  1  -0.626351  0.001486  2.048395  0.0  -0.558626  0.001073  2.264391  0.0  -0.58593  0.001188  2.254093  0.0  -0.304835  -0.53964  0.000749  2.271442  0.0
O  O55  1  0.59039056  0.75764548  0.10475506  1  -0.657885  -0.000749  2.0496  -0.001  -0.583874  -0.000538  2.259078  -0.001  -0.609912  -0.000348  2.247641  0.0  -0.307606  -0.566007  -0.000773  2.267141  -0.001
O  O56  1  0.40960985  0.89524703  0.24235568  1  -0.657902  -0.00075  2.049659  -0.001  -0.583863  -0.000539  2.259119  -0.001  -0.609904  -0.000348  2.247683  0.0  -0.307557  -0.565995  -0.000773  2.267179  -0.001
O  O57  1  0.15941685  0.48666589  0.19679703  1  -0.598268  -0.05024  2.057774  -0.088  -0.574972  -0.029069  2.334958  -0.053  -0.612022  -0.021  2.326433  -0.041  -0.311266  -0.54619  -0.036106  2.339287  -0.062
O  O58  1  0.84058752  0.80320411  0.51333016  1  -0.598246  -0.050241  2.057757  -0.088  -0.574956  -0.029069  2.334961  -0.053  -0.612005  -0.020999  2.326436  -0.041  -0.311272  -0.546175  -0.036106  2.339283  -0.062
O  O59  1  0.35468037  0.28213991  0.28111510  1  -0.632681  0.001128  2.008501  0.0  -0.570815  0.000906  2.227067  0.0  -0.597796  0.001119  2.216464  0.0  -0.309522  -0.551757  0.000438  2.234066  -0.001
O  O60  1  0.64532229  0.71888448  0.71785671  1  -0.632684  0.001127  2.008536  0.0  -0.570808  0.000906  2.227116  0.0  -0.597788  0.001117  2.216508  0.0  -0.309512  -0.55175  0.000437  2.234117  -0.001
O  O61  1  0.11172943  0.10205820  0.76469319  1  -0.67018  -0.000412  2.03399  -0.001  -0.592003  -0.000344  2.26041  -0.001  -0.620348  -0.000207  2.24858  0.0  -0.30356  -0.57247  -0.000506  2.268544  -0.001
O  O62  1  0.88826356  0.23531389  0.89794438  1  -0.670258  -0.000414  2.033905  -0.001  -0.592116  -0.000345  2.260359  -0.001  -0.620476  -0.000209  2.248533  0.0  -0.303547  -0.572583  -0.000506  2.268496  -0.001
O  O63  1  0.50619441  0.56465686  0.96253615  1  -0.814065  -0.032922  1.937475  -0.058  -0.787164  -0.024488  2.14631  -0.043  -0.813513  -0.01816  2.111441  -0.034  -0.574344  -0.76555  -0.030304  2.171855  -0.05
O  O64  1  0.49380961  0.03746090  0.43534183  1  -0.814127  -0.032926  1.937467  -0.058  -0.787234  -0.024489  2.146295  -0.043  -0.81358  -0.018161  2.111421  -0.034  -0.574337  -0.765617  -0.030305  2.17185  -0.05
O  O65  1  0.41944016  0.28267715  0.03328953  1  -0.821759  -0.034445  1.971141  -0.06  -0.780781  -0.02467  2.175667  -0.043  -0.809555  -0.018576  2.138496  -0.034  -0.553511  -0.75793  -0.030106  2.202149  -0.049
O  O66  1  0.58055803  0.96670996  0.71732146  1  -0.821799  -0.034444  1.971116  -0.06  -0.780808  -0.024669  2.175668  -0.043  -0.80958  -0.018576  2.138499  -0.034  -0.553525  -0.757971  -0.030105  2.202176  -0.049
O  O67  1  0.91986974  0.40272347  0.04483586  1  -0.821213  -0.029956  1.914806  -0.052  -0.783505  -0.023008  2.118508  -0.039  -0.81051  -0.017139  2.083286  -0.032  -0.555757  -0.761843  -0.028572  2.143795  -0.046
O  O68  1  0.08012839  0.95516456  0.59727761  1  -0.821212  -0.029952  1.914746  -0.052  -0.783496  -0.023008  2.11851  -0.039  -0.810499  -0.017139  2.083289  -0.032  -0.555753  -0.761835  -0.028571  2.143795  -0.046
O  O69  1  0.01938380  0.66595180  0.97930435  1  -0.823265  -0.037429  2.048647  -0.064  -0.778194  -0.027022  2.262272  -0.046  -0.809496  -0.020578  2.226724  -0.037  -0.560523  -0.753781  -0.03263  2.287474  -0.053
O  O70  1  0.98061603  0.02069712  0.33404645  1  -0.823305  -0.037426  2.048617  -0.064  -0.778195  -0.027022  2.262217  -0.046  -0.809496  -0.02058  2.226666  -0.037  -0.560516  -0.753784  -0.03263  2.287417  -0.053
O  O71  1  0.24078480  0.07697899  0.03997582  1  -0.865462  -0.000922  1.910758  -0.001  -0.804099  -0.00087  2.114521  -0.001  -0.824736  -0.000553  2.077961  -0.001  -0.596174  -0.789379  -0.001269  2.140708  -0.002
O  O72  1  0.75921664  0.96002291  0.92302179  1  -0.865455  -0.00092  1.910788  -0.001  -0.804094  -0.00087  2.114519  -0.001  -0.82473  -0.000552  2.077962  -0.001  -0.596189  -0.789375  -0.001269  2.140705  -0.002
O  O73  1  0.22415843  0.83965297  0.98298350  1  -0.864059  -0.000412  1.915204  0.0  -0.795647  -0.000437  2.130831  0.0  -0.817199  -0.000252  2.092742  0.0  -0.587413  -0.780429  -0.000655  2.157883  -0.001
O  O74  1  0.77584316  0.01701618  0.16034634  1  -0.864064  -0.000412  1.915189  0.0  -0.795654  -0.000437  2.130827  0.0  -0.817206  -0.000252  2.092734  0.0  -0.587446  -0.780438  -0.000656  2.157884  -0.001
