# generated using pymatgen
data_ZnH12C14N2O5
_symmetry_space_group_name_H-M   'P 1'
_cell_length_a   7.14525070
_cell_length_b   11.19539040
_cell_length_c   19.95160000
_cell_angle_alpha   90.00000000
_cell_angle_beta   90.00000000
_cell_angle_gamma   92.70604972
_symmetry_Int_Tables_number   1
_chemical_formula_structural   ZnH12C14N2O5
_chemical_formula_sum   'Zn4 H48 C56 N8 O20'
_cell_volume   1594.22600719
_cell_formula_units_Z   4
loop_
 _symmetry_equiv_pos_site_id
 _symmetry_equiv_pos_as_xyz
  1  'x, y, z'
loop_
 _atom_site_type_symbol
 _atom_site_label
 _atom_site_symmetry_multiplicity
 _atom_site_fract_x
 _atom_site_fract_y
 _atom_site_fract_z
 _atom_site_occupancy
 _atom_site_hle17_bader_spin_density
 _atom_site_hle17_ddec_charge
 _atom_site_hle17_ddec_spin_density
 _atom_site_hle17_ddec_sum_bond_order
 _atom_site_hle17_magmom
 _atom_site_hse06_10hf_bader_spin_density
 _atom_site_hse06_10hf_ddec_charge
 _atom_site_hse06_10hf_ddec_spin_density
 _atom_site_hse06_10hf_ddec_sum_bond_order
 _atom_site_hse06_10hf_magmom
 _atom_site_hse06_bader_spin_density
 _atom_site_hse06_ddec_charge
 _atom_site_hse06_ddec_spin_density
 _atom_site_hse06_ddec_sum_bond_order
 _atom_site_hse06_magmom
 _atom_site_pbe_bader_charge
 _atom_site_pbe_bader_spin_density
 _atom_site_pbe_cm5_charge
 _atom_site_pbe_ddec_charge
 _atom_site_pbe_ddec_spin_density
 _atom_site_pbe_ddec_sum_bond_order
 _atom_site_pbe_magmom
Zn  Zn0  1  0.22452086  0.59790807  0.84280910  1  0  1.001983  0  1.869988  0  0  0.811742  0  2.339968  0  0  0.860453  0  2.283213  0  1.280324  0  0.685098  0.777811  0  2.378974  0
Zn  Zn1  1  0.77549211  0.90209107  0.34280910  1  0  1.001963  0  1.870086  0  0  0.811739  0  2.340087  0  0  0.860444  0  2.28333  0  1.280223  0  0.68511  0.777807  0  2.379102  0
Zn  Zn2  1  0.77546909  0.40209762  0.15719040  1  0  1.001995  0  1.870005  0  0  0.811713  0  2.339988  0  0  0.860416  0  2.283248  0  1.280172  0  0.68508  0.777782  0  2.378991  0
Zn  Zn3  1  0.22450871  0.09791015  0.65719190  1  0  1.001893  0  1.870016  0  0  0.81165  0  2.340013  0  0  0.860365  0  2.283256  0  1.280266  0  0.685068  0.777714  0  2.379028  0
H  H4  1  0.00367765  0.60681899  0.70112923  1  0  0.041943  0  0.901724  0  0  0.054967  0  0.959377  0  0  0.056611  0  0.957862  0  0.048919  0  0.104818  0.053813  0  0.96062  0
H  H5  1  0.99633318  0.89318909  0.20113575  1  0  0.0418  0  0.901918  0  0  0.054866  0  0.959505  0  0  0.056503  0  0.957995  0  0.048909  0  0.104807  0.053715  0  0.960743  0
H  H6  1  0.99631024  0.39317775  0.29886576  1  0  0.041897  0  0.901847  0  0  0.054929  0  0.959428  0  0  0.056564  0  0.957914  0  0.048862  0  0.104816  0.053774  0  0.960672  0
H  H7  1  0.00366797  0.10681660  0.79886576  1  0  0.041835  0  0.901875  0  0  0.054885  0  0.959462  0  0  0.056521  0  0.957949  0  0.048867  0  0.104791  0.053734  0  0.960702  0
H  H8  1  0.68041677  0.65351347  0.68799796  1  0  0.10332  0  0.953525  0  0  0.115619  0  1.021541  0  0  0.117757  0  1.020916  0  0.06536  0  0.09984  0.114219  0  1.021934  0
H  H9  1  0.31959213  0.84648746  0.18799846  1  0  0.103245  0  0.953582  0  0  0.11562  0  1.021502  0  0  0.117764  0  1.020881  0  0.065311  0  0.099809  0.114221  0  1.021896  0
H  H10  1  0.31956913  0.34647522  0.31199954  1  0  0.103205  0  0.953643  0  0  0.115503  0  1.021653  0  0  0.117639  0  1.021041  0  0.065102  0  0.099799  0.114104  0  1.022047  0
H  H11  1  0.68041008  0.15351376  0.81200355  1  0  0.103277  0  0.953625  0  0  0.115641  0  1.021555  0  0  0.117786  0  1.020933  0  0.06532  0  0.099817  0.114242  0  1.021948  0
H  H12  1  0.69167197  0.50242484  0.71193087  1  0  0.125106  0  0.913636  0  0  0.140051  0  0.968192  0  0  0.143506  0  0.965924  0  0.093357  0  0.106271  0.137641  0  0.969858  0
H  H13  1  0.30834253  0.99757609  0.21193087  1  0  0.125191  0  0.913554  0  0  0.140094  0  0.968165  0  0  0.143554  0  0.965893  0  0.09329  0  0.106294  0.137682  0  0.969834  0
H  H14  1  0.30831813  0.49756385  0.28806963  1  0  0.125094  0  0.913738  0  0  0.139987  0  0.968343  0  0  0.143448  0  0.966072  0  0.093142  0  0.10622  0.137581  0  0.970003  0
H  H15  1  0.69166121  0.00242692  0.78807013  1  0  0.125229  0  0.913561  0  0  0.140104  0  0.968206  0  0  0.14356  0  0.96594  0  0.093326  0  0.10629  0.137694  0  0.969874  0
H  H16  1  0.15752713  0.80763620  0.93377223  1  0  0.093571  0  0.925345  0  0  0.103512  0  0.982259  0  0  0.106442  0  0.979523  0  0.150361  0  0.122873  0.101276  0  0.984379  0
H  H17  1  0.84248004  0.69236026  0.43376872  1  0  0.093507  0  0.925286  0  0  0.103468  0  0.98218  0  0  0.106396  0  0.979448  0  0.150275  0  0.122845  0.101234  0  0.984301  0
H  H18  1  0.84246968  0.19236770  0.06622827  1  0  0.093545  0  0.925288  0  0  0.103492  0  0.982216  0  0  0.106421  0  0.979482  0  0.150359  0  0.122874  0.101256  0  0.984338  0
H  H19  1  0.15752458  0.30763559  0.56622777  1  0  0.093502  0  0.925362  0  0  0.103469  0  0.982253  0  0  0.106397  0  0.979522  0  0.150385  0  0.122866  0.101234  0  0.984373  0
H  H20  1  0.13929467  0.84434848  0.05874366  1  0  0.099289  0  0.93907  0  0  0.112738  0  0.991269  0  0  0.115609  0  0.991128  0  0.067311  0  0.108559  0.110613  0  0.991587  0
H  H21  1  0.86072803  0.65564977  0.55874165  1  0  0.09927  0  0.939048  0  0  0.112704  0  0.991268  0  0  0.115572  0  0.991129  0  0.067293  0  0.108531  0.110578  0  0.991586  0
H  H22  1  0.86071347  0.15565721  0.94125684  1  0  0.099331  0  0.939067  0  0  0.112765  0  0.991283  0  0  0.115634  0  0.991144  0  0.067371  0  0.108571  0.110638  0  0.991601  0
H  H23  1  0.13928339  0.34434340  0.44125634  1  0  0.099314  0  0.939033  0  0  0.112727  0  0.991281  0  0  0.115597  0  0.99114  0  0.067351  0  0.108546  0.1106  0  0.991599  0
H  H24  1  0.18859821  0.67158749  0.13679805  1  0  0.110482  0  0.972184  0  0  0.118932  0  1.033245  0  0  0.122427  0  1.030522  0  0.139087  0  0.11017  0.116284  0  1.035304  0
H  H25  1  0.81141329  0.82841076  0.63679605  1  0  0.110377  0  0.972234  0  0  0.118852  0  1.033264  0  0  0.122341  0  1.030557  0  0.13921  0  0.110188  0.116207  0  1.035314  0
H  H26  1  0.81141853  0.32842088  0.86320295  1  0  0.110435  0  0.972293  0  0  0.118996  0  1.03322  0  0  0.122488  0  1.03051  0  0.139234  0  0.110209  0.116349  0  1.035275  0
H  H27  1  0.18858666  0.17157883  0.36320245  1  0  0.110417  0  0.972191  0  0  0.118925  0  1.033189  0  0  0.122416  0  1.030476  0  0.139154  0  0.110192  0.116261  0  1.03527  0
H  H28  1  0.25612836  0.47399216  0.08916077  1  0  0.133505  0  0.976283  0  0  0.139003  0  1.041425  0  0  0.143029  0  1.039221  0  0.175882  0  0.111922  0.136037  0  1.043213  0
H  H29  1  0.74387643  0.02600218  0.58915576  1  0  0.13358  0  0.97636  0  0  0.138977  0  1.041575  0  0  0.143003  0  1.039373  0  0.175824  0  0.11193  0.136015  0  1.043355  0
H  H30  1  0.74389105  0.52601442  0.91084073  1  0  0.133553  0  0.976175  0  0  0.138985  0  1.041373  0  0  0.143005  0  1.039181  0  0.175656  0  0.111934  0.136023  0  1.04315  0
H  H31  1  0.25611652  0.97398741  0.41084324  1  0  0.133617  0  0.976269  0  0  0.139029  0  1.041459  0  0  0.143054  0  1.039256  0  0.175671  0  0.111955  0.136066  0  1.043243  0
H  H32  1  0.31941385  0.31499414  0.04201468  1  0  0.135251  0  0.947747  0  0  0.144786  0  1.005997  0  0  0.148558  0  1.003838  0  0.167817  0  0.115901  0.142038  0  1.007698  0
H  H33  1  0.68058802  0.18499842  0.54201417  1  0  0.135272  0  0.947741  0  0  0.144797  0  1.006004  0  0  0.14857  0  1.003844  0  0.167833  0  0.11591  0.142047  0  1.007706  0
H  H34  1  0.68059237  0.68500439  0.95798332  1  0  0.135201  0  0.947794  0  0  0.144765  0  1.005989  0  0  0.148539  0  1.003828  0  0.167784  0  0.1159  0.142  0  1.007711  0
H  H35  1  0.31941913  0.81499386  0.45798833  1  0  0.135156  0  0.947902  0  0  0.144796  0  1.006012  0  0  0.148569  0  1.003853  0  0.167907  0  0.115914  0.142041  0  1.007723  0
H  H36  1  0.36368557  0.12885022  0.97661441  1  0  0.089028  0  0.926223  0  0  0.105374  0  0.973865  0  0  0.107831  0  0.972748  0  0.084648  0  0.109973  0.103568  0  0.974721  0
H  H37  1  0.63630970  0.37114770  0.47661691  1  0  0.089099  0  0.926041  0  0  0.10539  0  0.973746  0  0  0.107848  0  0.97263  0  0.084639  0  0.109964  0.103584  0  0.974602  0
H  H38  1  0.63632118  0.87115546  0.02338108  1  0  0.089  0  0.926102  0  0  0.105334  0  0.973775  0  0  0.107791  0  0.972657  0  0.084572  0  0.109935  0.103528  0  0.974631  0
H  H39  1  0.36370638  0.62885173  0.52338860  1  0  0.089024  0  0.926173  0  0  0.105348  0  0.973842  0  0  0.107804  0  0.972726  0  0.084518  0  0.109937  0.103542  0  0.974698  0
H  H40  1  0.35392529  0.13728900  0.84923515  1  0  0.12212  0  0.954597  0  0  0.129406  0  1.014846  0  0  0.133489  0  1.012701  0  0.141528  0  0.111963  0.126406  0  1.016601  0
H  H41  1  0.64606471  0.36271340  0.34923515  1  0  0.122172  0  0.95443  0  0  0.129439  0  1.014712  0  0  0.133523  0  1.012564  0  0.141666  0  0.111953  0.126433  0  1.016476  0
H  H42  1  0.64608319  0.86272116  0.15076234  1  0  0.122072  0  0.954509  0  0  0.129317  0  1.014811  0  0  0.133398  0  1.012667  0  0.141272  0  0.111918  0.126317  0  1.016564  0
H  H43  1  0.35393764  0.63728961  0.65076836  1  0  0.122203  0  0.95475  0  0  0.129511  0  1.014937  0  0  0.133595  0  1.01279  0  0.141799  0  0.111977  0.126508  0  1.016697  0
H  H44  1  0.30404137  0.33366728  0.79506105  1  0  0.097866  0  0.917993  0  0  0.106996  0  0.976544  0  0  0.109568  0  0.974812  0  0.093066  0  0.126965  0.104978  0  0.978007  0
H  H45  1  0.69595836  0.16633422  0.29505854  1  0  0.097761  0  0.917859  0  0  0.106985  0  0.976352  0  0  0.109565  0  0.974617  0  0.093073  0  0.126939  0.104963  0  0.977816  0
H  H46  1  0.69596424  0.66634198  0.20493995  1  0  0.097791  0  0.918008  0  0  0.10695  0  0.976538  0  0  0.109526  0  0.974803  0  0.093106  0  0.126963  0.104929  0  0.978002  0
H  H47  1  0.30403253  0.83366521  0.70494296  1  0  0.097827  0  0.918018  0  0  0.107035  0  0.976479  0  0  0.109628  0  0.974745  0  0.092967  0  0.12699  0.105015  0  0.977944  0
H  H48  1  0.96187019  0.44817151  0.77690511  1  0  0.394369  0  0.914639  0  0  0.363836  0  0.990017  0  0  0.376097  0  0.972589  0  0.650339  0  0.296114  0.355271  0  1.000008  0
H  H49  1  0.03812953  0.05183000  0.27690712  1  0  0.394445  0  0.914606  0  0  0.363938  0  0.989893  0  0  0.376194  0  0.972471  0  0.650376  0  0.296167  0.355371  0  0.999945  0
H  H50  1  0.03813049  0.55182792  0.22309339  1  0  0.394396  0  0.914613  0  0  0.363883  0  0.989952  0  0  0.376142  0  0.972524  0  0.650326  0  0.296165  0.355317  0  0.999961  0
H  H51  1  0.96186009  0.94817122  0.72309138  1  0  0.394523  0  0.914462  0  0  0.363946  0  0.989881  0  0  0.37621  0  0.972447  0  0.650416  0  0.296182  0.355379  0  0.999925  0
C  C52  1  0.92092513  0.61658747  0.74778915  1  0  0.144945  0  3.65961  0  0  0.120395  0  3.90927  0  0  0.123455  0  3.917209  0  0.434021  0  -0.005831  0.118101  0  3.90386  0
C  C53  1  0.07908390  0.88341525  0.24779266  1  0  0.145052  0  3.659672  0  0  0.120627  0  3.909182  0  0  0.123708  0  3.917111  0  0.433937  0  -0.005783  0.118331  0  3.903776  0
C  C54  1  0.07906855  0.38341196  0.25220734  1  0  0.144938  0  3.659939  0  0  0.120535  0  3.909277  0  0  0.123625  0  3.91721  0  0.434203  0  -0.005789  0.11824  0  3.90387  0
C  C55  1  0.92091571  0.11658865  0.75220985  1  0  0.145006  0  3.659714  0  0  0.120613  0  3.909132  0  0  0.123701  0  3.917066  0  0.434018  0  -0.005765  0.118317  0  3.903729  0
C  C56  1  0.97247899  0.74369844  0.77188145  1  0  0.641047  0  3.873915  0  0  0.58567  0  4.18695  0  0  0.618884  0  4.17943  0  1.617526  0  0.206979  0.563063  0  4.19139  0
C  C57  1  0.02752878  0.75630607  0.27188396  1  0  0.641192  0  3.873345  0  0  0.585639  0  4.186642  0  0  0.618841  0  4.179136  0  1.617554  0  0.206922  0.563034  0  4.191081  0
C  C58  1  0.02750116  0.25630725  0.22811103  1  0  0.640668  0  3.874188  0  0  0.585254  0  4.18717  0  0  0.618465  0  4.179649  0  1.617706  0  0.206786  0.562649  0  4.191603  0
C  C59  1  0.97247344  0.24369515  0.72811905  1  0  0.64121  0  3.87338  0  0  0.58571  0  4.186536  0  0  0.618909  0  4.179033  0  1.617653  0  0.207028  0.563104  0  4.190977  0
C  C60  1  0.71522223  0.59488918  0.72992041  1  0  -0.317571  0  3.687419  0  0  -0.362235  0  3.936497  0  0  -0.368089  0  3.942242  0  -0.034837  0  -0.169659  -0.358179  0  3.932452  0
C  C61  1  0.28478534  0.90511265  0.22992091  1  0  -0.317713  0  3.687416  0  0  -0.36241  0  3.936416  0  0  -0.368287  0  3.942188  0  -0.034666  0  -0.169687  -0.358354  0  3.932374  0
C  C62  1  0.28476959  0.40510399  0.27007809  1  0  -0.317363  0  3.687649  0  0  -0.362051  0  3.936619  0  0  -0.36793  0  3.942394  0  -0.034406  0  -0.169582  -0.357996  0  3.932574  0
C  C63  1  0.71521415  0.09488946  0.77008060  1  0  -0.317692  0  3.68742  0  0  -0.362398  0  3.936488  0  0  -0.368276  0  3.942259  0  -0.035077  0  -0.169655  -0.358343  0  3.932445  0
C  C64  1  0.57475527  0.61512989  0.78573097  1  0  0.707596  0  3.842222  0  0  0.664941  0  4.136497  0  0  0.698114  0  4.12996  0  1.544719  0  0.201529  0.642363  0  4.140082  0
C  C65  1  0.42525223  0.88487104  0.28573097  1  0  0.707685  0  3.842052  0  0  0.665014  0  4.136361  0  0  0.698189  0  4.129827  0  1.544679  0  0.201567  0.642437  0  4.139948  0
C  C66  1  0.42523808  0.38486507  0.21426903  1  0  0.707609  0  3.842334  0  0  0.664998  0  4.136516  0  0  0.698177  0  4.129974  0  1.544729  0  0.201535  0.64242  0  4.140106  0
C  C67  1  0.57474439  0.11513018  0.71427204  1  0  0.707726  0  3.84199  0  0  0.665043  0  4.136332  0  0  0.698221  0  4.129793  0  1.545028  0  0.201585  0.642465  0  4.139918  0
C  C68  1  0.18068415  0.73763919  0.97052116  1  0  0.133841  0  3.708265  0  0  0.102647  0  3.956549  0  0  0.109513  0  3.975201  0  0.471121  0  0.053932  0.098212  0  3.943929  0
C  C69  1  0.81931749  0.76235817  0.47051815  1  0  0.133975  0  3.708103  0  0  0.102775  0  3.956406  0  0  0.109639  0  3.97505  0  0.471109  0  0.053993  0.098336  0  3.943793  0
C  C70  1  0.81931273  0.26236561  0.02947984  1  0  0.133976  0  3.707936  0  0  0.102748  0  3.956263  0  0  0.10961  0  3.974911  0  0.471076  0  0.053999  0.098307  0  3.943647  0
C  C71  1  0.18068279  0.23763590  0.52947934  1  0  0.133944  0  3.708207  0  0  0.102712  0  3.956523  0  0  0.109577  0  3.975171  0  0.471076  0  0.053973  0.098273  0  3.943907  0
C  C72  1  0.17033601  0.75638834  0.03938882  1  0  -0.130907  0  3.761309  0  0  -0.144737  0  4.017719  0  0  -0.152719  0  4.041285  0  -0.06484  0  -0.084428  -0.139606  0  4.001895  0
C  C73  1  0.82966696  0.74360812  0.53938682  1  0  -0.130991  0  3.761156  0  0  -0.144809  0  4.017598  0  0  -0.152786  0  4.041158  0  -0.064872  0  -0.08446  -0.139678  0  4.001776  0
C  C74  1  0.82966660  0.24361824  0.96061068  1  0  -0.1309  0  3.761144  0  0  -0.144689  0  4.017609  0  0  -0.152667  0  4.041178  0  -0.064629  0  -0.084407  -0.139556  0  4.001784  0
C  C75  1  0.17033173  0.25638326  0.46061018  1  0  -0.13086  0  3.761111  0  0  -0.144633  0  4.017566  0  0  -0.152611  0  4.041129  0  -0.064668  0  -0.084376  -0.1395  0  4.001735  0
C  C76  1  0.19792376  0.66063953  0.08250767  1  0  0.00916  0  3.680678  0  0  -0.012572  0  3.936345  0  0  -0.008821  0  3.954716  0  -0.045219  0  -0.064025  -0.014783  0  3.923963  0
C  C77  1  0.80208361  0.83935962  0.58250416  1  0  0.009344  0  3.680479  0  0  -0.012416  0  3.936153  0  0  -0.008667  0  3.95452  0  -0.0452  0  -0.063999  -0.014626  0  3.923773  0
C  C78  1  0.80208891  0.33937063  0.91749333  1  0  0.009118  0  3.68061  0  0  -0.012771  0  3.936383  0  0  -0.009011  0  3.954717  0  -0.045336  0  -0.06413  -0.014982  0  3.924004  0
C  C79  1  0.19791348  0.16062908  0.41749384  1  0  0.009204  0  3.680504  0  0  -0.012626  0  3.936188  0  0  -0.008877  0  3.954555  0  -0.045242  0  -0.064051  -0.014826  0  3.923813  0
C  C80  1  0.23501259  0.54927760  0.05562712  1  0  -0.128136  0  3.639243  0  0  -0.14957  0  3.892377  0  0  -0.156563  0  3.912396  0  0.040038  0  -0.075116  -0.145098  0  3.87912  0
C  C81  1  0.76498784  0.95072244  0.55562511  1  0  -0.12816  0  3.639298  0  0  -0.149476  0  3.892383  0  0  -0.156466  0  3.912398  0  0.040195  0  -0.075102  -0.145009  0  3.879118  0
C  C82  1  0.76500274  0.45073077  0.94437288  1  0  -0.128128  0  3.638992  0  0  -0.149489  0  3.892181  0  0  -0.156476  0  3.9122  0  0.040102  0  -0.075098  -0.145022  0  3.878919  0
C  C83  1  0.23500365  0.04926626  0.44437539  1  0  -0.128241  0  3.639138  0  0  -0.149565  0  3.892302  0  0  -0.156553  0  3.912316  0  0.040179  0  -0.075167  -0.145102  0  3.879038  0
C  C84  1  0.24425771  0.53675045  0.98591040  1  0  0.174867  0  3.746868  0  0  0.168446  0  3.989373  0  0  0.175083  0  4.010583  0  0.403975  0  0.121422  0.164019  0  3.975005  0
C  C85  1  0.75574086  0.96324333  0.48590589  1  0  0.174911  0  3.746915  0  0  0.168515  0  3.989376  0  0  0.17515  0  4.010578  0  0.403643  0  0.121507  0.164123  0  3.974992  0
C  C86  1  0.75574336  0.46325435  0.01409060  1  0  0.174854  0  3.746737  0  0  0.168436  0  3.989222  0  0  0.175068  0  4.010429  0  0.404222  0  0.121438  0.164027  0  3.974827  0
C  C87  1  0.24425656  0.03674984  0.51409411  1  0  0.174869  0  3.746841  0  0  0.168457  0  3.9893  0  0  0.175092  0  4.010506  0  0.40363  0  0.12144  0.16405  0  3.974908  0
C  C88  1  0.28014099  0.42171059  0.95237926  1  0  0.170138  0  3.763866  0  0  0.166435  0  4.005065  0  0  0.172159  0  4.026841  0  0.495056  0  0.120859  0.162708  0  3.990213  0
C  C89  1  0.71985967  0.07828466  0.45237775  1  0  0.170019  0  3.763916  0  0  0.16627  0  4.005153  0  0  0.171997  0  4.02693  0  0.495077  0  0.120724  0.162487  0  3.990366  0
C  C90  1  0.71986416  0.57829242  0.04762074  1  0  0.170173  0  3.763704  0  0  0.166436  0  4.004907  0  0  0.172168  0  4.026672  0  0.495026  0  0.120831  0.162703  0  3.990053  0
C  C91  1  0.28014215  0.92171120  0.54762425  1  0  0.170207  0  3.7638  0  0  0.166479  0  4.005022  0  0  0.172213  0  4.026783  0  0.495203  0  0.120895  0.162745  0  3.990167  0
C  C92  1  0.31306328  0.31611728  0.98738898  1  0  -0.139684  0  3.671566  0  0  -0.1599  0  3.92045  0  0  -0.166589  0  3.942066  0  -0.038396  0  -0.075358  -0.155493  0  3.905837  0
C  C93  1  0.68693751  0.18387975  0.48738898  1  0  -0.139577  0  3.671518  0  0  -0.159759  0  3.920354  0  0  -0.166456  0  3.941982  0  -0.038398  0  -0.075301  -0.155334  0  3.905754  0
C  C94  1  0.68694059  0.68388751  0.01261052  1  0  -0.139752  0  3.671749  0  0  -0.159948  0  3.920583  0  0  -0.166636  0  3.942191  0  -0.038404  0  -0.075386  -0.155529  0  3.905983  0
C  C95  1  0.31306158  0.81611700  0.51261453  1  0  -0.139569  0  3.671565  0  0  -0.159839  0  3.92041  0  0  -0.166531  0  3.942024  0  -0.038491  0  -0.075382  -0.155427  0  3.9058  0
C  C96  1  0.33894943  0.21227398  0.95049470  1  0  -0.011782  0  3.752785  0  0  -0.029562  0  4.003374  0  0  -0.027244  0  4.024081  0  -0.052049  0  -0.067493  -0.030824  0  3.989194  0
C  C97  1  0.66105237  0.28771769  0.45049369  1  0  -0.011879  0  3.752957  0  0  -0.029616  0  4.003529  0  0  -0.027297  0  4.024234  0  -0.051949  0  -0.067498  -0.030875  0  3.989338  0
C  C98  1  0.66105552  0.78772635  0.04950380  1  0  -0.011717  0  3.753091  0  0  -0.029543  0  4.003663  0  0  -0.027225  0  4.024372  0  -0.052122  0  -0.067481  -0.030804  0  3.989477  0
C  C99  1  0.33896192  0.71227637  0.54950931  1  0  -0.011808  0  3.752754  0  0  -0.029596  0  4.003377  0  0  -0.027274  0  4.024079  0  -0.051791  0  -0.067487  -0.030858  0  3.989191  0
C  C100  1  0.33442253  0.21566844  0.88054091  1  0  -0.126614  0  3.717574  0  0  -0.13965  0  3.973058  0  0  -0.14706  0  3.995034  0  -0.07339  0  -0.080093  -0.134953  0  3.958518  0
C  C101  1  0.66557387  0.28432591  0.38054191  1  0  -0.126698  0  3.717776  0  0  -0.139724  0  3.973286  0  0  -0.147134  0  3.995265  0  -0.073468  0  -0.080095  -0.135024  0  3.958742  0
C  C102  1  0.66558681  0.78433456  0.11945558  1  0  -0.126493  0  3.717722  0  0  -0.139444  0  3.973138  0  0  -0.146853  0  3.99512  0  -0.073534  0  -0.079958  -0.134748  0  3.958594  0
C  C103  1  0.33442929  0.71566905  0.61946410  1  0  -0.126776  0  3.717907  0  0  -0.139818  0  3.973383  0  0  -0.147228  0  3.995361  0  -0.0741  0  -0.08008  -0.135118  0  3.958841  0
C  C104  1  0.30545009  0.32503178  0.84957748  1  0  0.155122  0  3.663565  0  0  0.121537  0  3.917888  0  0  0.12797  0  3.936567  0  0.557798  0  0.061112  0.117317  0  3.905411  0
C  C105  1  0.69454937  0.17496614  0.34958048  1  0  0.155224  0  3.663823  0  0  0.121553  0  3.918122  0  0  0.127978  0  3.936816  0  0.557635  0  0.061092  0.117339  0  3.905634  0
C  C106  1  0.69455119  0.67497569  0.15041952  1  0  0.15522  0  3.663834  0  0  0.12159  0  3.918087  0  0  0.128019  0  3.936772  0  0.558198  0  0.06117  0.117373  0  3.905606  0
C  C107  1  0.30544565  0.82503239  0.65042453  1  0  0.155272  0  3.663811  0  0  0.121629  0  3.918101  0  0  0.128037  0  3.93681  0  0.559176  0  0.061133  0.117413  0  3.905619  0
N  N108  1  0.21728555  0.63058562  0.94470318  1  0  -0.350253  0  3.296409  0  0  -0.272626  0  3.568397  0  0  -0.291286  0  3.582324  0  -1.240275  0  -0.320652  -0.260193  0  3.559089  0
N  N109  1  0.78271169  0.86940905  0.44470068  1  0  -0.350373  0  3.296449  0  0  -0.272784  0  3.568476  0  0  -0.291436  0  3.582393  0  -1.240064  0  -0.320737  -0.260363  0  3.559168  0
N  N110  1  0.78271133  0.36941917  0.05529732  1  0  -0.350365  0  3.296274  0  0  -0.272729  0  3.568302  0  0  -0.291384  0  3.582226  0  -1.240517  0  -0.320696  -0.260298  0  3.558986  0
N  N111  1  0.21728586  0.13058591  0.55529832  1  0  -0.350358  0  3.296486  0  0  -0.272729  0  3.568489  0  0  -0.291389  0  3.58242  0  -1.240052  0  -0.320705  -0.260301  0  3.559174  0
N  N112  1  0.27715503  0.42440577  0.88476964  1  0  -0.349843  0  3.2635  0  0  -0.278825  0  3.528603  0  0  -0.296616  0  3.545074  0  -1.263318  0  -0.314932  -0.266874  0  3.517463  0
N  N113  1  0.72285136  0.07559126  0.38476714  1  0  -0.349825  0  3.263858  0  0  -0.278785  0  3.529002  0  0  -0.296565  0  3.545446  0  -1.263275  0  -0.314833  -0.266817  0  3.517876  0
N  N114  1  0.72284598  0.57559813  0.11523136  1  0  -0.349891  0  3.263542  0  0  -0.278858  0  3.528637  0  0  -0.296646  0  3.5451  0  -1.263194  0  -0.315016  -0.266908  0  3.517499  0
N  N115  1  0.27715052  0.92440549  0.61523437  1  0  -0.34993  0  3.263743  0  0  -0.278935  0  3.528923  0  0  -0.296723  0  3.54538  0  -1.264487  0  -0.314996  -0.266985  0  3.517782  0
O  O116  1  0.98211740  0.53336850  0.79625093  1  0  -0.58471  0  2.202848  0  0  -0.512514  0  2.46002  0  0  -0.533075  0  2.441324  0  -1.165409  0  -0.393192  -0.497896  0  2.471029  0
O  O117  1  0.01790830  0.96663243  0.29625744  1  0  -0.584804  0  2.202862  0  0  -0.512677  0  2.459913  0  0  -0.533241  0  2.441225  0  -1.165264  0  -0.393294  -0.498055  0  2.470963  0
O  O118  1  0.01788475  0.46663182  0.20374657  1  0  -0.584758  0  2.20299  0  0  -0.512631  0  2.460091  0  0  -0.533203  0  2.441402  0  -1.165406  0  -0.393285  -0.498012  0  2.471114  0
O  O119  1  0.98209558  0.03337236  0.70374456  1  0  -0.584909  0  2.202823  0  0  -0.512687  0  2.459855  0  0  -0.533266  0  2.441162  0  -1.165298  0  -0.393307  -0.498065  0  2.470903  0
O  O120  1  0.09824863  0.75855951  0.81666483  1  0  -0.626395  0  1.995352  0  0  -0.566843  0  2.250711  0  0  -0.592333  0  2.234675  0  -1.182819  0  -0.329715  -0.548991  0  2.26118  0
O  O121  1  0.90176767  0.74144679  0.31666834  1  0  -0.626371  0  1.995333  0  0  -0.566826  0  2.25085  0  0  -0.592311  0  2.234814  0  -1.182861  0  -0.329655  -0.548972  0  2.261312  0
O  O122  1  0.90172839  0.24144171  0.18333166  1  0  -0.626063  0  1.995545  0  0  -0.566455  0  2.250855  0  0  -0.591943  0  2.23482  0  -1.183261  0  -0.329475  -0.548599  0  2.26131  0
O  O123  1  0.09823354  0.25855980  0.68333617  1  0  -0.626341  0  1.995264  0  0  -0.566801  0  2.250704  0  0  -0.592282  0  2.234669  0  -1.182894  0  -0.329682  -0.54895  0  2.261173  0
O  O124  1  0.89215608  0.82592751  0.74111149  1  0  -0.618493  0  2.035349  0  0  -0.565865  0  2.264707  0  0  -0.591734  0  2.254627  0  -1.204115  0  -0.318995  -0.547765  0  2.270558  0
O  O125  1  0.10785429  0.67407432  0.24111349  1  0  -0.618544  0  2.034885  0  0  -0.565858  0  2.264289  0  0  -0.591724  0  2.254217  0  -1.203986  0  -0.319  -0.547759  0  2.270133  0
O  O126  1  0.10782908  0.17407013  0.25887949  1  0  -0.618455  0  2.035263  0  0  -0.565851  0  2.264567  0  0  -0.591718  0  2.254493  0  -1.203758  0  -0.319026  -0.547747  0  2.270417  0
O  O127  1  0.89213813  0.32592690  0.75888951  1  0  -0.61863  0  2.034927  0  0  -0.565972  0  2.264331  0  0  -0.591842  0  2.254261  0  -1.204112  0  -0.319108  -0.547871  0  2.270171  0
O  O128  1  0.40241117  0.59240414  0.76717556  1  0  -0.671557  0  2.020293  0  0  -0.598102  0  2.283796  0  0  -0.628258  0  2.269424  0  -1.16763  0  -0.346172  -0.576821  0  2.292748  0
O  O129  1  0.59760066  0.90759858  0.26717556  1  0  -0.671542  0  2.020327  0  0  -0.598054  0  2.283825  0  0  -0.62821  0  2.269453  0  -1.167662  0  -0.346165  -0.576773  0  2.292776  0
O  O130  1  0.59757972  0.40759529  0.23282544  1  0  -0.671548  0  2.020304  0  0  -0.598078  0  2.283757  0  0  -0.628231  0  2.26938  0  -1.16756  0  -0.346111  -0.5768  0  2.292713  0
O  O131  1  0.40239582  0.09240085  0.73282895  1  0  -0.671508  0  2.020188  0  0  -0.598057  0  2.283744  0  0  -0.628214  0  2.269373  0  -1.167722  0  -0.346173  -0.576775  0  2.292693  0
O  O132  1  0.62290035  0.64923909  0.84313388  1  0  -0.628593  0  1.892233  0  0  -0.584007  0  2.111565  0  0  -0.606143  0  2.100691  0  -1.190039  0  -0.330636  -0.568239  0  2.118402  0
O  O133  1  0.37710949  0.85075558  0.34313138  1  0  -0.62861  0  1.892125  0  0  -0.584067  0  2.111517  0  0  -0.606202  0  2.100643  0  -1.189985  0  -0.330663  -0.568296  0  2.118352  0
O  O134  1  0.37710034  0.35076034  0.15686461  1  0  -0.628629  0  1.892246  0  0  -0.584089  0  2.111575  0  0  -0.606226  0  2.100698  0  -1.190123  0  -0.330682  -0.56832  0  2.118412  0
O  O135  1  0.62288426  0.14924474  0.65687063  1  0  -0.628644  0  1.89208  0  0  -0.58407  0  2.111477  0  0  -0.606202  0  2.100593  0  -1.189961  0  -0.330647  -0.568303  0  2.118317  0
