# generated using pymatgen
data_NaH27C20N6O11
_symmetry_space_group_name_H-M   'P 1'
_cell_length_a   8.36759779
_cell_length_b   11.35931536
_cell_length_c   12.79478887
_cell_angle_alpha   87.31727360
_cell_angle_beta   88.35542753
_cell_angle_gamma   79.45268230
_symmetry_Int_Tables_number   1
_chemical_formula_structural   NaH27C20N6O11
_chemical_formula_sum   'Na2 H54 C40 N12 O22'
_cell_volume   1194.03776135
_cell_formula_units_Z   2
loop_
 _symmetry_equiv_pos_site_id
 _symmetry_equiv_pos_as_xyz
  1  'x, y, z'
loop_
 _atom_site_type_symbol
 _atom_site_label
 _atom_site_symmetry_multiplicity
 _atom_site_fract_x
 _atom_site_fract_y
 _atom_site_fract_z
 _atom_site_occupancy
 _atom_site_hle17_bader_spin_density
 _atom_site_hle17_ddec_charge
 _atom_site_hle17_ddec_spin_density
 _atom_site_hle17_ddec_sum_bond_order
 _atom_site_hle17_magmom
 _atom_site_hse06_10hf_bader_spin_density
 _atom_site_hse06_10hf_ddec_charge
 _atom_site_hse06_10hf_ddec_spin_density
 _atom_site_hse06_10hf_ddec_sum_bond_order
 _atom_site_hse06_10hf_magmom
 _atom_site_hse06_bader_spin_density
 _atom_site_hse06_ddec_charge
 _atom_site_hse06_ddec_spin_density
 _atom_site_hse06_ddec_sum_bond_order
 _atom_site_hse06_magmom
 _atom_site_pbe_bader_spin_density
 _atom_site_pbe_cm5_charge
 _atom_site_pbe_ddec_charge
 _atom_site_pbe_ddec_spin_density
 _atom_site_pbe_ddec_sum_bond_order
 _atom_site_pbe_magmom
Na  Na0  1  0.21020770  0.80333148  0.74785233  1  0  0.904597  0  0.390998  0  0  0.864705  0  0.542436  0  0  0.874181  0  0.521461  0  0  0.701222  0.85654  0  0.559656  0
Na  Na1  1  0.78979209  0.19666911  0.25214761  1  0  0.904592  0  0.390982  0  0  0.864698  0  0.54242  0  0  0.874187  0  0.521453  0  0  0.701206  0.85652  0  0.559653  0
H  H2  1  0.91153037  0.94141976  0.82445395  1  0  0.364414  0  0.92307  0  0  0.344623  0  0.989941  0  0  0.352788  0  0.980735  0  0  0.300072  0.339027  0  0.996151  0
H  H3  1  0.08846865  0.05857905  0.17554530  1  0  0.364394  0  0.923175  0  0  0.34461  0  0.99004  0  0  0.352783  0  0.980824  0  0  0.300076  0.339022  0  0.996234  0
H  H4  1  0.11261643  0.64044459  0.89166105  1  0  0.360797  0  0.949633  0  0  0.337868  0  1.02038  0  0  0.347647  0  1.006927  0  0  0.291536  0.330087  0  1.029132  0
H  H5  1  0.88738097  0.35955601  0.10833815  1  0  0.360831  0  0.949598  0  0  0.337897  0  1.020345  0  0  0.347673  0  1.006891  0  0  0.291545  0.330118  0  1.029089  0
H  H6  1  0.48461729  0.13475076  0.34257515  1  0  0.154262  0  0.941895  0  0  0.155836  0  1.011581  0  0  0.161943  0  1.00704  0  0  0.137807  0.151424  0  1.014833  0
H  H7  1  0.51538348  0.86525073  0.65742552  1  0  0.154317  0  0.941865  0  0  0.15589  0  1.011567  0  0  0.161996  0  1.007011  0  0  0.137838  0.15148  0  1.014816  0
H  H8  1  0.21623518  0.80520372  0.47018489  1  0  0.119657  0  0.938078  0  0  0.138244  0  0.999603  0  0  0.14022  0  0.997708  0  0  0.11827  0.136618  0  1.001387  0
H  H9  1  0.78376363  0.19479598  0.52981511  1  0  0.119639  0  0.938078  0  0  0.138234  0  0.999594  0  0  0.140209  0  0.997699  0  0  0.118263  0.136614  0  1.001366  0
H  H10  1  0.06241288  0.88623553  0.38674978  1  0  0.109295  0  0.926459  0  0  0.131443  0  0.985766  0  0  0.131455  0  0.986298  0  0  0.110415  0.131577  0  0.985084  0
H  H11  1  0.93758452  0.11376507  0.61325021  1  0  0.109286  0  0.926446  0  0  0.131437  0  0.985753  0  0  0.131448  0  0.986286  0  0  0.110412  0.131572  0  0.98507  0
H  H12  1  0.25763932  0.82910007  0.33291199  1  0  0.112277  0  0.95086  0  0  0.129182  0  1.019078  0  0  0.130646  0  1.017649  0  0  0.113167  0.127757  0  1.02074  0
H  H13  1  0.74235950  0.17089963  0.66708645  1  0  0.11225  0  0.950924  0  0  0.129162  0  1.019132  0  0  0.13062  0  1.017708  0  0  0.113141  0.12774  0  1.02079  0
H  H14  1  0.41234343  0.19589158  0.66632284  1  0  0.120898  0  0.93535  0  0  0.140787  0  0.995411  0  0  0.141886  0  0.994741  0  0  0.113325  0.139805  0  0.996246  0
H  H15  1  0.58765440  0.80410723  0.33367721  1  0  0.120868  0  0.935334  0  0  0.14076  0  0.995417  0  0  0.14186  0  0.994743  0  0  0.1133  0.13978  0  0.996251  0
H  H16  1  0.20242262  0.19244169  0.68481403  1  0  0.111021  0  0.928319  0  0  0.131677  0  0.992331  0  0  0.13224  0  0.991706  0  0  0.11184  0.131065  0  0.993177  0
H  H17  1  0.79757597  0.80755891  0.31518594  1  0  0.110974  0  0.928309  0  0  0.131633  0  0.99234  0  0  0.132197  0  0.991712  0  0  0.111817  0.131022  0  0.993185  0
H  H18  1  0.34941289  0.05857864  0.70841330  1  0  0.127761  0  0.961228  0  0  0.142332  0  1.029994  0  0  0.144172  0  1.028687  0  0  0.116268  0.140817  0  1.031197  0
H  H19  1  0.65058571  0.94142196  0.29158823  1  0  0.127763  0  0.961202  0  0  0.142345  0  1.029966  0  0  0.144186  0  1.028659  0  0  0.116264  0.140838  0  1.031158  0
H  H20  1  0.54490290  0.53738320  0.25008305  1  0  0.111969  0  0.951687  0  0  0.130863  0  1.015025  0  0  0.132099  0  1.014433  0  0  0.113384  0.129122  0  1.017293  0
H  H21  1  0.45509732  0.46261561  0.74991696  1  0  0.111907  0  0.951687  0  0  0.1308  0  1.015033  0  0  0.132037  0  1.014439  0  0  0.113349  0.129057  0  1.017312  0
H  H22  1  0.36905606  0.65354111  0.24695852  1  0  0.110535  0  0.941884  0  0  0.127882  0  1.00701  0  0  0.129498  0  1.005432  0  0  0.110321  0.126648  0  1.007995  0
H  H23  1  0.63094297  0.34645769  0.75304073  1  0  0.110586  0  0.941824  0  0  0.127909  0  1.006973  0  0  0.129525  0  1.005392  0  0  0.110328  0.126678  0  1.007957  0
H  H24  1  0.46434429  0.60306705  0.36871277  1  0  0.112115  0  0.917721  0  0  0.135337  0  0.972622  0  0  0.136033  0  0.972292  0  0  0.109574  0.134825  0  0.972837  0
H  H25  1  0.53565452  0.39693265  0.63128645  1  0  0.112102  0  0.917729  0  0  0.135316  0  0.972638  0  0  0.136014  0  0.972305  0  0  0.109561  0.134804  0  0.972851  0
H  H26  1  0.86125857  0.41131503  0.42887671  1  0  0.112445  0  0.924546  0  0  0.132512  0  0.983643  0  0  0.133663  0  0.982787  0  0  0.113591  0.130954  0  0.985317  0
H  H27  1  0.13873970  0.58868198  0.57112341  1  0  0.11246  0  0.924559  0  0  0.132529  0  0.983655  0  0  0.133679  0  0.982803  0  0  0.113614  0.130969  0  0.985333  0
H  H28  1  0.88098550  0.56479648  0.40138364  1  0  0.11909  0  0.952882  0  0  0.133389  0  1.021325  0  0  0.135547  0  1.019568  0  0  0.109405  0.13173  0  1.022403  0
H  H29  1  0.11901375  0.43520143  0.59861564  1  0  0.119052  0  0.952894  0  0  0.133345  0  1.021349  0  0  0.135504  0  1.01959  0  0  0.109383  0.131687  0  1.022427  0
H  H30  1  0.82204400  0.47724932  0.30114193  1  0  0.11111  0  0.926536  0  0  0.132861  0  0.9861  0  0  0.133665  0  0.985599  0  0  0.115162  0.130812  0  0.989049  0
H  H31  1  0.17795503  0.52274949  0.69885732  1  0  0.111112  0  0.926568  0  0  0.132883  0  0.9861  0  0  0.133688  0  0.985596  0  0  0.115157  0.130833  0  0.989059  0
H  H32  1  0.63433887  0.11311896  0.89798001  1  0  0.11904  0  0.958187  0  0  0.135645  0  1.022545  0  0  0.13808  0  1.02029  0  0  0.108759  0.133699  0  1.024314  0
H  H33  1  0.36566331  0.88688163  0.10201989  1  0  0.118956  0  0.958274  0  0  0.135578  0  1.022609  0  0  0.138015  0  1.020345  0  0  0.108728  0.133633  0  1.024376  0
H  H34  1  0.73836363  0.15251319  0.00953139  1  0  0.105009  0  0.955698  0  0  0.12229  0  1.023373  0  0  0.123671  0  1.022412  0  0  0.108322  0.12144  0  1.023777  0
H  H35  1  0.26163714  0.84748830  0.99046849  1  0  0.105034  0  0.955661  0  0  0.122311  0  1.023348  0  0  0.123691  0  1.022383  0  0  0.108327  0.121459  0  1.023747  0
H  H36  1  0.65976662  0.01711645  0.01339604  1  0  0.102099  0  0.948412  0  0  0.121691  0  1.011137  0  0  0.122232  0  1.011413  0  0  0.105626  0.120705  0  1.011431  0
H  H37  1  0.34023437  0.98288414  0.98660388  1  0  0.102131  0  0.948404  0  0  0.121697  0  1.011166  0  0  0.122236  0  1.011446  0  0  0.105645  0.120708  0  1.011465  0
H  H38  1  0.13708627  0.32064013  0.84427024  1  0  0.112997  0  0.955961  0  0  0.132414  0  1.017983  0  0  0.134253  0  1.016886  0  0  0.110708  0.13105  0  1.018754  0
H  H39  1  0.86291331  0.67936137  0.15572889  1  0  0.113043  0  0.955959  0  0  0.132461  0  1.01798  0  0  0.1343  0  1.01688  0  0  0.110702  0.131098  0  1.018746  0
H  H40  1  0.98741661  0.29754385  0.94224145  1  0  0.100302  0  0.942791  0  0  0.122369  0  1.004359  0  0  0.123075  0  1.003987  0  0  0.108044  0.122146  0  1.004208  0
H  H41  1  0.01258459  0.70245585  0.05775772  1  0  0.100405  0  0.942801  0  0  0.122509  0  1.0043  0  0  0.123214  0  1.003931  0  0  0.10813  0.122283  0  1.00415  0
H  H42  1  0.05767332  0.43651383  0.93164161  1  0  0.110953  0  0.971245  0  0  0.126947  0  1.039291  0  0  0.128844  0  1.037988  0  0  0.103838  0.125553  0  1.040135  0
H  H43  1  0.94232648  0.56348677  0.06835833  1  0  0.110971  0  0.971208  0  0  0.126931  0  1.039314  0  0  0.128825  0  1.038013  0  0  0.103817  0.125536  0  1.040157  0
H  H44  1  0.00413512  0.08370357  0.94564270  1  0  0.067452  0  0.967431  0  0  0.084061  0  1.035455  0  0  0.085015  0  1.035317  0  0  0.088325  0.08325  0  1.035654  0
H  H45  1  0.99586391  0.91629524  0.05435968  1  0  0.067449  0  0.967458  0  0  0.084071  0  1.035473  0  0  0.085025  0  1.035334  0  0  0.088314  0.083256  0  1.035675  0
H  H46  1  0.97641097  0.12088981  0.80893343  1  0  0.061381  0  0.955994  0  0  0.078948  0  1.02538  0  0  0.079388  0  1.02543  0  0  0.090418  0.078483  0  1.025553  0
H  H47  1  0.02358828  0.87910810  0.19106820  1  0  0.061354  0  0.956001  0  0  0.078905  0  1.02541  0  0  0.079345  0  1.02546  0  0  0.090398  0.07844  0  1.025581  0
H  H48  1  0.17391273  0.05921412  0.85635164  1  0  0.079085  0  0.967432  0  0  0.095118  0  1.036363  0  0  0.095544  0  1.037  0  0  0.098402  0.09451  0  1.03626  0
H  H49  1  0.82608652  0.94078379  0.14364998  1  0  0.079061  0  0.967451  0  0  0.095089  0  1.036383  0  0  0.095516  0  1.03702  0  0  0.098396  0.094481  0  1.036278  0
H  H50  1  0.29970062  0.57827249  0.03316936  1  0  0.058746  0  0.932779  0  0  0.078575  0  0.994763  0  0  0.079425  0  0.994455  0  0  0.086042  0.077858  0  0.9948  0
H  H51  1  0.70029809  0.42173259  0.96683197  1  0  0.058782  0  0.932695  0  0  0.078611  0  0.994678  0  0  0.07946  0  0.99437  0  0  0.086029  0.07789  0  0.994724  0
H  H52  1  0.45398036  0.59894860  0.93839027  1  0  0.064599  0  0.963881  0  0  0.080679  0  1.035464  0  0  0.079803  0  1.037901  0  0  0.091799  0.080199  0  1.035015  0
H  H53  1  0.54601715  0.40105648  0.06161030  1  0  0.064596  0  0.963897  0  0  0.080662  0  1.035512  0  0  0.079781  0  1.03795  0  0  0.091796  0.080181  0  1.035064  0
H  H54  1  0.33838279  0.48421576  0.92360572  1  0  0.054537  0  0.971534  0  0  0.071634  0  1.040903  0  0  0.07192  0  1.041538  0  0  0.086689  0.071149  0  1.040691  0
H  H55  1  0.66161614  0.51578842  0.07639643  1  0  0.054544  0  0.971655  0  0  0.071668  0  1.040992  0  0  0.071955  0  1.041623  0  0  0.08673  0.071186  0  1.040773  0
C  C56  1  0.35263880  0.16053724  0.36142470  1  0  -0.284928  0  3.660427  0  0  -0.297274  0  3.89831  0  0  -0.306343  0  3.904526  0  0  -0.072983  -0.291077  0  3.894472  0
C  C57  1  0.64736317  0.83946425  0.63857359  1  0  -0.285045  0  3.66029  0  0  -0.297478  0  3.89825  0  0  -0.306482  0  3.9044  0  0  -0.073029  -0.291285  0  3.894412  0
C  C58  1  0.29634770  0.27331131  0.28823381  1  0  -0.048648  0  3.604412  0  0  -0.036013  0  3.822933  0  0  -0.038319  0  3.835364  0  0  0.014964  -0.034333  0  3.814822  0
C  C59  1  0.70365514  0.72668659  0.71176462  1  0  -0.048522  0  3.604257  0  0  -0.035921  0  3.822813  0  0  -0.038238  0  3.835233  0  0  0.014985  -0.034235  0  3.814702  0
C  C60  1  0.32016371  0.25157957  0.17158605  1  0  -0.349674  0  3.738421  0  0  -0.35408  0  4.027819  0  0  -0.376764  0  4.050917  0  0  -0.070553  -0.338596  0  4.012527  0
C  C61  1  0.67983728  0.74842102  0.82841465  1  0  -0.349574  0  3.738339  0  0  -0.353985  0  4.027706  0  0  -0.376674  0  4.050812  0  0  -0.070508  -0.338502  0  4.012395  0
C  C62  1  0.28309529  0.05125607  0.33866723  1  0  0.579105  0  3.707455  0  0  0.521941  0  4.005418  0  0  0.553487  0  4.001752  0  0  0.264483  0.500576  0  4.007505  0
C  C63  1  0.71690450  0.94874453  0.66133818  1  0  0.579231  0  3.707785  0  0  0.522108  0  4.005673  0  0  0.553563  0  4.002101  0  0  0.264486  0.500735  0  4.007779  0
C  C64  1  0.33522969  0.19708279  0.47355151  1  0  0.545948  0  3.744721  0  0  0.494027  0  4.040433  0  0  0.523438  0  4.039801  0  0  0.251894  0.473889  0  4.040476  0
C  C65  1  0.66477162  0.80291154  0.52644945  1  0  0.545882  0  3.745031  0  0  0.494072  0  4.040707  0  0  0.523464  0  4.040074  0  0  0.251865  0.473947  0  4.040725  0
C  C66  1  0.26212962  0.00404640  0.52842656  1  0  0.640087  0  3.83399  0  0  0.568947  0  4.137856  0  0  0.602783  0  4.137333  0  0  0.350234  0.546172  0  4.1368  0
C  C67  1  0.73787049  0.99595777  0.47156541  1  0  0.640522  0  3.83412  0  0  0.569345  0  4.138084  0  0  0.603183  0  4.137554  0  0  0.350401  0.546573  0  4.137024  0
C  C68  1  0.40573960  0.36470207  0.30731128  1  0  0.526068  0  3.743636  0  0  0.474783  0  4.040556  0  0  0.504657  0  4.038658  0  0  0.252784  0.454187  0  4.041494  0
C  C69  1  0.59426019  0.63529853  0.69269022  1  0  0.525923  0  3.743745  0  0  0.4747  0  4.040569  0  0  0.504553  0  4.038705  0  0  0.252773  0.454109  0  4.041499  0
C  C70  1  0.11726814  0.31812661  0.31797911  1  0  0.537623  0  3.743699  0  0  0.487401  0  4.036271  0  0  0.517914  0  4.033589  0  0  0.257919  0.466469  0  4.037679  0
C  C71  1  0.88273328  0.68187219  0.68202166  1  0  0.5376  0  3.743678  0  0  0.487422  0  4.036185  0  0  0.51795  0  4.033489  0  0  0.257928  0.466495  0  4.037599  0
C  C72  1  0.16503382  0.52390008  0.32350614  1  0  0.652564  0  3.803843  0  0  0.579892  0  4.109292  0  0  0.615049  0  4.106226  0  0  0.35053  0.555527  0  4.111582  0
C  C73  1  0.83496825  0.47609603  0.67649238  1  0  0.652595  0  3.803913  0  0  0.579962  0  4.109321  0  0  0.615119  0  4.106253  0  0  0.350665  0.555601  0  4.111604  0
C  C74  1  0.46400950  0.17862203  0.13307465  1  0  0.526853  0  3.871148  0  0  0.47198  0  4.167612  0  0  0.503855  0  4.169165  0  0  0.215187  0.450362  0  4.166134  0
C  C75  1  0.53598931  0.82137767  0.86692379  1  0  0.526804  0  3.871234  0  0  0.471952  0  4.167693  0  0  0.503826  0  4.169251  0  0  0.215145  0.450328  0  4.166231  0
C  C76  1  0.20073237  0.30937886  0.10189239  1  0  0.495909  0  3.903075  0  0  0.437545  0  4.205784  0  0  0.468138  0  4.209852  0  0  0.207671  0.416172  0  4.202929  0
C  C77  1  0.79927003  0.69062083  0.89810519  1  0  0.495759  0  3.903168  0  0  0.437458  0  4.205748  0  0  0.468053  0  4.209818  0  0  0.207653  0.416094  0  4.202893  0
C  C78  1  0.37037198  0.22981458  0.95214207  1  0  0.607394  0  3.886633  0  0  0.533824  0  4.192236  0  0  0.568846  0  4.188841  0  0  0.332119  0.510862  0  4.192957  0
C  C79  1  0.62963119  0.77018690  0.04785855  1  0  0.607381  0  3.88683  0  0  0.533875  0  4.192358  0  0  0.568897  0  4.188965  0  0  0.332165  0.510911  0  4.193076  0
C  C80  1  0.19304413  0.86718393  0.40229871  1  0  -0.141163  0  3.623433  0  0  -0.251344  0  3.885976  0  0  -0.245515  0  3.892141  0  0  -0.131677  -0.254696  0  3.881376  0
C  C81  1  0.80695544  0.13281756  0.59770120  1  0  -0.141145  0  3.623552  0  0  -0.251336  0  3.886081  0  0  -0.245517  0  3.892276  0  0  -0.13167  -0.254696  0  3.881472  0
C  C82  1  0.31973267  0.14066155  0.65948160  1  0  -0.157179  0  3.618392  0  0  -0.268369  0  3.883511  0  0  -0.262571  0  3.889324  0  0  -0.139401  -0.271761  0  3.87941  0
C  C83  1  0.68026636  0.85933726  0.34051921  1  0  -0.157154  0  3.618392  0  0  -0.268324  0  3.883589  0  0  -0.262525  0  3.889406  0  0  -0.13941  -0.271723  0  3.879481  0
C  C84  1  0.43325762  0.57578737  0.29171813  1  0  -0.141966  0  3.62987  0  0  -0.248432  0  3.886975  0  0  -0.243082  0  3.893557  0  0  -0.131886  -0.251443  0  3.882496  0
C  C85  1  0.56674380  0.42421143  0.70828107  1  0  -0.141927  0  3.629868  0  0  -0.248369  0  3.886983  0  0  -0.243018  0  3.893561  0  0  -0.131831  -0.251378  0  3.882512  0
C  C86  1  0.89718902  0.47545399  0.37036623  1  0  -0.140079  0  3.612313  0  0  -0.244498  0  3.868691  0  0  -0.239241  0  3.874817  0  0  -0.130294  -0.247445  0  3.866015  0
C  C87  1  0.10281001  0.52454481  0.62963381  1  0  -0.140074  0  3.612414  0  0  -0.244506  0  3.868787  0  0  -0.239248  0  3.874914  0  0  -0.130283  -0.247446  0  3.866121  0
C  C88  1  0.63965133  0.11022479  0.98319944  1  0  -0.146483  0  3.619823  0  0  -0.250482  0  3.86803  0  0  -0.246084  0  3.87548  0  0  -0.138907  -0.252952  0  3.862937  0
C  C89  1  0.36034944  0.88977670  0.01680044  1  0  -0.146433  0  3.619779  0  0  -0.2504  0  3.868027  0  0  -0.245995  0  3.875471  0  0  -0.138875  -0.252869  0  3.862933  0
C  C90  1  0.09357611  0.33963863  0.92407197  1  0  -0.159745  0  3.645299  0  0  -0.266503  0  3.899556  0  0  -0.262034  0  3.906204  0  0  -0.142893  -0.269222  0  3.894437  0
C  C91  1  0.90642608  0.66036195  0.07592715  1  0  -0.159953  0  3.645381  0  0  -0.266755  0  3.899638  0  0  -0.262289  0  3.906291  0  0  -0.142956  -0.269478  0  3.89452  0
C  C92  1  0.04406408  0.05659162  0.86611311  1  0  -0.032917  0  3.686431  0  0  -0.122216  0  3.955572  0  0  -0.117372  0  3.961213  0  0  -0.157975  -0.125227  0  3.951771  0
C  C93  1  0.95593375  0.94340719  0.13388929  1  0  -0.032861  0  3.686491  0  0  -0.122154  0  3.955622  0  0  -0.117311  0  3.96126  0  0  -0.157962  -0.125168  0  3.951822  0
C  C94  1  0.33242184  0.57635356  0.94888555  1  0  -0.004266  0  3.715649  0  0  -0.090256  0  3.984477  0  0  -0.084691  0  3.990381  0  0  -0.154224  -0.093407  0  3.980595  0
C  C95  1  0.66757589  0.42365063  0.05111584  1  0  -0.004315  0  3.715643  0  0  -0.090348  0  3.984514  0  0  -0.084773  0  3.990407  0  0  -0.154251  -0.093498  0  3.980634  0
N  N96  1  0.25010790  0.97822460  0.42398108  1  0  -0.275264  0  3.381154  0  0  -0.189628  0  3.630533  0  0  -0.215327  0  3.647785  0  0  -0.251516  -0.172292  0  3.61743  0
N  N97  1  0.74989341  0.02177958  0.57602102  1  0  -0.275572  0  3.380777  0  0  -0.189884  0  3.630126  0  0  -0.215576  0  3.647412  0  0  -0.251609  -0.172544  0  3.61703  0
N  N98  1  0.31437113  0.10989479  0.54950290  1  0  -0.278339  0  3.407519  0  0  -0.193595  0  3.659463  0  0  -0.219314  0  3.677557  0  0  -0.256922  -0.175888  0  3.645382  0
N  N99  1  0.68563117  0.89011028  0.45049681  1  0  -0.278299  0  3.407194  0  0  -0.193722  0  3.659335  0  0  -0.219446  0  3.677437  0  0  -0.256813  -0.176015  0  3.645251  0
N  N100  1  0.33000388  0.48433213  0.30203947  1  0  -0.274518  0  3.390438  0  0  -0.189497  0  3.637581  0  0  -0.214524  0  3.653996  0  0  -0.252276  -0.171691  0  3.625623  0
N  N101  1  0.66999178  0.51566579  0.69796066  1  0  -0.274534  0  3.390382  0  0  -0.189545  0  3.637501  0  0  -0.214564  0  3.653919  0  0  -0.252303  -0.171742  0  3.625538  0
N  N102  1  0.06897800  0.43618900  0.34226414  1  0  -0.271755  0  3.430703  0  0  -0.190006  0  3.678744  0  0  -0.215468  0  3.696452  0  0  -0.25265  -0.171955  0  3.665803  0
N  N103  1  0.93102310  0.56380622  0.65773522  1  0  -0.271811  0  3.430767  0  0  -0.1901  0  3.678812  0  0  -0.215568  0  3.696515  0  0  -0.252757  -0.172055  0  3.665883  0
N  N104  1  0.48409423  0.17404658  0.02358266  1  0  -0.270397  0  3.409288  0  0  -0.176232  0  3.644046  0  0  -0.200565  0  3.661647  0  0  -0.257585  -0.160227  0  3.631772  0
N  N105  1  0.51590654  0.82595491  0.97641722  1  0  -0.270408  0  3.409253  0  0  -0.176346  0  3.644095  0  0  -0.200685  0  3.661703  0  0  -0.257576  -0.160336  0  3.631815  0
N  N106  1  0.22501465  0.28913088  0.99495857  1  0  -0.270913  0  3.432321  0  0  -0.181776  0  3.677322  0  0  -0.205427  0  3.694364  0  0  -0.261232  -0.165442  0  3.66486  0
N  N107  1  0.77498732  0.71087060  0.00504129  1  0  -0.270911  0  3.432306  0  0  -0.181746  0  3.677216  0  0  -0.205395  0  3.694253  0  0  -0.261315  -0.165414  0  3.664759  0
O  O108  1  0.26672809  0.01968710  0.24953503  1  0  -0.494418  0  2.023114  0  0  -0.445218  0  2.244749  0  0  -0.464388  0  2.238974  0  0  -0.249374  -0.43263  0  2.248836  0
O  O109  1  0.73327213  0.98031169  0.75045717  1  0  -0.494387  0  2.023596  0  0  -0.445209  0  2.245249  0  0  -0.464298  0  2.23946  0  0  -0.249328  -0.432606  0  2.24933  0
O  O110  1  0.34381116  0.29916702  0.49855451  1  0  -0.478027  0  1.929025  0  0  -0.438389  0  2.143189  0  0  -0.456921  0  2.13879  0  0  -0.254739  -0.425556  0  2.14608  0
O  O111  1  0.65619646  0.70084073  0.50144889  1  0  -0.477962  0  1.92964  0  0  -0.438333  0  2.143761  0  0  -0.456863  0  2.139376  0  0  -0.254738  -0.425509  0  2.14665  0
O  O112  1  0.22678518  0.93618703  0.59978897  1  0  -0.558398  0  1.950078  0  0  -0.521053  0  2.187153  0  0  -0.538499  0  2.176805  0  0  -0.315339  -0.508952  0  2.19389  0
O  O113  1  0.77320504  0.06380375  0.40022096  1  0  -0.558552  0  1.950814  0  0  -0.52116  0  2.1879  0  0  -0.538603  0  2.177551  0  0  -0.315437  -0.509057  0  2.194631  0
O  O114  1  0.55429515  0.33654241  0.31472696  1  0  -0.528802  0  1.96836  0  0  -0.49759  0  2.202201  0  0  -0.514698  0  2.19434  0  0  -0.310525  -0.485955  0  2.209763  0
O  O115  1  0.44570529  0.66345550  0.68527230  1  0  -0.528778  0  1.968454  0  0  -0.497579  0  2.202248  0  0  -0.514678  0  2.194395  0  0  -0.310569  -0.485949  0  2.209811  0
O  O116  1  0.02387525  0.24573418  0.33189578  1  0  -0.545716  0  1.941012  0  0  -0.513242  0  2.176279  0  0  -0.530601  0  2.167302  0  0  -0.320819  -0.501  0  2.183113  0
O  O117  1  0.97612617  0.75426462  0.66810186  1  0  -0.545723  0  1.941055  0  0  -0.51324  0  2.176282  0  0  -0.530602  0  2.167296  0  0  -0.320794  -0.501004  0  2.183123  0
O  O118  1  0.10785978  0.63126624  0.32922392  1  0  -0.533825  0  1.890498  0  0  -0.48988  0  2.107031  0  0  -0.509742  0  2.100257  0  0  -0.277209  -0.476281  0  2.111622  0
O  O119  1  0.89213860  0.36873526  0.67077444  1  0  -0.53378  0  1.890576  0  0  -0.489839  0  2.107079  0  0  -0.509711  0  2.100327  0  0  -0.277257  -0.476242  0  2.111665  0
O  O120  1  0.57593830  0.11959277  0.18786943  1  0  -0.608548  0  1.984358  0  0  -0.564232  0  2.231049  0  0  -0.585745  0  2.222907  0  0  -0.370937  -0.547973  0  2.235952  0
O  O121  1  0.42406432  0.88040603  0.81212897  1  0  -0.608527  0  1.984463  0  0  -0.564196  0  2.231125  0  0  -0.585713  0  2.222988  0  0  -0.370921  -0.54794  0  2.236031  0
O  O122  1  0.07185708  0.37920043  0.13020270  1  0  -0.58835  0  2.044633  0  0  -0.52965  0  2.270369  0  0  -0.55381  0  2.265551  0  0  -0.303426  -0.512086  0  2.272795  0
O  O123  1  0.92814336  0.62079748  0.86979734  1  0  -0.588257  0  2.044644  0  0  -0.529619  0  2.270383  0  0  -0.553791  0  2.265577  0  0  -0.303418  -0.512061  0  2.272811  0
O  O124  1  0.39595219  0.22732265  0.85633317  1  0  -0.571555  0  1.941769  0  0  -0.526434  0  2.17131  0  0  -0.546574  0  2.163605  0  0  -0.301646  -0.511756  0  2.175665  0
O  O125  1  0.60405097  0.77267883  0.14366432  1  0  -0.571515  0  1.941959  0  0  -0.526426  0  2.171487  0  0  -0.546564  0  2.163783  0  0  -0.301672  -0.511751  0  2.17584  0
O  O126  1  0.02259239  0.93658110  0.84951131  1  0  -0.567334  0  2.091723  0  0  -0.517223  0  2.330244  0  0  -0.531306  0  2.319108  0  0  -0.476691  -0.506891  0  2.337305  0
O  O127  1  0.97740904  0.06341770  0.15049258  1  0  -0.567335  0  2.091822  0  0  -0.517209  0  2.330295  0  0  -0.531312  0  2.319196  0  0  -0.476691  -0.506881  0  2.337345  0
O  O128  1  0.22340549  0.66153809  0.88854000  1  0  -0.586797  0  2.142435  0  0  -0.537124  0  2.391288  0  0  -0.552155  0  2.377845  0  0  -0.486394  -0.526311  0  2.400497  0
O  O129  1  0.77659268  0.33846431  0.11146146  1  0  -0.586795  0  2.142332  0  0  -0.537124  0  2.391202  0  0  -0.552157  0  2.37776  0  0  -0.486397  -0.526311  0  2.400406  0
