# generated using pymatgen
data_ZnH26(C7N)6
_symmetry_space_group_name_H-M   'P 1'
_cell_length_a   11.70389427
_cell_length_b   14.99947649
_cell_length_c   16.65518692
_cell_angle_alpha   90.13652025
_cell_angle_beta   105.02512659
_cell_angle_gamma   98.98651800
_symmetry_Int_Tables_number   1
_chemical_formula_structural   ZnH26(C7N)6
_chemical_formula_sum   'Zn3 H78 C126 N18'
_cell_volume   2786.41425421
_cell_formula_units_Z   3
loop_
 _symmetry_equiv_pos_site_id
 _symmetry_equiv_pos_as_xyz
  1  'x, y, z'
loop_
 _atom_site_type_symbol
 _atom_site_label
 _atom_site_symmetry_multiplicity
 _atom_site_fract_x
 _atom_site_fract_y
 _atom_site_fract_z
 _atom_site_occupancy
 _atom_site_pbe_bader_charge
 _atom_site_pbe_bader_spin_density
 _atom_site_pbe_cm5_charge
 _atom_site_pbe_ddec_charge
 _atom_site_pbe_ddec_spin_density
 _atom_site_pbe_ddec_sum_bond_order
 _atom_site_pbe_magmom
Zn  Zn0  1  0.11342461  0.43237891  0.14241365  1  1.227854  0  0.709905  0.630675  0  2.521532  0
Zn  Zn1  1  0.88656907  0.56762064  0.85758345  1  1.227862  0  0.709922  0.63071  0  2.521494  0
Zn  Zn2  1  0.49999862  0.00000103  0.49999704  1  1.244698  0  0.697672  0.594421  0  2.627578  0
H  H3  1  0.00391294  0.48402759  0.42750722  1  0.088714  0  0.102489  0.121297  0  1.02424  0
H  H4  1  0.99608680  0.51597128  0.57249276  1  0.088713  0  0.102478  0.12127  0  1.024218  0
H  H5  1  0.13395093  0.64102598  0.40589586  1  0.093464  0  0.095072  0.112453  0  1.071279  0
H  H6  1  0.86604970  0.35897290  0.59410368  1  0.093443  0  0.095075  0.112471  0  1.071282  0
H  H7  1  0.40288413  0.74419182  0.19337239  1  0.063656  0  0.101199  0.119335  0  1.019393  0
H  H8  1  0.59711842  0.25580773  0.80662870  1  0.06367  0  0.101181  0.11931  0  1.019441  0
H  H9  1  0.41296454  0.67792758  0.04557707  1  0.077884  0  0.103637  0.121349  0  1.015264  0
H  H10  1  0.58703450  0.32206386  0.95442336  1  0.077864  0  0.103636  0.12135  0  1.015294  0
H  H11  1  0.14127230  0.41191475  0.83129481  1  0.091775  0  0.106538  0.128422  0  1.004585  0
H  H12  1  0.85873069  0.58808278  0.16870574  1  0.091756  0  0.106577  0.128461  0  1.004565  0
H  H13  1  0.98544910  0.26430645  0.84412084  1  0.054102  0  0.098099  0.111649  0  1.041988  0
H  H14  1  0.01455257  0.73568905  0.15588007  1  0.054083  0  0.098113  0.11167  0  1.042069  0
H  H15  1  0.85794165  0.10534566  0.10557525  1  0.093061  0  0.100111  0.118109  0  1.022028  0
H  H16  1  0.14205192  0.89465321  0.89442723  1  0.09315  0  0.10011  0.118092  0  1.022009  0
H  H17  1  0.88004504  0.15858871  0.26325291  1  0.106244  0  0.09906  0.112893  0  1.056889  0
H  H18  1  0.11995780  0.84141219  0.73674944  1  0.106227  0  0.099084  0.112944  0  1.056837  0
H  H19  1  0.21355582  0.81222154  0.22085471  1  0.102649  0  0.100623  0.105722  0  1.04414  0
H  H20  1  0.78644772  0.18777870  0.77914235  1  0.102487  0  0.100572  0.105645  0  1.044165  0
H  H21  1  0.30740419  0.94674132  0.31724502  1  0.117695  0  0.112295  0.081986  0  1.010687  0
H  H22  1  0.69259761  0.05325891  0.68275414  1  0.11771  0  0.112312  0.082008  0  1.010658  0
H  H23  1  0.45459710  0.78720504  0.50596521  1  0.099986  0  0.109216  0.07053  0  1.036868  0
H  H24  1  0.54539939  0.21279518  0.49403420  1  0.099866  0  0.109219  0.070557  0  1.036896  0
H  H25  1  0.36459285  0.64555997  0.41868881  1  0.086776  0  0.106508  0.114938  0  0.991995  0
H  H26  1  0.63540217  0.35444160  0.58131034  1  0.086796  0  0.106516  0.114974  0  0.991989  0
H  H27  1  0.23802108  0.67554120  0.90781107  1  0.084303  0  0.095115  0.095887  0  1.059114  0
H  H28  1  0.76197456  0.32445497  0.09219177  1  0.084387  0  0.095123  0.095859  0  1.059068  0
H  H29  1  0.35969351  0.73168606  0.81139231  1  0.043238  0  0.093165  0.088041  0  1.039962  0
H  H30  1  0.64030716  0.26831281  0.18861384  1  0.043446  0  0.09319  0.088086  0  1.039922  0
H  H31  1  0.49479327  0.63632866  0.77224227  1  0.059571  0  0.088262  0.08113  0  1.064573  0
H  H32  1  0.50520989  0.36367358  0.22776554  1  0.05943  0  0.088277  0.08115  0  1.06457  0
H  H33  1  0.51070836  0.48565593  0.83332829  1  0.054955  0  0.095087  0.096463  0  1.021352  0
H  H34  1  0.48929493  0.51434700  0.16667715  1  0.054909  0  0.095101  0.096539  0  1.021332  0
H  H35  1  0.38905785  0.43012210  0.93062666  1  0.064654  0  0.0984  0.099682  0  1.006719  0
H  H36  1  0.61094530  0.56987610  0.06937633  1  0.064486  0  0.098427  0.09975  0  1.006769  0
H  H37  1  0.05569566  0.12589928  0.93794107  1  0.048559  0  0.108027  0.118722  0  0.991686  0
H  H38  1  0.94429363  0.87409621  0.06205822  1  0.048702  0  0.108029  0.118765  0  0.991664  0
H  H39  1  0.94568753  0.98452553  0.85659886  1  0.048509  0  0.108743  0.075975  0  0.999079  0
H  H40  1  0.05430734  0.01547132  0.14339904  1  0.04879  0  0.10875  0.075968  0  0.99914  0
H  H41  1  0.61991484  0.03587624  0.88315375  1  0.081496  0  0.108464  0.076227  0  0.986955  0
H  H42  1  0.38008083  0.96411586  0.11685087  1  0.081759  0  0.108487  0.07623  0  0.987086  0
H  H43  1  0.71682773  0.17828885  0.96827597  1  0.090356  0  0.104872  0.115221  0  1.013199  0
H  H44  1  0.28316366  0.82170393  0.03172729  1  0.089866  0  0.104838  0.115188  0  1.013221  0
H  H45  1  0.76025386  0.26652151  0.30702818  1  0.081345  0  0.094546  0.09169  0  1.055301  0
H  H46  1  0.23974633  0.73347939  0.69297430  1  0.081372  0  0.094512  0.091648  0  1.055279  0
H  H47  1  0.70605270  0.19126192  0.42709193  1  0.081964  0  0.095646  0.092596  0  1.058266  0
H  H48  1  0.29394999  0.80873831  0.57290858  1  0.081922  0  0.095637  0.092617  0  1.058264  0
H  H49  1  0.86056320  0.18995507  0.56160583  1  0.064245  0  0.097198  0.096697  0  1.019277  0
H  H50  1  0.13943788  0.81004178  0.43839559  1  0.064242  0  0.097148  0.096611  0  1.019365  0
H  H51  1  0.06870404  0.26926878  0.57584516  1  0.057726  0  0.09927  0.095683  0  1.01014  0
H  H52  1  0.93129924  0.73072605  0.42415364  1  0.057732  0  0.099262  0.095665  0  1.010133  0
H  H53  1  0.12418557  0.34186802  0.45440244  1  0.067415  0  0.099069  0.097927  0  1.006775  0
H  H54  1  0.87581505  0.65812681  0.54559407  1  0.067576  0  0.09906  0.097908  0  1.006791  0
H  H55  1  0.12343619  0.14584779  0.51327116  1  0.106002  0  0.09973  0.114488  0  1.060661  0
H  H56  1  0.87656751  0.85415717  0.48672896  1  0.105827  0  0.099713  0.114464  0  1.060711  0
H  H57  1  0.17880489  0.20987764  0.37581463  1  0.074579  0  0.100373  0.11734  0  1.039151  0
H  H58  1  0.82119010  0.79012394  0.62418151  1  0.074618  0  0.100361  0.117346  0  1.039103  0
H  H59  1  0.50725429  0.15541931  0.21322972  1  0.072138  0  0.102014  0.118452  0  1.031438  0
H  H60  1  0.49274590  0.84458159  0.78677215  1  0.072138  0  0.102011  0.118455  0  1.031405  0
H  H61  1  0.68112035  0.05259042  0.23880433  1  0.086444  0  0.102762  0.120996  0  1.016698  0
H  H62  1  0.31888214  0.94741725  0.76119258  1  0.086498  0  0.10279  0.121025  0  1.016726  0
H  H63  1  0.28558481  0.13747667  0.17842856  1  0.171511  0  0.100083  0.10386  0  1.089514  0
H  H64  1  0.71441404  0.86252221  0.82157006  1  0.171545  0  0.100073  0.103881  0  1.089523  0
H  H65  1  0.20724557  0.26569695  0.09718436  1  0.087216  0  0.114918  0.082683  0  1.006601  0
H  H66  1  0.79275562  0.73430058  0.90280986  1  0.087317  0  0.114897  0.082631  0  1.006688  0
H  H67  1  0.31344609  0.43962082  0.30550101  1  0.101759  0  0.116972  0.08783  0  0.992282  0
H  H68  1  0.68655067  0.56038076  0.69449485  1  0.101739  0  0.116987  0.087883  0  0.992248  0
H  H69  1  0.40312713  0.32142956  0.39484140  1  0.028459  0  0.107516  0.117004  0  0.992597  0
H  H70  1  0.59686963  0.67857202  0.60515506  1  0.028395  0  0.107517  0.117043  0  0.992554  0
H  H71  1  0.69668485  0.81400939  0.30354640  1  0.071221  0  0.099829  0.102136  0  0.998055  0
H  H72  1  0.30331797  0.18599556  0.69645656  1  0.071174  0  0.09984  0.102151  0  0.998088  0
H  H73  1  0.84990808  0.77181146  0.23704581  1  0.079811  0  0.098757  0.098166  0  1.007049  0
H  H74  1  0.15009728  0.22819281  0.76296180  1  0.079392  0  0.098777  0.098245  0  1.006926  0
H  H75  1  0.04210713  0.87699804  0.25174662  1  0.063982  0  0.090659  0.079818  0  1.057922  0
H  H76  1  0.95789707  0.12300083  0.74825956  1  0.064011  0  0.090666  0.079816  0  1.057771  0
H  H77  1  0.07816016  0.02498739  0.32943426  1  0.07177  0  0.095224  0.096319  0  1.027599  0
H  H78  1  0.92184738  0.97501487  0.67056713  1  0.071785  0  0.095234  0.096381  0  1.027573  0
H  H79  1  0.92446433  0.06706662  0.39456959  1  0.088357  0  0.100487  0.105961  0  1.015038  0
H  H80  1  0.07554171  0.93293700  0.60542854  1  0.088617  0  0.100432  0.105976  0  1.014928  0
C  C81  1  0.03886568  0.43965173  0.30771087  1  0.400885  0  0.08989  0.18374  0  4.03987  0
C  C82  1  0.96113466  0.56034580  0.69228921  1  0.40055  0  0.089884  0.183702  0  4.039992  0
C  C83  1  0.04595336  0.50009943  0.37731149  1  -0.110371  0  -0.107255  -0.183366  0  3.987014  0
C  C84  1  0.95404535  0.49989877  0.62268770  1  -0.110041  0  -0.107148  -0.183213  0  3.986987  0
C  C85  1  0.11217222  0.58023371  0.36600212  1  -0.075885  0  -0.113307  -0.193518  0  3.989906  0
C  C86  1  0.88782634  0.41976381  0.63399704  1  -0.075939  0  -0.113346  -0.193604  0  3.990007  0
C  C87  1  0.14672325  0.56900140  0.28961221  1  0.446616  0  0.087478  0.181483  0  4.053351  0
C  C88  1  0.85327664  0.43099816  0.71038840  1  0.446612  0  0.087498  0.181523  0  4.053477  0
C  C89  1  0.22363926  0.63377738  0.25861404  1  0.001224  0  -0.00566  -0.090169  0  3.936177  0
C  C90  1  0.77636446  0.36622352  0.74138666  1  0.001254  0  -0.005729  -0.090303  0  3.936355  0
C  C91  1  0.25496499  0.62482684  0.18301551  1  0.43997  0  0.08928  0.186653  0  4.053889  0
C  C92  1  0.74504051  0.37517406  0.81698731  1  0.439962  0  0.08932  0.186808  0  4.053751  0
C  C93  1  0.34765154  0.68492054  0.15786935  1  -0.119748  0  -0.109747  -0.195376  0  3.998192  0
C  C94  1  0.65235054  0.31508104  0.84212986  1  -0.119862  0  -0.109724  -0.19546  0  3.998115  0
C  C95  1  0.35272122  0.65136780  0.08265060  1  -0.028555  0  -0.103885  -0.183961  0  3.987987  0
C  C96  1  0.64727675  0.34863108  0.91734967  1  -0.028514  0  -0.103911  -0.183932  0  3.987942  0
C  C97  1  0.26211412  0.57125509  0.06091187  1  0.4328  0  0.094629  0.187654  0  4.028444  0
C  C98  1  0.73788135  0.42874445  0.93908915  1  0.432906  0  0.094581  0.18756  0  4.028586  0
C  C99  1  0.23585249  0.51782345  0.98649399  1  0.059062  0  0.008566  -0.056316  0  3.898569  0
C  C100  1  0.76414564  0.48217609  0.01350811  1  0.058765  0  0.008542  -0.056317  0  3.898555  0
C  C101  1  0.15100608  0.43777622  0.96655285  1  0.411381  0  0.094676  0.187993  0  4.025499  0
C  C102  1  0.84899558  0.56221928  0.03344626  1  0.411344  0  0.09461  0.187856  0  4.025492  0
C  C103  1  0.11320135  0.38966869  0.88616464  1  -0.020258  0  -0.102114  -0.178577  0  3.974878  0
C  C104  1  0.88680077  0.61032478  0.11383574  1  -0.020264  0  -0.102061  -0.178383  0  3.974548  0
C  C105  1  0.03372949  0.31472699  0.89287463  1  -0.096597  0  -0.108971  -0.189987  0  3.992636  0
C  C106  1  0.96627335  0.68526986  0.10712589  1  -0.096459  0  -0.109084  -0.190215  0  3.992594  0
C  C107  1  0.02283814  0.31603756  0.97761240  1  0.473319  0  0.09133  0.188364  0  4.038782  0
C  C108  1  0.97715791  0.68396064  0.02238572  1  0.473463  0  0.091409  0.188407  0  4.038781  0
C  C109  1  0.95583487  0.24771503  0.01262336  1  -0.021471  0  -0.003585  -0.086994  0  3.91548  0
C  C110  1  0.04416294  0.75228317  0.98737387  1  -0.02162  0  -0.003599  -0.087015  0  3.915482  0
C  C111  1  0.94482966  0.24918093  0.09524655  1  0.455109  0  0.086412  0.174012  0  4.066521  0
C  C112  1  0.05516860  0.75081525  0.90475075  1  0.455089  0  0.086324  0.173958  0  4.066567  0
C  C113  1  0.89452111  0.17214213  0.13460624  1  -0.156761  0  -0.112579  -0.197875  0  3.996961  0
C  C114  1  0.10547583  0.82785607  0.86539324  1  -0.156743  0  -0.112519  -0.197794  0  3.996863  0
C  C115  1  0.90550024  0.19932178  0.21507937  1  -0.051869  0  -0.106029  -0.179424  0  3.977803  0
C  C116  1  0.09449950  0.80067710  0.78492001  1  -0.051857  0  -0.106042  -0.179461  0  3.977787  0
C  C117  1  0.96013910  0.29349979  0.22501223  1  0.439708  0  0.089613  0.184363  0  4.027189  0
C  C118  1  0.03985916  0.70650043  0.77498749  1  0.439943  0  0.089517  0.184274  0  4.027348  0
C  C119  1  0.98246393  0.34850832  0.29822918  1  0.01001  0  0.003187  -0.066569  0  3.907435  0
C  C120  1  0.01753287  0.65148920  0.70177147  1  0.009773  0  0.003275  -0.066394  0  3.907356  0
C  C121  1  0.27967781  0.71656796  0.31200144  1  -0.020015  0  0.012478  0.127893  0  3.996247  0
C  C122  1  0.72031692  0.28343226  0.68799885  1  -0.019983  0  0.012517  0.127882  0  3.996344  0
C  C123  1  0.26552940  0.80341203  0.28400665  1  -0.070013  0  -0.087863  -0.189537  0  3.950324  0
C  C124  1  0.73446797  0.19658819  0.71599231  1  -0.069705  0  -0.087807  -0.189397  0  3.950214  0
C  C125  1  0.31784847  0.87862914  0.33767268  1  0.472992  0  0.045621  0.098313  0  3.952458  0
C  C126  1  0.68215258  0.12137177  0.66232635  1  0.472838  0  0.045637  0.098367  0  3.9524  0
C  C127  1  0.39907133  0.78977577  0.44259749  1  0.499824  0  0.044134  0.096323  0  3.978071  0
C  C128  1  0.60092443  0.21022513  0.55740239  1  0.499874  0  0.044183  0.096397  0  3.978035  0
C  C129  1  0.34929719  0.71105194  0.39373615  1  -0.097775  0  -0.086615  -0.184133  0  3.960712  0
C  C130  1  0.65070048  0.28894964  0.60626407  1  -0.097803  0  -0.086669  -0.184215  0  3.960734  0
C  C131  1  0.30458720  0.54894329  0.92531695  1  -0.063994  0  -0.007273  0.078746  0  3.994374  0
C  C132  1  0.69541285  0.45105288  0.07468428  1  -0.063747  0  -0.007294  0.078909  0  3.994329  0
C  C133  1  0.29814999  0.63428478  0.89157371  1  -0.003974  0  -0.093422  -0.127899  0  3.969152  0
C  C134  1  0.70184846  0.36571206  0.10842964  1  -0.003935  0  -0.093399  -0.127882  0  3.96911  0
C  C135  1  0.36620086  0.66526886  0.83693293  1  -0.044537  0  -0.102082  -0.093745  0  4.039966  0
C  C136  1  0.63379995  0.33473068  0.16307264  1  -0.044815  0  -0.102083  -0.093792  0  4.039892  0
C  C137  1  0.44195209  0.61184013  0.81510375  1  -0.072553  0  -0.103031  -0.089856  0  4.026566  0
C  C138  1  0.55805181  0.38816144  0.18490359  1  -0.072355  0  -0.102982  -0.089732  0  4.026588  0
C  C139  1  0.44969593  0.52696942  0.84856596  1  -0.051879  0  -0.098451  -0.083144  0  4.019726  0
C  C140  1  0.55030796  0.47303216  0.15143897  1  -0.052163  0  -0.098544  -0.083368  0  4.019895  0
C  C141  1  0.38116593  0.49554665  0.90307222  1  -0.047577  0  -0.091161  -0.13539  0  3.97787  0
C  C142  1  0.61883811  0.50445154  0.09693092  1  -0.047252  0  -0.091183  -0.135544  0  3.977926  0
C  C143  1  0.89522873  0.16454729  0.96063229  1  -0.023899  0  0.010417  0.124409  0  3.989835  0
C  C144  1  0.10476261  0.83544955  0.03936498  1  -0.024578  0  0.010598  0.12458  0  3.98983  0
C  C145  1  0.95876792  0.10867910  0.92728677  1  0.021832  0  -0.08766  -0.191518  0  3.964371  0
C  C146  1  0.04122164  0.89131775  0.07270958  1  0.022523  0  -0.087711  -0.19148  0  3.964412  0
C  C147  1  0.89715863  0.02956318  0.88177807  1  0.459938  0  0.03838  0.084294  0  4.011477  0
C  C148  1  0.10283392  0.97043096  0.11822300  1  0.45936  0  0.038339  0.084181  0  4.011674  0
C  C149  1  0.71700393  0.05748945  0.89745380  1  0.562677  0  0.035463  0.078903  0  4.022915  0
C  C150  1  0.28299080  0.94250672  0.10254467  1  0.563131  0  0.035452  0.078997  0  4.022968  0
C  C151  1  0.77078494  0.13690956  0.94481505  1  -0.118819  0  -0.0873  -0.186084  0  3.965864  0
C  C152  1  0.22920642  0.86308728  0.05518582  1  -0.118654  0  -0.087388  -0.186273  0  3.965927  0
C  C153  1  0.94661854  0.30797968  0.37131775  1  0.019203  0  -0.008117  0.078337  0  3.994756  0
C  C154  1  0.05338075  0.69202122  0.62868276  1  0.019604  0  -0.00817  0.078233  0  3.994786  0
C  C155  1  0.82851037  0.26603986  0.36546315  1  -0.087434  0  -0.094081  -0.133059  0  3.973564  0
C  C156  1  0.17149039  0.73396375  0.63453704  1  -0.087363  0  -0.093976  -0.132951  0  3.973466  0
C  C157  1  0.79773847  0.22439716  0.43339555  1  -0.081014  0  -0.09673  -0.083886  0  4.01848  0
C  C158  1  0.20226331  0.77560713  0.56660362  1  -0.080988  0  -0.096786  -0.084012  0  4.018599  0
C  C159  1  0.88415223  0.22422154  0.50902917  1  -0.117031  0  -0.095291  -0.089878  0  4.004439  0
C  C160  1  0.11585325  0.77577937  0.49097064  1  -0.116714  0  -0.095281  -0.089749  0  4.004524  0
C  C161  1  0.00106642  0.26825212  0.51667083  1  0.045517  0  -0.093786  -0.081092  0  4.022201  0
C  C162  1  0.99893876  0.73174744  0.48332772  1  0.045167  0  -0.093754  -0.081065  0  4.022268  0
C  C163  1  0.03202594  0.30959536  0.44859118  1  -0.09854  0  -0.089373  -0.129215  0  3.967577  0
C  C164  1  0.96797438  0.69040622  0.55140832  1  -0.09909  0  -0.089332  -0.129171  0  3.967615  0
C  C165  1  0.28398441  0.07603599  0.52645117  1  0.435055  0  0.093108  0.188626  0  4.021211  0
C  C166  1  0.71601543  0.92397167  0.47354707  1  0.434903  0  0.09313  0.188777  0  4.021235  0
C  C167  1  0.19745237  0.13324096  0.48949281  1  -0.083573  0  -0.104881  -0.179977  0  3.981843  0
C  C168  1  0.80255131  0.86676805  0.51050672  1  -0.083048  0  -0.104865  -0.18003  0  3.981987  0
C  C169  1  0.22607137  0.16597271  0.41951258  1  -0.073992  0  -0.110141  -0.196623  0  3.994083  0
C  C170  1  0.77392729  0.83403360  0.58048363  1  -0.074135  0  -0.110116  -0.196619  0  3.994182  0
C  C171  1  0.33035666  0.12802653  0.41289163  1  0.436125  0  0.088759  0.171816  0  4.056444  0
C  C172  1  0.66963921  0.87197505  0.58710287  1  0.436141  0  0.088719  0.171832  0  4.056463  0
C  C173  1  0.38958395  0.14597720  0.34919872  1  -0.052868  0  -0.005689  -0.095456  0  3.934676  0
C  C174  1  0.61041517  0.85402304  0.65079695  1  -0.053273  0  -0.005688  -0.095487  0  3.934611  0
C  C175  1  0.48419815  0.10418544  0.33674638  1  0.493896  0  0.090466  0.179271  0  4.058259  0
C  C176  1  0.51579554  0.89581005  0.66325070  1  0.493903  0  0.090439  0.179261  0  4.058213  0
C  C177  1  0.53563769  0.11462228  0.26616222  1  -0.100768  0  -0.104549  -0.184815  0  3.967741  0
C  C178  1  0.46435969  0.88537794  0.73383794  1  -0.100869  0  -0.104553  -0.184833  0  3.96789  0
C  C179  1  0.62366428  0.06191207  0.27887573  1  -0.064712  0  -0.103943  -0.185237  0  3.979269  0
C  C180  1  0.37633647  0.93808749  0.72112083  1  -0.064558  0  -0.103944  -0.185206  0  3.979502  0
C  C181  1  0.62850089  0.02091952  0.35819118  1  0.421943  0  0.091781  0.182753  0  4.05607  0
C  C182  1  0.37150177  0.97908477  0.64180754  1  0.422094  0  0.091647  0.182553  0  4.05607  0
C  C183  1  0.35007802  0.21893815  0.29403870  1  0.011582  0  0.016756  0.136879  0  3.980114  0
C  C184  1  0.64992655  0.78106277  0.70595735  1  0.011606  0  0.016811  0.136889  0  3.98011  0
C  C185  1  0.29770821  0.20461616  0.20835813  1  -0.076846  0  -0.08647  -0.176588  0  3.92039  0
C  C186  1  0.70229446  0.79538407  0.79163998  1  -0.07692  0  -0.086497  -0.176689  0  3.920397  0
C  C187  1  0.25255275  0.27519141  0.16342171  1  0.471918  0  0.049631  0.106876  0  3.936721  0
C  C188  1  0.74745227  0.72480749  0.83657381  1  0.471939  0  0.049769  0.10708  0  3.93693  0
C  C189  1  0.31158738  0.37241246  0.27943193  1  0.473794  0  0.043912  0.088487  0  3.975384  0
C  C190  1  0.68841056  0.62758642  0.72056293  1  0.473654  0  0.043929  0.088448  0  3.97535  0
C  C191  1  0.36035306  0.30623488  0.32888067  1  -0.007908  0  -0.085228  -0.188101  0  3.96723  0
C  C192  1  0.63965165  0.69376671  0.67111541  1  -0.007899  0  -0.08528  -0.188137  0  3.967323  0
C  C193  1  0.71077340  0.96482650  0.39673365  1  0.013893  0  0.005351  -0.062374  0  3.901548  0
C  C194  1  0.28923000  0.03518116  0.60326702  1  0.013723  0  0.005359  -0.062273  0  3.901293  0
C  C195  1  0.80022484  0.94345004  0.35277384  1  0.02466  0  -0.006761  0.08062  0  4.01091  0
C  C196  1  0.19978239  0.05655897  0.64722872  1  0.024753  0  -0.006581  0.080913  0  4.010802  0
C  C197  1  0.78001562  0.86046658  0.30808123  1  -0.116376  0  -0.093721  -0.142971  0  3.989386  0
C  C198  1  0.21998586  0.13954040  0.69192030  1  -0.116548  0  -0.093758  -0.142986  0  3.989586  0
C  C199  1  0.86614714  0.83669468  0.27125852  1  -0.103096  0  -0.098432  -0.087428  0  4.037692  0
C  C200  1  0.13385999  0.16330960  0.72874761  1  -0.102631  0  -0.098351  -0.087499  0  4.037681  0
C  C201  1  0.97371292  0.89576292  0.27915255  1  -2.2e-05  0  -0.101361  -0.099688  0  4.038198  0
C  C202  1  0.02630085  0.10424339  0.72085657  1  -0.00048  0  -0.101481  -0.099725  0  4.038  0
C  C203  1  0.99412016  0.97886160  0.32271870  1  -0.052161  0  -0.093386  -0.074147  0  4.006377  0
C  C204  1  0.00588856  0.02114606  0.67728532  1  -0.051356  0  -0.093335  -0.074073  0  4.006304  0
C  C205  1  0.90774562  0.00283898  0.35925257  1  -0.115595  0  -0.088873  -0.129511  0  3.945316  0
C  C206  1  0.09226470  0.99716801  0.64074874  1  -0.116094  0  -0.088999  -0.129933  0  3.945372  0
N  N207  1  0.09758232  0.48424430  0.25417021  1  -1.20023  0  -0.361457  -0.368264  0  3.450385  0
N  N208  1  0.90241920  0.51575457  0.74583069  1  -1.200214  0  -0.361469  -0.368261  0  3.450411  0
N  N209  1  0.20614023  0.55607795  0.12377926  1  -1.192226  0  -0.361923  -0.358198  0  3.440374  0
N  N210  1  0.79385730  0.44392295  0.87622214  1  -1.192266  0  -0.36189  -0.358166  0  3.440388  0
N  N211  1  0.09258448  0.39266128  0.02000832  1  -1.234089  0  -0.360765  -0.360154  0  3.435749  0
N  N212  1  0.90741571  0.60733558  0.97999053  1  -1.234153  0  -0.360771  -0.360159  0  3.435884  0
N  N213  1  0.98482716  0.32140433  0.15167925  1  -1.198265  0  -0.362194  -0.371284  0  3.43612  0
N  N214  1  0.01516977  0.67859388  0.84831843  1  -1.198425  0  -0.362182  -0.371318  0  3.436261  0
N  N215  1  0.38337740  0.87247770  0.41598675  1  -1.21095  0  -0.31201  -0.22554  0  3.45021  0
N  N216  1  0.61662100  0.12752320  0.58401240  1  -1.210904  0  -0.312074  -0.225711  0  3.450339  0
N  N217  1  0.77811170  0.00362081  0.86629062  1  -1.196825  0  -0.321128  -0.263686  0  3.356385  0
N  N218  1  0.22188229  0.99637603  0.13370712  1  -1.196936  0  -0.321111  -0.26368  0  3.35634  0
N  N219  1  0.36103502  0.07236547  0.47731743  1  -1.176927  0  -0.363664  -0.35068  0  3.474458  0
N  N220  1  0.63896130  0.92763409  0.52267714  1  -1.176564  0  -0.363618  -0.35065  0  3.4747  0
N  N221  1  0.54245590  0.04741824  0.39111994  1  -1.201507  0  -0.361122  -0.360668  0  3.452886  0
N  N222  1  0.45754383  0.95258064  0.60887824  1  -1.201461  0  -0.36103  -0.360606  0  3.452974  0
N  N223  1  0.25594205  0.35696173  0.19813400  1  -1.253389  0  -0.32704  -0.228456  0  3.524173  0
N  N224  1  0.74405338  0.64303783  0.80186101  1  -1.253169  0  -0.32713  -0.228534  0  3.524319  0
