# generated using pymatgen
data_CdH10C10NCl2O3
_symmetry_space_group_name_H-M   'P 1'
_cell_length_a   8.38493846
_cell_length_b   8.51608921
_cell_length_c   8.57539071
_cell_angle_alpha   93.47220665
_cell_angle_beta   100.17274705
_cell_angle_gamma   92.05300626
_symmetry_Int_Tables_number   1
_chemical_formula_structural   CdH10C10NCl2O3
_chemical_formula_sum   'Cd2 H20 C20 N2 Cl4 O6'
_cell_volume   600.93453120
_cell_formula_units_Z   2
loop_
 _symmetry_equiv_pos_site_id
 _symmetry_equiv_pos_as_xyz
  1  'x, y, z'
loop_
 _atom_site_type_symbol
 _atom_site_label
 _atom_site_symmetry_multiplicity
 _atom_site_fract_x
 _atom_site_fract_y
 _atom_site_fract_z
 _atom_site_occupancy
 _atom_site_hle17_bader_spin_density
 _atom_site_hle17_ddec_charge
 _atom_site_hle17_ddec_spin_density
 _atom_site_hle17_ddec_sum_bond_order
 _atom_site_hle17_magmom
 _atom_site_hse06_10hf_bader_spin_density
 _atom_site_hse06_10hf_ddec_charge
 _atom_site_hse06_10hf_ddec_spin_density
 _atom_site_hse06_10hf_ddec_sum_bond_order
 _atom_site_hse06_10hf_magmom
 _atom_site_hse06_bader_spin_density
 _atom_site_hse06_ddec_charge
 _atom_site_hse06_ddec_spin_density
 _atom_site_hse06_ddec_sum_bond_order
 _atom_site_hse06_magmom
 _atom_site_pbe_bader_spin_density
 _atom_site_pbe_cm5_charge
 _atom_site_pbe_ddec_charge
 _atom_site_pbe_ddec_spin_density
 _atom_site_pbe_ddec_sum_bond_order
 _atom_site_pbe_magmom
Cd  Cd0  1  0.50000126  0.00000110  0.00000082  1  0  1.151262  0  1.646936  0  0  0.996223  0  2.083695  0  0  1.053721  0  2.027379  0  0  0.657135  0.955194  0  2.122254  0
Cd  Cd1  1  0.00000160  0.00000104  0.99999966  1  0  1.083473  0  1.87647  0  0  0.942608  0  2.333375  0  0  0.990223  0  2.285303  0  0  0.592185  0.908716  0  2.366115  0
H  H2  1  0.35016273  0.11826927  0.51350384  1  0  0.107828  0  0.909171  0  0  0.12208  0  0.967982  0  0  0.123856  0  0.966538  0  0  0.117677  0.120696  0  0.969188  0
H  H3  1  0.64983530  0.88173077  0.48649748  1  0  0.107821  0  0.90917  0  0  0.122073  0  0.967991  0  0  0.123846  0  0.966551  0  0  0.117681  0.120697  0  0.969191  0
H  H4  1  0.37414742  0.20234976  0.71342461  1  0  0.11674  0  0.944066  0  0  0.126691  0  1.011797  0  0  0.128187  0  1.010632  0  0  0.116058  0.125491  0  1.012762  0
H  H5  1  0.62585317  0.79765261  0.28657496  1  0  0.116801  0  0.944006  0  0  0.126714  0  1.011784  0  0  0.128237  0  1.010588  0  0  0.116071  0.125517  0  1.012748  0
H  H6  1  0.11588786  0.09990863  0.35800209  1  0  0.105097  0  0.972951  0  0  0.105815  0  1.051619  0  0  0.109686  0  1.046951  0  0  0.117028  0.102865  0  1.05517  0
H  H7  1  0.88411369  0.90009016  0.64199853  1  0  0.105085  0  0.97295  0  0  0.105819  0  1.051622  0  0  0.109689  0  1.046954  0  0  0.117024  0.102864  0  1.055177  0
H  H8  1  0.70217413  0.32115535  0.49409551  1  0  0.101155  0  0.989338  0  0  0.108244  0  1.055496  0  0  0.109951  0  1.055454  0  0  0.107151  0.106921  0  1.055606  0
H  H9  1  0.29782613  0.67884230  0.50590481  1  0  0.101186  0  0.989319  0  0  0.108244  0  1.055505  0  0  0.109949  0  1.055459  0  0  0.107155  0.106921  0  1.05561  0
H  H10  1  0.52575706  0.44275825  0.78469365  1  0  0.107303  0  0.952656  0  0  0.118324  0  1.011973  0  0  0.121796  0  1.009692  0  0  0.103649  0.115761  0  1.013765  0
H  H11  1  0.47424092  0.55724184  0.21530416  1  0  0.10733  0  0.952681  0  0  0.11835  0  1.01198  0  0  0.121825  0  1.009698  0  0  0.10365  0.115788  0  1.013773  0
H  H12  1  0.18441878  0.39050658  0.77462853  1  0  0.117911  0  0.916655  0  0  0.128311  0  0.973496  0  0  0.131236  0  0.970416  0  0  0.13527  0.126042  0  0.975885  0
H  H13  1  0.81558062  0.60949580  0.22537202  1  0  0.117916  0  0.916658  0  0  0.128312  0  0.973513  0  0  0.131227  0  0.970455  0  0  0.13527  0.126046  0  0.975887  0
H  H14  1  0.33421747  0.31633621  0.29203891  1  0  0.095791  0  0.986078  0  0  0.102361  0  1.056608  0  0  0.105549  0  1.054702  0  0  0.091885  0.099969  0  1.058197  0
H  H15  1  0.66577919  0.68366275  0.70795745  1  0  0.095783  0  0.986129  0  0  0.10237  0  1.056638  0  0  0.105551  0  1.054738  0  0  0.091883  0.099978  0  1.058226  0
H  H16  1  0.89007514  0.44395348  0.74009364  1  0  0.130722  0  0.950073  0  0  0.135167  0  1.013979  0  0  0.138809  0  1.013071  0  0  0.106992  0.132504  0  1.014898  0
H  H17  1  0.10992407  0.55604656  0.25990553  1  0  0.13075  0  0.95005  0  0  0.135197  0  1.013959  0  0  0.138838  0  1.013051  0  0  0.106999  0.132532  0  1.014877  0
H  H18  1  0.30363677  0.27351405  0.01490207  1  0  0.395755  0  0.921813  0  0  0.364062  0  0.989961  0  0  0.374805  0  0.974538  0  0  0.254991  0.356435  0  1.000877  0
H  H19  1  0.69636493  0.72648713  0.98509641  1  0  0.395744  0  0.921825  0  0  0.364046  0  0.989979  0  0  0.37479  0  0.974554  0  0  0.254983  0.356421  0  1.000891  0
H  H20  1  0.49218672  0.30173045  0.07870952  1  0  0.426508  0  0.841131  0  0  0.404677  0  0.903325  0  0  0.413723  0  0.893221  0  0  0.303561  0.398291  0  0.910421  0
H  H21  1  0.50781499  0.69827072  0.92129014  1  0  0.426531  0  0.841112  0  0  0.4047  0  0.903306  0  0  0.413746  0  0.8932  0  0  0.303565  0.398311  0  0.910407  0
C  C22  1  0.78905306  0.11608223  0.26531923  1  0  0.664778  0  3.923777  0  0  0.611357  0  4.218612  0  0  0.647273  0  4.211192  0  0  0.204794  0.587045  0  4.222821  0
C  C23  1  0.21094847  0.88391658  0.73468022  1  0  0.664819  0  3.92384  0  0  0.611403  0  4.218655  0  0  0.647315  0  4.21125  0  0  0.204793  0.587098  0  4.222857  0
C  C24  1  0.33371140  0.22347150  0.58843002  1  0  -0.066123  0  3.587743  0  0  -0.133006  0  3.83271  0  0  -0.129103  0  3.842796  0  0  -0.049728  -0.135495  0  3.825992  0
C  C25  1  0.66628773  0.77652735  0.41157022  1  0  -0.066172  0  3.587814  0  0  -0.133039  0  3.832807  0  0  -0.129147  0  3.84287  0  0  -0.049745  -0.13554  0  3.826101  0
C  C26  1  0.89401906  0.20224202  0.40801308  1  0  -0.096368  0  3.71587  0  0  -0.070603  0  3.954968  0  0  -0.083837  0  3.976013  0  0  -0.005343  -0.062556  0  3.941393  0
C  C27  1  0.10598150  0.79775912  0.59198989  1  0  -0.096456  0  3.715841  0  0  -0.070669  0  3.954937  0  0  -0.083906  0  3.975983  0  0  -0.005379  -0.062626  0  3.941362  0
C  C28  1  0.05899382  0.17645498  0.43649344  1  0  0.095416  0  3.574444  0  0  0.043106  0  3.825185  0  0  0.053633  0  3.839326  0  0  0.071696  0.036357  0  3.815886  0
C  C29  1  0.94100784  0.82354497  0.56350844  1  0  0.095477  0  3.57434  0  0  0.043093  0  3.825163  0  0  0.053621  0  3.839303  0  0  0.071692  0.036351  0  3.815862  0
C  C30  1  0.42136120  0.36623374  0.54295241  1  0  0.065511  0  3.744921  0  0  0.084319  0  3.986724  0  0  0.083057  0  4.011061  0  0  -0.012336  0.085249  0  3.970065  0
C  C31  1  0.57863800  0.63376631  0.45704676  1  0  0.065516  0  3.745011  0  0  0.084314  0  3.986819  0  0  0.08305  0  4.011159  0  0  -0.012342  0.085239  0  3.970169  0
C  C32  1  0.83130946  0.30115403  0.51575660  1  0  0.019119  0  3.638334  0  0  -0.01601  0  3.890733  0  0  -0.006882  0  3.905214  0  0  -0.047578  -0.021721  0  3.881049  0
C  C33  1  0.16868966  0.69884484  0.48424247  1  0  0.019116  0  3.63838  0  0  -0.01598  0  3.890782  0  0  -0.006844  0  3.905254  0  0  -0.047557  -0.021692  0  3.881089  0
C  C34  1  0.51421632  0.46951616  0.66044375  1  0  -0.110384  0  3.724148  0  0  -0.12845  0  3.970906  0  0  -0.130953  0  3.990806  0  0  -0.086762  -0.126646  0  3.957363  0
C  C35  1  0.48578295  0.53048508  0.33955435  1  0  -0.110401  0  3.72409  0  0  -0.128447  0  3.970826  0  0  -0.130954  0  3.990731  0  0  -0.086734  -0.126646  0  3.957298  0
C  C36  1  0.09748829  0.34188523  0.67229786  1  0  0.116941  0  3.550033  0  0  0.071883  0  3.8025  0  0  0.082014  0  3.816093  0  0  0.07285  0.065288  0  3.793563  0
C  C37  1  0.90251093  0.65811479  0.32770248  1  0  0.117004  0  3.550014  0  0  0.07194  0  3.802491  0  0  0.082072  0  3.816076  0  0  0.072888  0.065348  0  3.793556  0
C  C38  1  0.40755124  0.39701272  0.38270109  1  0  -0.10614  0  3.728276  0  0  -0.127369  0  3.979951  0  0  -0.128909  0  3.999584  0  0  -0.09233  -0.126258  0  3.966696  0
C  C39  1  0.59244673  0.60298739  0.61729556  1  0  -0.106172  0  3.728422  0  0  -0.127398  0  3.980085  0  0  -0.128932  0  3.99972  0  0  -0.09234  -0.126285  0  3.96683  0
C  C40  1  0.93408051  0.36963545  0.65052844  1  0  -0.087624  0  3.686483  0  0  -0.102879  0  3.950965  0  0  -0.111481  0  3.970457  0  0  -0.067046  -0.097726  0  3.938426  0
C  C41  1  0.06592003  0.63036571  0.34947335  1  0  -0.087665  0  3.686569  0  0  -0.102925  0  3.951057  0  0  -0.111527  0  3.970541  0  0  -0.067054  -0.097771  0  3.93851  0
N  N42  1  0.15651732  0.24742480  0.56489948  1  0  0.00803  0  3.536926  0  0  0.105098  0  3.744  0  0  0.090593  0  3.769894  0  0  -0.204766  0.114419  0  3.726531  0
N  N43  1  0.84348202  0.75257637  0.43510330  1  0  0.007988  0  3.536883  0  0  0.10508  0  3.743968  0  0  0.090574  0  3.769865  0  0  -0.2048  0.114398  0  3.726504  0
Cl  Cl44  1  0.70440519  0.05935984  0.81149849  1  0  -0.603558  0  0.865741  0  0  -0.539977  0  1.124679  0  0  -0.561149  0  1.103391  0  0  -0.32092  -0.524556  0  1.139103  0
Cl  Cl45  1  0.29559672  0.94064366  0.18850254  1  0  -0.603522  0  0.865734  0  0  -0.539946  0  1.124677  0  0  -0.561119  0  1.103393  0  0  -0.320907  -0.524525  0  1.139099  0
Cl  Cl46  1  0.93033718  0.70816650  0.93840223  1  0  -0.599472  0  0.915895  0  0  -0.537558  0  1.160198  0  0  -0.558602  0  1.141652  0  0  -0.304931  -0.521879  0  1.17269  0
Cl  Cl47  1  0.06966448  0.29183471  0.06159392  1  0  -0.599475  0  0.915904  0  0  -0.537567  0  1.16022  0  0  -0.558614  0  1.141673  0  0  -0.304923  -0.521882  0  1.172717  0
O  O48  1  0.84675058  0.99529768  0.20571271  1  0  -0.666442  0  2.073796  0  0  -0.608815  0  2.335338  0  0  -0.637324  0  2.326475  0  0  -0.3385  -0.5886  0  2.340468  0
O  O49  1  0.15325227  0.00470226  0.79428820  1  0  -0.666464  0  2.073871  0  0  -0.608855  0  2.335457  0  0  -0.637343  0  2.326552  0  0  -0.338496  -0.588645  0  2.340592  0
O  O50  1  0.64883980  0.16561123  0.21908872  1  0  -0.641404  0  2.011836  0  0  -0.576768  0  2.251053  0  0  -0.607155  0  2.242896  0  0  -0.318916  -0.55551  0  2.255853  0
O  O51  1  0.35116070  0.83438996  0.78091074  1  0  -0.641412  0  2.011808  0  0  -0.576783  0  2.251026  0  0  -0.607169  0  2.24287  0  0  -0.318923  -0.555531  0  2.255834  0
O  O52  1  0.41258950  0.27076527  0.98278626  1  0  -0.81446  0  1.883418  0  0  -0.759461  0  2.069889  0  0  -0.780736  0  2.041036  0  0  -0.579112  -0.744326  0  2.089845  0
O  O53  1  0.58741102  0.72923590  0.01721437  1  0  -0.81449  0  1.883427  0  0  -0.759475  0  2.069886  0  0  -0.780761  0  2.041056  0  0  -0.579108  -0.744338  0  2.089839  0
