# generated using pymatgen
data_ZnP2H18C18(NO3)2
_symmetry_space_group_name_H-M   'P 1'
_cell_length_a   9.20443025
_cell_length_b   9.84357764
_cell_length_c   12.13017264
_cell_angle_alpha   88.31578729
_cell_angle_beta   79.00288964
_cell_angle_gamma   65.50162772
_symmetry_Int_Tables_number   1
_chemical_formula_structural   ZnP2H18C18(NO3)2
_chemical_formula_sum   'Zn2 P4 H36 C36 N4 O12'
_cell_volume   980.21800261
_cell_formula_units_Z   2
loop_
 _symmetry_equiv_pos_site_id
 _symmetry_equiv_pos_as_xyz
  1  'x, y, z'
loop_
 _atom_site_type_symbol
 _atom_site_label
 _atom_site_symmetry_multiplicity
 _atom_site_fract_x
 _atom_site_fract_y
 _atom_site_fract_z
 _atom_site_occupancy
 _atom_site_pbe_bader_spin_density
 _atom_site_pbe_cm5_charge
 _atom_site_pbe_ddec_charge
 _atom_site_pbe_ddec_spin_density
 _atom_site_pbe_ddec_sum_bond_order
 _atom_site_pbe_magmom
Zn  Zn0  1  0.32551907  0.41327515  0.15607422  1  0  0.71484  0.901172  0  2.333969  0
Zn  Zn1  1  0.67448560  0.58672459  0.84392497  1  0  0.714843  0.901184  0  2.333956  0
P  P2  1  0.32200710  0.70812077  0.02431320  1  0  0.365113  1.299963  0  5.303802  0
P  P3  1  0.67799366  0.29187780  0.97568498  1  0  0.365197  1.300146  0  5.303627  0
P  P4  1  0.33655007  0.52149274  0.39785658  1  0  0.362984  1.278341  0  5.340854  0
P  P5  1  0.66345171  0.47850366  0.60214401  1  0  0.362883  1.278199  0  5.341099  0
H  H6  1  0.36954781  0.67223944  0.19407869  1  0  0.308301  0.396659  0  0.941789  0
H  H7  1  0.63045193  0.32776131  0.80591790  1  0  0.308281  0.396613  0  0.941848  0
H  H8  1  0.41905755  0.64172475  0.51036341  1  0  0.298807  0.399708  0  0.951794  0
H  H9  1  0.58094754  0.35827166  0.48963668  1  0  0.298801  0.399702  0  0.951811  0
H  H10  1  0.38759463  0.99078872  0.94252877  1  0  0.091431  0.133288  0  1.025555  0
H  H11  1  0.61240935  0.00920775  0.05747395  1  0  0.091416  0.133267  0  1.025567  0
H  H12  1  0.34291246  0.99409611  0.09003925  1  0  0.090873  0.135463  0  1.028807  0
H  H13  1  0.65708107  0.00590133  0.90996089  1  0  0.090887  0.135446  0  1.028777  0
H  H14  1  0.26348270  0.16379605  0.01979460  1  0  0.085696  0.121542  0  1.017486  0
H  H15  1  0.73651687  0.83620036  0.98020715  1  0  0.085684  0.12153  0  1.017456  0
H  H16  1  0.00642011  0.74780958  0.00011233  1  0  0.094035  0.090902  0  1.068086  0
H  H17  1  0.99357843  0.25218904  0.99988865  1  0  0.094027  0.090872  0  1.067995  0
H  H18  1  0.73508081  0.69809890  0.47714929  1  0  0.099696  0.102016  0  1.024785  0
H  H19  1  0.26491722  0.30190086  0.52285254  1  0  0.099686  0.102041  0  1.024825  0
H  H20  1  0.85962050  0.85294833  0.39519874  1  0  0.084944  0.116497  0  1.029526  0
H  H21  1  0.14038503  0.14704463  0.60479813  1  0  0.084932  0.116472  0  1.029533  0
H  H22  1  0.02296203  0.74082781  0.28615883  1  0  0.09374  0.139178  0  1.00651  0
H  H23  1  0.97704290  0.25916410  0.71384065  1  0  0.093725  0.139128  0  1.006565  0
H  H24  1  0.06522377  0.81162940  0.40205712  1  0  0.092682  0.135298  0  1.017533  0
H  H25  1  0.93477964  0.18836577  0.59793915  1  0  0.092684  0.13529  0  1.017499  0
H  H26  1  0.59387308  0.14444864  0.25008973  1  0  0.125333  0.104216  0  0.971745  0
H  H27  1  0.40612937  0.85555116  0.74991226  1  0  0.125351  0.104195  0  0.971741  0
H  H28  1  0.61555451  0.90940515  0.34893207  1  0  0.106201  0.106242  0  1.019732  0
H  H29  1  0.38444564  0.09059244  0.65107119  1  0  0.106219  0.106286  0  1.01975  0
H  H30  1  0.36311265  0.86102548  0.40040971  1  0  0.111456  0.123935  0  1.023053  0
H  H31  1  0.63688437  0.13897640  0.59958806  1  0  0.111462  0.123933  0  1.023031  0
H  H32  1  0.10447104  0.04662941  0.35456789  1  0  0.111713  0.116188  0  0.99985  0
H  H33  1  0.89552980  0.95337133  0.64542771  1  0  0.111688  0.11615  0  0.999878  0
H  H34  1  0.89094335  0.22647692  0.32868998  1  0  0.113681  0.122831  0  0.991269  0
H  H35  1  0.10906147  0.77352735  0.67131064  1  0  0.113661  0.122781  0  0.991274  0
H  H36  1  0.66006862  0.42180329  0.25850868  1  0  0.113945  0.117128  0  1.015529  0
H  H37  1  0.33993213  0.57819541  0.74149444  1  0  0.113975  0.117199  0  1.015469  0
H  H38  1  0.70719692  0.62046584  0.14213428  1  0  0.114389  0.127724  0  0.993038  0
H  H39  1  0.29279678  0.37953603  0.85786399  1  0  0.114372  0.12766  0  0.993107  0
H  H40  1  0.99320931  0.60856912  0.09999554  1  0  0.113353  0.080803  0  1.056261  0
H  H41  1  0.00678411  0.39144077  0.90000904  1  0  0.113349  0.080858  0  1.056179  0
C  C42  1  0.29125874  0.04415000  0.01657908  1  0  -0.247563  -0.422942  0  3.944777  0
C  C43  1  0.70873980  0.95584862  0.98342191  1  0  -0.247553  -0.422933  0  3.944754  0
C  C44  1  0.14269338  0.01902490  0.01050007  1  0  -0.008015  0.181085  0  3.960718  0
C  C45  1  0.85730466  0.98097470  0.98949600  1  0  -0.008016  0.181137  0  3.960842  0
C  C46  1  0.14252255  0.87568818  0.01324181  1  0  -0.029932  -0.246623  0  3.965662  0
C  C47  1  0.85747550  0.12431133  0.98675096  1  0  -0.029941  -0.246776  0  3.965895  0
C  C48  1  0.00156883  0.86018840  0.00171689  1  0  -0.094854  -0.143566  0  3.999238  0
C  C49  1  0.99842811  0.13981120  0.99827934  1  0  -0.094833  -0.143472  0  3.99912  0
C  C50  1  0.85316786  0.61130742  0.48597346  1  0  -0.090799  -0.134527  0  3.987677  0
C  C51  1  0.14683348  0.38869248  0.51403200  1  0  -0.090846  -0.134732  0  3.987754  0
C  C52  1  0.98475644  0.76599724  0.37761835  1  0  -0.243513  -0.424254  0  3.958318  0
C  C53  1  0.01524798  0.23399581  0.62238198  1  0  -0.243499  -0.424214  0  3.958215  0
C  C54  1  0.99525103  0.62865558  0.43999346  1  0  -0.005942  0.178552  0  3.956701  0
C  C55  1  0.00474641  0.37134308  0.56000933  1  0  -0.005918  0.178703  0  3.956511  0
C  C56  1  0.14449056  0.51375230  0.45497600  1  0  -0.031375  -0.259918  0  3.987473  0
C  C57  1  0.85551054  0.48624085  0.54502895  1  0  -0.031331  -0.259909  0  3.987512  0
C  C58  1  0.48895495  0.11805808  0.27630452  1  0  0.06242  0.127068  0  3.931605  0
C  C59  1  0.51104581  0.88194051  0.72369448  1  0  0.06241  0.127119  0  3.931541  0
C  C60  1  0.49932182  0.98887369  0.33109079  1  0  -0.077872  -0.128415  0  3.954603  0
C  C61  1  0.50067673  0.01112487  0.66890772  1  0  -0.077916  -0.128555  0  3.954719  0
C  C62  1  0.35942698  0.96265879  0.36031791  1  0  -0.061586  -0.013968  0  3.931189  0
C  C63  1  0.64056774  0.03734085  0.63968030  1  0  -0.061511  -0.013851  0  3.931059  0
C  C64  1  0.21406747  0.06669171  0.33462091  1  0  -0.07246  -0.143644  0  3.920412  0
C  C65  1  0.78593123  0.93331139  0.66537986  1  0  -0.072493  -0.143646  0  3.920305  0
C  C66  1  0.21235420  0.19445264  0.28018108  1  0  0.125854  0.164919  0  4.009146  0
C  C67  1  0.78764620  0.80555162  0.71982021  1  0  0.125856  0.164922  0  4.009251  0
C  C68  1  0.06561610  0.31018135  0.24666766  1  0  0.125709  0.170307  0  3.986148  0
C  C69  1  0.93438388  0.68982629  0.75333438  1  0  0.125667  0.170134  0  3.986656  0
C  C70  1  0.91075461  0.31091191  0.27588506  1  0  -0.068973  -0.140051  0  3.904349  0
C  C71  1  0.08924537  0.68909563  0.72411368  1  0  -0.068934  -0.139848  0  3.904333  0
C  C72  1  0.78035075  0.42215963  0.23811060  1  0  -0.053095  0.00324  0  3.894682  0
C  C73  1  0.21964473  0.57784572  0.76189139  1  0  -0.053075  0.003108  0  3.894767  0
C  C74  1  0.80638646  0.53270571  0.17381223  1  0  -0.071426  -0.104269  0  3.915314  0
C  C75  1  0.19360960  0.46730081  0.82619127  1  0  -0.071477  -0.104159  0  3.915426  0
C  C76  1  0.96322487  0.52624285  0.14914298  1  0  0.050738  0.09934  0  3.943373  0
C  C77  1  0.03676855  0.47376703  0.85086077  1  0  0.050681  0.09919  0  3.943386  0
N  N78  1  0.34892659  0.21751674  0.25155592  1  0  -0.316724  -0.288239  0  3.531274  0
N  N79  1  0.65107374  0.78248522  0.74844383  1  0  -0.31673  -0.288228  0  3.531306  0
N  N80  1  0.08972439  0.41736300  0.18349895  1  0  -0.320078  -0.289369  0  3.547766  0
N  N81  1  0.91027354  0.58264906  0.81650156  1  0  -0.319972  -0.289241  0  3.548064  0
O  O82  1  0.44468739  0.69927992  0.91839895  1  0  -0.373497  -0.742545  0  2.37426  0
O  O83  1  0.55531550  0.30071644  0.08159982  1  0  -0.373509  -0.742586  0  2.374198  0
O  O84  1  0.38838552  0.73570815  0.13044679  1  0  -0.395109  -0.667532  0  2.204784  0
O  O85  1  0.61161031  0.26429150  0.86955126  1  0  -0.395157  -0.667557  0  2.204706  0
O  O86  1  0.27096460  0.57914776  0.04364822  1  0  -0.375952  -0.759099  0  2.323103  0
O  O87  1  0.72903623  0.42085309  0.95635150  1  0  -0.37597  -0.759154  0  2.323074  0
O  O88  1  0.47365613  0.37724120  0.42041524  1  0  -0.371559  -0.737113  0  2.224307  0
O  O89  1  0.52634786  0.62275520  0.57958502  1  0  -0.371563  -0.737107  0  2.224366  0
O  O90  1  0.33311087  0.66400547  0.45567241  1  0  -0.384537  -0.685043  0  2.258087  0
O  O91  1  0.66689313  0.33599092  0.54432702  1  0  -0.384543  -0.685041  0  2.258086  0
O  O92  1  0.34015117  0.54957279  0.27204961  1  0  -0.363048  -0.742416  0  2.394403  0
O  O93  1  0.65985222  0.45042249  0.72795078  1  0  -0.362976  -0.742332  0  2.394452  0
