# generated using pymatgen
data_GdH3C4O9
_symmetry_space_group_name_H-M   'P 1'
_cell_length_a   10.72807435
_cell_length_b   9.94723560
_cell_length_c   12.19907620
_cell_angle_alpha   89.99446123
_cell_angle_beta   107.75085278
_cell_angle_gamma   90.00299286
_symmetry_Int_Tables_number   1
_chemical_formula_structural   GdH3C4O9
_chemical_formula_sum   'Gd4 H12 C16 O36'
_cell_volume   1239.84251064
_cell_formula_units_Z   4
loop_
 _symmetry_equiv_pos_site_id
 _symmetry_equiv_pos_as_xyz
  1  'x, y, z'
loop_
 _atom_site_type_symbol
 _atom_site_label
 _atom_site_symmetry_multiplicity
 _atom_site_fract_x
 _atom_site_fract_y
 _atom_site_fract_z
 _atom_site_occupancy
 _atom_site_hle17_bader_spin_density
 _atom_site_hle17_ddec_charge
 _atom_site_hle17_ddec_spin_density
 _atom_site_hle17_ddec_sum_bond_order
 _atom_site_hle17_magmom
 _atom_site_hse06_10hf_bader_spin_density
 _atom_site_hse06_10hf_ddec_charge
 _atom_site_hse06_10hf_ddec_spin_density
 _atom_site_hse06_10hf_ddec_sum_bond_order
 _atom_site_hse06_10hf_magmom
 _atom_site_hse06_bader_spin_density
 _atom_site_hse06_ddec_charge
 _atom_site_hse06_ddec_spin_density
 _atom_site_hse06_ddec_sum_bond_order
 _atom_site_hse06_magmom
 _atom_site_pbe_bader_spin_density
 _atom_site_pbe_cm5_charge
 _atom_site_pbe_ddec_charge
 _atom_site_pbe_ddec_spin_density
 _atom_site_pbe_ddec_sum_bond_order
 _atom_site_pbe_magmom
Gd  Gd0  1  0.20463264  0.57198828  0.38512777  1  0  2.104761  0  1.837259  0  0  2.007913  0  2.203914  0  0  2.060385  0  2.150895  0  0  1.486205  1.967993  0  2.245208  0
Gd  Gd1  1  0.29531275  0.07203238  0.11479597  1  0  2.105205  0  1.836542  0  0  2.008333  0  2.203272  0  0  2.060803  0  2.15024  0  0  1.486197  1.968354  0  2.244697  0
Gd  Gd2  1  0.79523056  0.42801120  0.61480190  1  0  2.104822  0  1.836993  0  0  2.008001  0  2.203665  0  0  2.060631  0  2.150359  0  0  1.486196  1.968096  0  2.244957  0
Gd  Gd3  1  0.70481473  0.92798117  0.88528488  1  0  2.104915  0  1.837221  0  0  2.007855  0  2.204274  0  0  2.060553  0  2.150846  0  0  1.486253  1.968101  0  2.245355  0
H  H4  1  0.09189006  0.75867263  0.16143680  1  0  0.446927  0  0.845492  0  0  0.41451  0  0.909771  0  0  0.426112  0  0.893051  0  0  0.308545  0.406269  0  0.921631  0
H  H5  1  0.40796942  0.25873116  0.33854871  1  0  0.447376  0  0.844906  0  0  0.414875  0  0.909307  0  0  0.426503  0  0.892556  0  0  0.30869  0.406634  0  0.921168  0
H  H6  1  0.90812943  0.24131580  0.83852637  1  0  0.44685  0  0.845595  0  0  0.414415  0  0.909927  0  0  0.426003  0  0.893215  0  0  0.308471  0.406174  0  0.921789  0
H  H7  1  0.59202681  0.74122911  0.66148058  1  0  0.447458  0  0.844799  0  0  0.414975  0  0.909158  0  0  0.426602  0  0.892413  0  0  0.308724  0.406731  0  0.921022  0
H  H8  1  0.12813083  0.55176093  0.11390022  1  0  0.407288  0  0.869022  0  0  0.375091  0  0.951176  0  0  0.386973  0  0.938757  0  0  0.315492  0.366738  0  0.959808  0
H  H9  1  0.37160058  0.05179221  0.38601541  1  0  0.406868  0  0.869542  0  0  0.374938  0  0.951169  0  0  0.386812  0  0.938754  0  0  0.315554  0.36659  0  0.959785  0
H  H10  1  0.87193654  0.44822449  0.88608315  1  0  0.407231  0  0.869295  0  0  0.374995  0  0.951502  0  0  0.386879  0  0.939088  0  0  0.315398  0.366642  0  0.960123  0
H  H11  1  0.62837443  0.94815298  0.61402200  1  0  0.406919  0  0.869562  0  0  0.374887  0  0.951372  0  0  0.386772  0  0.938945  0  0  0.3154  0.366531  0  0.960001  0
H  H12  1  0.98104200  0.66582419  0.18210756  1  0  0.470106  0  0.763955  0  0  0.44898  0  0.818237  0  0  0.458192  0  0.807712  0  0  0.348532  0.442323  0  0.825929  0
H  H13  1  0.51882983  0.16583235  0.31798315  1  0  0.470105  0  0.764012  0  0  0.449078  0  0.818207  0  0  0.458245  0  0.807736  0  0  0.34849  0.442453  0  0.825861  0
H  H14  1  0.01891834  0.33420446  0.81778793  1  0  0.469953  0  0.763981  0  0  0.448917  0  0.818119  0  0  0.458088  0  0.807696  0  0  0.348425  0.442283  0  0.825764  0
H  H15  1  0.48123538  0.83416209  0.68213633  1  0  0.470095  0  0.763793  0  0  0.44906  0  0.817993  0  0  0.45823  0  0.807528  0  0  0.34844  0.44243  0  0.825644  0
C  C16  1  0.28719655  0.87950277  0.39314423  1  0  0.55779  0  3.777068  0  0  0.507823  0  4.089229  0  0  0.538088  0  4.078111  0  0  0.250283  0.487119  0  4.096424  0
C  C17  1  0.21261645  0.37952897  0.10677464  1  0  0.558307  0  3.777565  0  0  0.508463  0  4.089355  0  0  0.538738  0  4.078215  0  0  0.250519  0.487768  0  4.096534  0
C  C18  1  0.71273012  0.12046455  0.60682847  1  0  0.558496  0  3.777224  0  0  0.508571  0  4.089081  0  0  0.538838  0  4.077963  0  0  0.250633  0.487868  0  4.09628  0
C  C19  1  0.78747105  0.62045946  0.89325879  1  0  0.558274  0  3.777381  0  0  0.508346  0  4.089307  0  0  0.538638  0  4.078144  0  0  0.250259  0.487627  0  4.096535  0
C  C20  1  0.34544134  0.81860763  0.30168397  1  0  0.585286  0  3.948209  0  0  0.542652  0  4.250327  0  0  0.573582  0  4.241144  0  0  0.231681  0.521566  0  4.255897  0
C  C21  1  0.15443865  0.31856412  0.19826087  1  0  0.584811  0  3.949199  0  0  0.542282  0  4.251006  0  0  0.573207  0  4.241834  0  0  0.231578  0.521201  0  4.256558  0
C  C22  1  0.65455700  0.18135667  0.69833751  1  0  0.58512  0  3.949574  0  0  0.542816  0  4.251062  0  0  0.57374  0  4.241906  0  0  0.231855  0.521724  0  4.256648  0
C  C23  1  0.84557247  0.68143034  0.80172449  1  0  0.585729  0  3.948572  0  0  0.543067  0  4.250625  0  0  0.573984  0  4.241462  0  0  0.23182  0.521992  0  4.256189  0
C  C24  1  0.94687822  0.53967943  0.45283404  1  0  0.57346  0  3.917136  0  0  0.532477  0  4.219462  0  0  0.562192  0  4.211995  0  0  0.228599  0.512369  0  4.223514  0
C  C25  1  0.55307992  0.03975932  0.04712390  1  0  0.572649  0  3.918571  0  0  0.531885  0  4.220554  0  0  0.561587  0  4.213098  0  0  0.228503  0.511781  0  4.224597  0
C  C26  1  0.05296156  0.46036228  0.54710085  1  0  0.573195  0  3.91793  0  0  0.532356  0  4.220023  0  0  0.562025  0  4.21262  0  0  0.228645  0.51225  0  4.224067  0
C  C27  1  0.44705067  0.96030551  0.95292960  1  0  0.573078  0  3.918408  0  0  0.532117  0  4.220604  0  0  0.561822  0  4.213137  0  0  0.228333  0.512011  0  4.224653  0
C  C28  1  0.50466647  0.55980842  0.54158391  1  0  0.58132  0  3.883472  0  0  0.538359  0  4.180282  0  0  0.568889  0  4.171402  0  0  0.233605  0.517464  0  4.185626  0
C  C29  1  0.99532855  0.05977234  0.95835582  1  0  0.58151  0  3.882864  0  0  0.538404  0  4.179658  0  0  0.568952  0  4.170795  0  0  0.233761  0.517509  0  4.184989  0
C  C30  1  0.49518134  0.44019006  0.45839452  1  0  0.581268  0  3.883867  0  0  0.538115  0  4.18082  0  0  0.568648  0  4.17194  0  0  0.233825  0.517219  0  4.18616  0
C  C31  1  0.00479758  0.94024323  0.04165155  1  0  0.58137  0  3.884027  0  0  0.538681  0  4.180279  0  0  0.569141  0  4.171504  0  0  0.234006  0.517808  0  4.185595  0
O  O32  1  0.21242282  0.80993468  0.42935548  1  0  -0.553042  0  2.014843  0  0  -0.519516  0  2.236443  0  0  -0.54002  0  2.226592  0  0  -0.316629  -0.505071  0  2.243135  0
O  O33  1  0.28740675  0.31001319  0.07055624  1  0  -0.553471  0  2.014348  0  0  -0.520043  0  2.235933  0  0  -0.540545  0  2.22606  0  0  -0.316855  -0.505597  0  2.242632  0
O  O34  1  0.78745102  0.19004269  0.57056561  1  0  -0.553573  0  2.014406  0  0  -0.520123  0  2.235981  0  0  -0.540645  0  2.226109  0  0  -0.317049  -0.505682  0  2.242679  0
O  O35  1  0.71273716  0.68999031  0.92953610  1  0  -0.553479  0  2.014106  0  0  -0.52  0  2.235739  0  0  -0.540535  0  2.225844  0  0  -0.316692  -0.505577  0  2.242437  0
O  O36  1  0.31932664  0.00222346  0.43020472  1  0  -0.458359  0  2.085445  0  0  -0.411075  0  2.285578  0  0  -0.431245  0  2.27099  0  0  -0.295294  -0.397259  0  2.295487  0
O  O37  1  0.18040803  0.50223682  0.06969635  1  0  -0.458935  0  2.085742  0  0  -0.411501  0  2.28582  0  0  -0.431685  0  2.271227  0  0  -0.295233  -0.397685  0  2.295731  0
O  O38  1  0.68057994  0.99774184  0.56977798  1  0  -0.45862  0  2.085562  0  0  -0.411298  0  2.285674  0  0  -0.43148  0  2.271074  0  0  -0.295212  -0.397479  0  2.295591  0
O  O39  1  0.81968599  0.49774759  0.93031534  1  0  -0.459029  0  2.086076  0  0  -0.411447  0  2.286119  0  0  -0.431639  0  2.271518  0  0  -0.295153  -0.397621  0  2.296038  0
O  O40  1  0.34224427  0.69242646  0.29570042  1  0  -0.620153  0  2.02509  0  0  -0.586162  0  2.251193  0  0  -0.610087  0  2.242708  0  0  -0.357518  -0.569254  0  2.256888  0
O  O41  1  0.15761917  0.19238171  0.20419569  1  0  -0.619962  0  2.025124  0  0  -0.586022  0  2.251212  0  0  -0.609946  0  2.242736  0  0  -0.357444  -0.569111  0  2.2569  0
O  O42  1  0.65771311  0.30753985  0.70429319  1  0  -0.620161  0  2.025044  0  0  -0.586299  0  2.250999  0  0  -0.61024  0  2.242513  0  0  -0.35765  -0.569391  0  2.256691  0
O  O43  1  0.84245143  0.80761878  0.79584096  1  0  -0.620235  0  2.024786  0  0  -0.586205  0  2.250931  0  0  -0.610156  0  2.242441  0  0  -0.357487  -0.569322  0  2.256604  0
O  O44  1  0.38692749  0.89943593  0.24114322  1  0  -0.658509  0  2.064832  0  0  -0.621034  0  2.302111  0  0  -0.645336  0  2.290786  0  0  -0.391375  -0.603632  0  2.30956  0
O  O45  1  0.11300183  0.39934352  0.25886225  1  0  -0.658296  0  2.065447  0  0  -0.620875  0  2.302639  0  0  -0.645173  0  2.291317  0  0  -0.391322  -0.603486  0  2.31009  0
O  O46  1  0.61314886  0.10053439  0.75893324  1  0  -0.65852  0  2.065955  0  0  -0.621147  0  2.303113  0  0  -0.64548  0  2.291769  0  0  -0.391455  -0.603776  0  2.310551  0
O  O47  1  0.88688584  0.60066502  0.74103362  1  0  -0.658866  0  2.065561  0  0  -0.621391  0  2.302858  0  0  -0.645711  0  2.291523  0  0  -0.391425  -0.604002  0  2.310301  0
O  O48  1  0.98557780  0.59970767  0.37766269  1  0  -0.639103  0  2.014206  0  0  -0.602619  0  2.243696  0  0  -0.625883  0  2.232165  0  0  -0.381443  -0.585613  0  2.251058  0
O  O49  1  0.51433567  0.09983179  0.12224327  1  0  -0.638744  0  2.014853  0  0  -0.602324  0  2.244218  0  0  -0.625593  0  2.232692  0  0  -0.381199  -0.585306  0  2.251573  0
O  O50  1  0.01427044  0.40030791  0.62226072  1  0  -0.638629  0  2.01536  0  0  -0.602183  0  2.244779  0  0  -0.625455  0  2.23327  0  0  -0.38107  -0.585179  0  2.252131  0
O  O51  1  0.48579564  0.90020187  0.87782764  1  0  -0.638663  0  2.015124  0  0  -0.602173  0  2.244595  0  0  -0.625471  0  2.23305  0  0  -0.381152  -0.585189  0  2.25194  0
O  O52  1  0.83146979  0.53716635  0.45932707  1  0  -0.632472  0  2.001493  0  0  -0.598884  0  2.226689  0  0  -0.621715  0  2.215687  0  0  -0.382861  -0.582949  0  2.234329  0
O  O53  1  0.66848751  0.03730719  0.04063315  1  0  -0.632164  0  2.00177  0  0  -0.598602  0  2.226875  0  0  -0.621438  0  2.215872  0  0  -0.382957  -0.582695  0  2.234499  0
O  O54  1  0.16837292  0.46289044  0.54060840  1  0  -0.632555  0  2.001234  0  0  -0.599012  0  2.226346  0  0  -0.621809  0  2.215371  0  0  -0.383138  -0.583075  0  2.233993  0
O  O55  1  0.33163861  0.96277774  0.95941371  1  0  -0.63243  0  2.001341  0  0  -0.598858  0  2.226505  0  0  -0.621664  0  2.215512  0  0  -0.38295  -0.582915  0  2.234149  0
O  O56  1  0.40106996  0.62071558  0.53825930  1  0  -0.627689  0  2.053583  0  0  -0.588626  0  2.283303  0  0  -0.612672  0  2.274581  0  0  -0.353756  -0.571891  0  2.289396  0
O  O57  1  0.09895273  0.12058861  0.96158704  1  0  -0.627905  0  2.053092  0  0  -0.588815  0  2.282859  0  0  -0.612862  0  2.274123  0  0  -0.354078  -0.572075  0  2.288955  0
O  O58  1  0.59879086  0.37930802  0.46172501  1  0  -0.627668  0  2.05381  0  0  -0.588541  0  2.283619  0  0  -0.61261  0  2.274884  0  0  -0.354088  -0.571806  0  2.289712  0
O  O59  1  0.90117322  0.87945813  0.03845813  1  0  -0.627895  0  2.053827  0  0  -0.588896  0  2.283421  0  0  -0.612944  0  2.27471  0  0  -0.354308  -0.572193  0  2.2895  0
O  O60  1  0.61898144  0.58929696  0.60753692  1  0  -0.657868  0  2.035686  0  0  -0.609078  0  2.259718  0  0  -0.635716  0  2.25005  0  0  -0.344726  -0.590389  0  2.266138  0
O  O61  1  0.88101605  0.08930522  0.89243562  1  0  -0.657641  0  2.035537  0  0  -0.608841  0  2.25966  0  0  -0.635472  0  2.249984  0  0  -0.344637  -0.590177  0  2.266064  0
O  O62  1  0.38088053  0.41068141  0.39242952  1  0  -0.657768  0  2.036097  0  0  -0.608848  0  2.260106  0  0  -0.635471  0  2.250453  0  0  -0.344684  -0.59016  0  2.266523  0
O  O63  1  0.11910895  0.91069025  0.10756001  1  0  -0.657835  0  2.036278  0  0  -0.60917  0  2.260162  0  0  -0.63576  0  2.250536  0  0  -0.344832  -0.590483  0  2.266568  0
O  O64  1  0.07399427  0.66689451  0.18800199  1  0  -0.879405  0  1.919233  0  0  -0.830634  0  2.108303  0  0  -0.851595  0  2.07879  0  0  -0.579338  -0.815596  0  2.129002  0
O  O65  1  0.42584548  0.16695477  0.31196652  1  0  -0.879866  0  1.918754  0  0  -0.831266  0  2.107799  0  0  -0.852189  0  2.078292  0  0  -0.579474  -0.816263  0  2.128449  0
O  O66  1  0.92597598  0.33309694  0.81192672  1  0  -0.879081  0  1.919096  0  0  -0.830444  0  2.1082  0  0  -0.851371  0  2.078811  0  0  -0.579052  -0.815431  0  2.128832  0
O  O67  1  0.57420715  0.83300349  0.68811180  1  0  -0.879945  0  1.918383  0  0  -0.831284  0  2.107523  0  0  -0.852242  0  2.078003  0  0  -0.579379  -0.816287  0  2.128167  0
