# generated using pymatgen
data_MnH24C28S4(N4O)2
_symmetry_space_group_name_H-M   'P 1'
_cell_length_a   8.15807213
_cell_length_b   9.36245720
_cell_length_c   11.46373316
_cell_angle_alpha   96.50211242
_cell_angle_beta   104.21797104
_cell_angle_gamma   103.39600553
_symmetry_Int_Tables_number   1
_chemical_formula_structural   MnH24C28S4(N4O)2
_chemical_formula_sum   'Mn1 H24 C28 S4 N8 O2'
_cell_volume   812.12999944
_cell_formula_units_Z   1
loop_
 _symmetry_equiv_pos_site_id
 _symmetry_equiv_pos_as_xyz
  1  'x, y, z'
loop_
 _atom_site_type_symbol
 _atom_site_label
 _atom_site_symmetry_multiplicity
 _atom_site_fract_x
 _atom_site_fract_y
 _atom_site_fract_z
 _atom_site_occupancy
 _atom_site_hle17_ddec_charge
 _atom_site_hle17_ddec_spin_density
 _atom_site_hle17_ddec_sum_bond_order
 _atom_site_hle17_magmom
 _atom_site_hse06_10hf_ddec_charge
 _atom_site_hse06_10hf_ddec_spin_density
 _atom_site_hse06_10hf_ddec_sum_bond_order
 _atom_site_hse06_10hf_magmom
 _atom_site_hse06_ddec_charge
 _atom_site_hse06_ddec_spin_density
 _atom_site_hse06_ddec_sum_bond_order
 _atom_site_hse06_magmom
 _atom_site_pbe_cm5_charge
 _atom_site_pbe_ddec_charge
 _atom_site_pbe_ddec_spin_density
 _atom_site_pbe_ddec_sum_bond_order
 _atom_site_pbe_magmom
Mn  Mn0  1  0.50000021  0.49999389  0.49999669  1  1.112142  4.779471  1.933344  4.654  0.950663  4.693633  2.449739  4.497  1.003827  4.744916  2.382996  4.568  0.618684  0.9112  4.638838  2.497875  4.423
H  H1  1  0.62442253  0.53535964  0.78053281  1  0.085257  0.000148  0.96561  0.0  0.083842  0.000689  1.048438  0.0  0.087344  0.000473  1.044373  0.0  0.115073  0.081429  0.000902  1.051191  0.001
H  H2  1  0.37557220  0.46463816  0.21946662  1  0.085218  0.000153  0.965555  0.0  0.083801  0.000689  1.04839  0.0  0.087309  0.000473  1.044307  0.0  0.115051  0.081389  0.000902  1.051141  0.001
H  H3  1  0.76719371  0.28473778  0.52024641  1  0.076513  2.6e-05  0.959129  0.0  0.084391  0.000471  1.022483  0.0  0.086475  0.000298  1.020677  0.0  0.11261  0.08268  0.000665  1.024086  0.0
H  H4  1  0.23280942  0.71526677  0.47975591  1  0.0765  3.3e-05  0.95912  0.0  0.084374  0.000471  1.022481  0.0  0.086459  0.000297  1.020673  0.0  0.112598  0.082663  0.000665  1.02409  0.0
H  H5  1  0.91943404  0.15796951  0.67706184  1  0.100979  0.000258  0.944153  0.0  0.110355  0.000409  1.003467  0.0  0.113674  0.000306  1.00263  0.0  0.106017  0.10788  0.000595  1.004517  0.0
H  H6  1  0.08057391  0.84203841  0.32294072  1  0.101006  0.000249  0.94407  0.0  0.110363  0.000409  1.003405  0.0  0.113683  0.000305  1.002567  0.0  0.106007  0.107886  0.000595  1.004457  0.0
H  H7  1  0.92044329  0.22304475  0.89391672  1  0.095138  -0.000109  0.96849  0.0  0.104824  -1.6e-05  1.034252  0.0  0.106706  -2.8e-05  1.033999  0.0  0.104303  0.103662  -4e-06  1.033951  0.0
H  H8  1  0.07955594  0.77695532  0.10608455  1  0.095192  -0.000107  0.968455  0.0  0.104864  -1.6e-05  1.03421  0.0  0.106758  -2.7e-05  1.033944  0.0  0.104323  0.103706  -4e-06  1.033901  0.0
H  H9  1  0.82676771  0.23745464  0.05221581  1  0.117673  -1.5e-05  0.984565  0.0  0.126669  2.8e-05  1.046625  0.0  0.129599  2e-05  1.047406  0.0  0.105095  0.1245  3.5e-05  1.046437  0.0
H  H10  1  0.17322518  0.76254538  0.94778437  1  0.117709  -7e-06  0.984657  0.0  0.126687  2.8e-05  1.046704  0.0  0.129634  2e-05  1.047466  0.0  0.105098  0.12452  3.5e-05  1.046515  0.0
H  H11  1  0.79982806  0.32940531  0.25870568  1  0.080258  -4.7e-05  0.931266  0.0  0.090827  -1.5e-05  0.990641  0.0  0.093072  -4.2e-05  0.988131  0.0  0.117418  0.088985  8e-06  0.992842  0.0
H  H12  1  0.20016355  0.67059469  0.74129342  1  0.080262  -4.8e-05  0.931212  0.0  0.090853  -1.5e-05  0.990578  0.0  0.093091  -4.2e-05  0.988075  0.0  0.117443  0.089011  8e-06  0.99278  0.0
H  H13  1  0.57964888  0.76907348  0.94552968  1  0.110232  -1.6e-05  0.94836  0.0  0.12061  -1.6e-05  1.017384  0.0  0.121678  -2e-05  1.017596  0.0  0.102196  0.119533  0.0  1.017663  0.0
H  H14  1  0.42034542  0.23093542  0.05446718  1  0.11037  -1.6e-05  0.948291  0.0  0.120706  -1.5e-05  1.017326  0.0  0.121773  -2e-05  1.017537  0.0  0.102223  0.11963  0.0  1.01761  0.0
H  H15  1  0.58448038  0.93501629  0.04063925  1  0.101525  8.5e-05  0.942864  0.0  0.118132  0.0002  1.005242  0.0  0.119442  0.000151  1.004499  0.0  0.09682  0.116849  0.000267  1.006604  0.0
H  H16  1  0.41552182  0.06498937  0.95936301  1  0.101549  8.4e-05  0.942819  0.0  0.118136  0.000199  1.005218  0.0  0.119444  0.000151  1.004473  0.0  0.09683  0.116853  0.000266  1.006579  0.0
H  H17  1  0.78323874  0.81007864  0.82898081  1  0.104162  -0.00014  0.968944  0.0  0.11452  -7.4e-05  1.030255  0.0  0.1167  -0.000131  1.029975  0.0  0.100806  0.112957  -7e-06  1.03033  0.0
H  H18  1  0.21676268  0.18992033  0.17102073  1  0.104133  -0.00015  0.968973  0.0  0.114519  -7.4e-05  1.030257  0.0  0.116712  -0.000132  1.029963  0.0  0.100798  0.112931  -7e-06  1.030359  0.0
H  H19  1  0.92756014  0.06210795  0.19443537  1  0.09119  8.3e-05  0.953986  0.0  0.101479  0.000201  1.014739  0.0  0.104718  0.000151  1.012982  0.0  0.095966  0.099138  0.000261  1.016097  0.0
H  H20  1  0.07243789  0.93789654  0.80556347  1  0.091237  8.8e-05  0.953853  0.0  0.101521  0.000201  1.014621  0.0  0.104759  0.000151  1.012864  0.0  0.095969  0.099174  0.000261  1.01598  0.0
H  H21  1  0.73578779  0.58586484  0.35585408  1  0.384923  -1.2e-05  0.938428  0.001  0.34019  0.000636  1.024756  0.002  0.352115  0.000372  1.007929  0.001  0.275725  0.331667  0.000924  1.036778  0.002
H  H22  1  0.26421284  0.41413971  0.64414956  1  0.384977  -1.3e-05  0.938362  0.001  0.340236  0.000636  1.024693  0.002  0.352163  0.000371  1.007863  0.001  0.275753  0.33171  0.000924  1.036717  0.002
H  H23  1  0.75182311  0.72410141  0.45769296  1  0.415216  4.5e-05  0.829082  0.001  0.399724  0.001131  0.882778  0.001  0.408265  0.000649  0.872869  0.001  0.318801  0.392954  0.001926  0.891031  0.002
H  H24  1  0.24818256  0.27590316  0.54230979  1  0.415148  4.3e-05  0.829256  0.001  0.399689  0.00113  0.882915  0.001  0.408229  0.000648  0.873012  0.001  0.318811  0.392921  0.001926  0.891155  0.002
C  C25  1  0.69178541  0.45159323  0.76098361  1  0.105741  0.002065  3.679654  0.002  0.065834  0.004035  3.937327  0.003  0.073621  0.003325  3.953757  0.003  0.055252  0.060706  0.004826  3.925845  0.004
C  C26  1  0.30820933  0.54840458  0.23901670  1  0.105799  0.002086  3.679573  0.002  0.065899  0.00404  3.937253  0.003  0.073688  0.003323  3.953684  0.003  0.055266  0.060772  0.004826  3.925771  0.004
C  C27  1  0.77090046  0.31162072  0.61602195  1  0.142114  0.001946  3.677994  0.002  0.111924  0.003532  3.926045  0.003  0.119467  0.002808  3.944046  0.003  0.056046  0.107301  0.004776  3.913939  0.004
C  C28  1  0.22909911  0.68838047  0.38397947  1  0.142143  0.001959  3.677868  0.002  0.111944  0.003532  3.925913  0.003  0.119487  0.002812  3.943914  0.003  0.056082  0.107324  0.004777  3.9138  0.004
C  C29  1  0.85491410  0.24090267  0.70346601  1  -0.11332  -0.001141  3.747447  -0.001  -0.1279  -0.000327  4.006607  0.0  -0.135442  -0.000838  4.027542  0.0  -0.083706  -0.123422  -0.00014  3.992274  0.0
C  C30  1  0.14508636  0.75909738  0.29653284  1  -0.113368  -0.001143  3.74748  -0.001  -0.127941  -0.000327  4.006622  0.0  -0.135485  -0.00084  4.027562  0.0  -0.083749  -0.123456  -0.00014  3.992287  0.0
C  C31  1  0.85515744  0.27750403  0.82456112  1  -0.022031  0.001872  3.680651  0.002  -0.053034  0.002945  3.933827  0.002  -0.048068  0.002466  3.951729  0.002  -0.063437  -0.0555  0.004182  3.920385  0.003
C  C32  1  0.14483835  0.72249713  0.17544140  1  -0.022033  0.001889  3.680596  0.002  -0.052995  0.002948  3.93377  0.002  -0.048038  0.002469  3.951663  0.002  -0.063368  -0.055456  0.004182  3.920328  0.003
C  C33  1  0.77391587  0.38687628  0.85533107  1  -0.055949  -0.001048  3.786383  -0.001  -0.035684  -0.000511  4.020973  0.0  -0.044433  -0.000931  4.045292  -0.001  -0.009507  -0.030002  -0.00027  4.004566  0.0
C  C34  1  0.22608045  0.61312262  0.14466698  1  -0.055951  -0.001071  3.786231  -0.001  -0.035725  -0.000519  4.020859  0.0  -0.044474  -0.000932  4.045176  -0.001  -0.009529  -0.030038  -0.00027  4.004454  0.0
C  C35  1  0.76606227  0.43131197  0.98084429  1  0.269206  0.000297  3.774484  0.0  0.261902  0.000407  4.023134  0.0  0.275623  0.000318  4.038863  0.0  0.134357  0.253022  0.000871  4.012487  0.001
C  C36  1  0.23393278  0.56868693  0.01915355  1  0.269202  0.000304  3.774453  0.0  0.261886  0.000406  4.023131  0.0  0.275607  0.000322  4.038866  0.0  0.134363  0.253003  0.00087  4.012494  0.001
C  C37  1  0.79573027  0.34302194  0.07061823  1  -0.222814  -5.3e-05  3.674696  0.0  -0.241066  -5.1e-05  3.926608  0.0  -0.252553  -0.000135  3.946029  0.0  -0.090558  -0.234169  0.000113  3.913939  0.0
C  C38  1  0.20426182  0.65698365  0.92938407  1  -0.222919  -5.9e-05  3.674658  0.0  -0.241139  -5.1e-05  3.926597  0.0  -0.252641  -0.000139  3.946004  0.0  -0.090583  -0.234244  0.000113  3.913936  0.0
C  C39  1  0.78148557  0.39417700  0.18543220  1  0.202926  -0.000119  3.689091  0.0  0.170288  0.0  3.940504  0.0  0.182022  -4.4e-05  3.954499  0.0  0.068457  0.162538  0.000241  3.931228  0.0
C  C40  1  0.21850543  0.60582521  0.81456524  1  0.202935  -0.000115  3.688811  0.0  0.170258  1e-06  3.940248  0.0  0.182001  -4.3e-05  3.95425  0.0  0.068396  0.16251  0.000241  3.930973  0.0
C  C41  1  0.71651587  0.60116514  0.11903009  1  0.344425  4e-05  3.824354  0.0  0.321975  0.000135  4.115199  0.0  0.340049  9.8e-05  4.12696  0.0  0.240399  0.309887  0.000281  4.106872  0.0
C  C42  1  0.28347731  0.39883597  0.88096676  1  0.344438  6.6e-05  3.824359  0.0  0.321894  0.000136  4.115359  0.0  0.339976  9.9e-05  4.127113  0.0  0.240427  0.309807  0.000281  4.107021  0.0
C  C43  1  0.65829734  0.85313533  0.02636803  1  -0.181583  0.000117  3.676247  0.0  -0.224269  0.000306  3.929113  0.0  -0.222888  0.00023  3.938855  0.0  -0.143046  -0.225241  0.000332  3.923168  0.0
C  C44  1  0.34170289  0.14686807  0.97363196  1  -0.181669  0.00012  3.6762  0.0  -0.224278  0.000305  3.929038  0.0  -0.222912  0.000231  3.938818  0.0  -0.143061  -0.225245  0.000332  3.923084  0.0
C  C45  1  0.83537733  0.92772462  0.01333200  1  0.08812  3.5e-05  3.774111  0.0  0.108962  1.8e-05  4.012822  0.0  0.108519  1.1e-05  4.037368  0.0  -0.019207  0.109374  5.4e-05  3.996765  0.0
C  C46  1  0.16462094  0.07227653  0.98666745  1  0.088019  -5e-05  3.774115  0.0  0.108857  1.9e-05  4.01284  0.0  0.108413  1.1e-05  4.037385  0.0  -0.019269  0.109253  5.4e-05  3.996802  0.0
C  C47  1  0.87797209  0.89310320  0.90423842  1  -0.108461  -2e-06  3.730667  0.0  -0.130457  0.000104  3.978613  0.0  -0.132777  6.8e-05  4.000148  0.0  -0.092465  -0.129082  0.000158  3.96385  0.0
C  C48  1  0.12202748  0.10689798  0.09576300  1  -0.108386  8.8e-05  3.730595  0.0  -0.130404  0.000103  3.978533  0.0  -0.132733  6.9e-05  4.000061  0.0  -0.092429  -0.129004  0.000158  3.963796  0.0
C  C49  1  0.95936460  0.03489263  0.10884434  1  -0.132654  -3.4e-05  3.772154  0.0  -0.147901  6.9e-05  4.014346  0.0  -0.150555  4.9e-05  4.035148  0.0  -0.096889  -0.146021  0.000127  4.000052  0.0
C  C50  1  0.04063299  0.96510629  0.89115392  1  -0.132599  2.5e-05  3.772032  0.0  -0.147834  6.8e-05  4.014201  0.0  -0.150488  4.9e-05  4.035002  0.0  -0.096845  -0.145947  0.000127  3.999915  0.0
C  C51  1  0.49351309  0.80025203  0.66115030  1  0.296665  0.022736  4.079013  0.024  0.283091  0.027839  4.376869  0.028  0.30621  0.025202  4.391754  0.026  0.139313  0.267384  0.030781  4.365755  0.031
C  C52  1  0.50651309  0.19972482  0.33884821  1  0.296283  0.022758  4.079064  0.024  0.282702  0.02786  4.376955  0.028  0.305823  0.025224  4.391857  0.026  0.139154  0.266999  0.030805  4.365821  0.031
S  S53  1  0.66677934  0.76786746  0.16155555  1  0.006767  -2.8e-05  2.420109  0.0  0.010653  0.00021  2.768552  0.0  0.002605  9.1e-05  2.769666  0.0  0.044255  0.015864  0.00053  2.768876  0.0
S  S54  1  0.33321478  0.23213255  0.83844223  1  0.006676  -3.4e-05  2.420064  0.0  0.010594  0.00021  2.768515  0.0  0.002549  9e-05  2.769625  0.0  0.044198  0.015799  0.000529  2.768828  0.0
S  S55  1  0.43008063  0.94330196  0.70451153  1  -0.396654  0.016702  2.020351  0.013  -0.387486  0.022636  2.302433  0.016  -0.403892  0.018157  2.299834  0.013  -0.201749  -0.375462  0.027978  2.304514  0.019
S  S56  1  0.56994293  0.05668269  0.29549072  1  -0.396468  0.016705  2.020859  0.013  -0.387308  0.022656  2.302967  0.016  -0.403711  0.018173  2.300371  0.013  -0.201702  -0.375292  0.027999  2.305047  0.019
N  N57  1  0.68779465  0.41400159  0.64392209  1  -0.319938  0.02592  3.226203  0.015  -0.248995  0.031474  3.494686  0.018  -0.268931  0.028202  3.511643  0.015  -0.306668  -0.235094  0.034381  3.48277  0.02
N  N58  1  0.31220101  0.58599510  0.35607739  1  -0.319996  0.025885  3.226158  0.015  -0.24903  0.031471  3.494604  0.018  -0.268967  0.0282  3.511562  0.015  -0.306674  -0.235127  0.034379  3.482692  0.02
N  N59  1  0.74193284  0.52307534  0.21122039  1  -0.401034  -4.2e-05  3.129701  0.0  -0.335567  0.000294  3.375053  0.001  -0.354929  2.1e-05  3.388613  0.0  -0.306724  -0.32258  0.000788  3.366281  0.001
N  N60  1  0.25806138  0.47692913  0.78877780  1  -0.400979  -4.9e-05  3.129625  0.0  -0.335464  0.000292  3.375002  0.001  -0.354836  2.3e-05  3.388566  0.0  -0.306653  -0.322475  0.000788  3.366223  0.001
N  N61  1  0.72590611  0.56143528  0.00604020  1  -0.412498  -7.2e-05  3.034051  0.0  -0.377113  2.8e-05  3.304401  0.0  -0.393924  -7.6e-05  3.317498  0.0  -0.310372  -0.365137  7.9e-05  3.29506  0.0
N  N62  1  0.27408871  0.43856696  0.99395877  1  -0.412453  -0.000111  3.034016  0.0  -0.377054  3.1e-05  3.304435  0.0  -0.393856  -8.3e-05  3.31751  0.0  -0.310386  -0.365082  7.9e-05  3.295101  0.0
N  N63  1  0.53905553  0.69393030  0.62822827  1  -0.598521  0.011973  2.900315  -0.006  -0.541629  0.016924  3.188157  -0.007  -0.565709  0.011112  3.189415  -0.011  -0.410393  -0.524308  0.021982  3.186946  -0.004
N  N64  1  0.46096124  0.30606100  0.37177517  1  -0.598313  0.011967  2.899833  -0.006  -0.541421  0.016904  3.187695  -0.007  -0.565512  0.011086  3.18897  -0.011  -0.410276  -0.524094  0.021966  3.186466  -0.004
O  O65  1  0.73244216  0.61635828  0.44281452  1  -0.809698  0.028762  1.914225  0.018  -0.754463  0.039463  2.120528  0.025  -0.77576  0.035202  2.088549  0.022  -0.563547  -0.737938  0.042924  2.143434  0.027
O  O66  1  0.26755903  0.38364403  0.55718815  1  -0.809682  0.028766  1.914311  0.018  -0.754479  0.039463  2.120653  0.025  -0.775776  0.035203  2.088671  0.022  -0.56359  -0.737954  0.042924  2.143558  0.027
