# generated using pymatgen
data_CdH40C52N6(O5F4)2
_symmetry_space_group_name_H-M   'P 1'
_cell_length_a   13.04280476
_cell_length_b   13.04284568
_cell_length_c   16.65079428
_cell_angle_alpha   109.83462520
_cell_angle_beta   109.83467172
_cell_angle_gamma   93.40891545
_symmetry_Int_Tables_number   1
_chemical_formula_structural   CdH40C52N6(O5F4)2
_chemical_formula_sum   'Cd2 H80 C104 N12 O20 F16'
_cell_volume   2457.17303214
_cell_formula_units_Z   2
loop_
 _symmetry_equiv_pos_site_id
 _symmetry_equiv_pos_as_xyz
  1  'x, y, z'
loop_
 _atom_site_type_symbol
 _atom_site_label
 _atom_site_symmetry_multiplicity
 _atom_site_fract_x
 _atom_site_fract_y
 _atom_site_fract_z
 _atom_site_occupancy
 _atom_site_pbe_bader_charge
 _atom_site_pbe_bader_spin_density
 _atom_site_pbe_cm5_charge
 _atom_site_pbe_ddec_charge
 _atom_site_pbe_ddec_spin_density
 _atom_site_pbe_ddec_sum_bond_order
 _atom_site_pbe_magmom
Cd  Cd0  1  0.87920383  0.12080200  0.75000041  1  1.235929  0  0.769327  0.737116  0  2.177211  0
Cd  Cd1  1  0.12080089  0.87920478  0.24999943  1  1.235802  0  0.769337  0.737112  0  2.17714  0
H  H2  1  0.64713161  0.16563353  0.76991735  1  0.117569  0  0.113646  0.083627  0  1.033277  0
H  H3  1  0.83437211  0.35287621  0.73008398  1  0.116159  0  0.113586  0.083557  0  1.033345  0
H  H4  1  0.35287478  0.83437358  0.23008423  1  0.117614  0  0.113594  0.083596  0  1.0333  0
H  H5  1  0.16563345  0.64713563  0.26991863  1  0.11761  0  0.113613  0.083588  0  1.033303  0
H  H6  1  0.97078797  0.29803290  0.95987304  1  0.118303  0  0.114499  0.086637  0  1.013471  0
H  H7  1  0.70197740  0.02921751  0.54013068  1  0.118375  0  0.114484  0.086617  0  1.01352  0
H  H8  1  0.02921510  0.70197031  0.04012963  1  0.118384  0  0.114493  0.086591  0  1.013503  0
H  H9  1  0.29803399  0.97079222  0.45987591  1  0.11824  0  0.11447  0.086588  0  1.013447  0
H  H10  1  0.56854089  0.26030403  0.88453178  1  0.10988  0  0.106815  0.127622  0  1.022439  0
H  H11  1  0.73968764  0.43146299  0.61547023  1  0.109792  0  0.106764  0.12754  0  1.02239  0
H  H12  1  0.43146300  0.73969689  0.11546870  1  0.110153  0  0.106783  0.127573  0  1.022484  0
H  H13  1  0.26030878  0.56854217  0.38452999  1  0.10991  0  0.10681  0.127621  0  1.022457  0
H  H14  1  0.90552665  0.40633086  0.08246755  1  0.09537  0  0.106381  0.115188  0  1.042882  0
H  H15  1  0.59366459  0.09447370  0.41753668  1  0.095571  0  0.106422  0.115253  0  1.042939  0
H  H16  1  0.09447558  0.59366975  0.91753541  1  0.095425  0  0.106406  0.115237  0  1.042909  0
H  H17  1  0.40633682  0.90552919  0.58246787  1  0.095392  0  0.106433  0.115194  0  1.042934  0
H  H18  1  0.66910906  0.34650185  0.09904943  1  0.092901  0  0.100099  0.11773  0  1.004357  0
H  H19  1  0.65348826  0.33088358  0.40094716  1  0.093251  0  0.100116  0.117768  0  1.004279  0
H  H20  1  0.33088984  0.65349647  0.90094964  1  0.092949  0  0.10011  0.117745  0  1.00433  0
H  H21  1  0.34650234  0.66911800  0.59905238  1  0.093058  0  0.100147  0.11779  0  1.004324  0
H  H22  1  0.76107630  0.46964103  0.12546382  1  0.114862  0  0.103033  0.125409  0  1.033776  0
H  H23  1  0.53034609  0.23892669  0.37454253  1  0.114472  0  0.103113  0.125444  0  1.033854  0
H  H24  1  0.23892925  0.53035289  0.87453885  1  0.114554  0  0.103042  0.12541  0  1.033714  0
H  H25  1  0.46964785  0.76107475  0.62546326  1  0.114502  0  0.10303  0.125413  0  1.033665  0
H  H26  1  0.77425859  0.86172008  0.61695230  1  0.124698  0  0.109207  0.078735  0  1.056572  0
H  H27  1  0.13827890  0.22574092  0.88304994  1  0.124766  0  0.109243  0.078786  0  1.056568  0
H  H28  1  0.22574198  0.13828427  0.38304821  1  0.124627  0  0.109222  0.078741  0  1.056585  0
H  H29  1  0.86171501  0.77425886  0.11694820  1  0.124698  0  0.109271  0.078825  0  1.056518  0
H  H30  1  0.04817162  0.06796550  0.64395579  1  0.110651  0  0.115941  0.096712  0  1.012163  0
H  H31  1  0.93203170  0.95182787  0.85604836  1  0.1106  0  0.115964  0.096715  0  1.012191  0
H  H32  1  0.95183145  0.93203772  0.35604868  1  0.110714  0  0.115929  0.096704  0  1.012152  0
H  H33  1  0.06796222  0.04817110  0.14395076  1  0.110709  0  0.11591  0.096661  0  1.012146  0
H  H34  1  0.81092943  0.69744304  0.50907333  1  0.126597  0  0.103282  0.118627  0  1.033526  0
H  H35  1  0.30255937  0.18907050  0.99092809  1  0.126573  0  0.10329  0.118648  0  1.033479  0
H  H36  1  0.18906697  0.30255967  0.49092323  1  0.126511  0  0.103287  0.118693  0  1.033362  0
H  H37  1  0.69743786  0.81092912  0.00906848  1  0.12643  0  0.103283  0.118672  0  1.033374  0
H  H38  1  0.09741273  0.91200825  0.53695557  1  0.102457  0  0.107861  0.119531  0  1.008044  0
H  H39  1  0.08799436  0.90258720  0.96304662  1  0.10241  0  0.107851  0.119538  0  1.008036  0
H  H40  1  0.90259034  0.08799578  0.46304671  1  0.10246  0  0.10786  0.119526  0  1.008097  0
H  H41  1  0.91200454  0.09741356  0.03695190  1  0.102386  0  0.107841  0.119521  0  1.008026  0
H  H42  1  0.91971747  0.66916537  0.37635406  1  0.158285  0  0.106027  0.127747  0  1.024077  0
H  H43  1  0.33083529  0.08027908  0.12364576  1  0.158147  0  0.105996  0.127689  0  1.024133  0
H  H44  1  0.08028309  0.33083734  0.62364541  1  0.158386  0  0.105965  0.127668  0  1.024145  0
H  H45  1  0.66916193  0.91971401  0.87634968  1  0.158306  0  0.106003  0.12768  0  1.024117  0
H  H46  1  0.06244854  0.71985737  0.44240498  1  0.09236  0  0.101327  0.116005  0  0.986329  0
H  H47  1  0.28013981  0.93755062  0.05759351  1  0.09248  0  0.101319  0.115951  0  0.986412  0
H  H48  1  0.93755120  0.28014681  0.55759466  1  0.092368  0  0.101359  0.116056  0  0.986318  0
H  H49  1  0.71984827  0.06243985  0.94239702  1  0.092501  0  0.101327  0.115995  0  0.986416  0
H  H50  1  0.90471246  0.53603592  0.87758481  1  0.0921  0  0.106782  0.126485  0  1.013408  0
H  H51  1  0.46396423  0.09528487  0.62241411  1  0.092099  0  0.10679  0.12646  0  1.013366  0
H  H52  1  0.09528893  0.46396696  0.12241373  1  0.092123  0  0.106802  0.126494  0  1.013376  0
H  H53  1  0.53603301  0.90470905  0.37758456  1  0.092116  0  0.106801  0.126492  0  1.013429  0
H  H54  1  0.72432775  0.46873485  0.88203963  1  0.069401  0  0.093586  0.090741  0  1.034157  0
H  H55  1  0.53126792  0.27566668  0.61796042  1  0.069438  0  0.09363  0.090832  0  1.034026  0
H  H56  1  0.27567449  0.53127309  0.11796347  1  0.069157  0  0.09361  0.09079  0  1.034173  0
H  H57  1  0.46873346  0.72432152  0.38203723  1  0.069034  0  0.093614  0.090788  0  1.034135  0
H  H58  1  0.55967462  0.54991043  0.82632898  1  0.083099  0  0.093577  0.091286  0  1.029857  0
H  H59  1  0.45009077  0.44032022  0.67366779  1  0.083277  0  0.093599  0.091333  0  1.029828  0
H  H60  1  0.44032928  0.45009539  0.17367400  1  0.082993  0  0.093585  0.091324  0  1.029841  0
H  H61  1  0.54991227  0.55966993  0.32632781  1  0.083257  0  0.093587  0.091342  0  1.029825  0
H  H62  1  0.57437874  0.69723988  0.76413863  1  0.078912  0  0.097207  0.103114  0  1.019403  0
H  H63  1  0.30275943  0.42561473  0.73585610  1  0.079065  0  0.097202  0.103127  0  1.01946  0
H  H64  1  0.42562100  0.30276267  0.23586118  1  0.078945  0  0.097218  0.103141  0  1.0194  0
H  H65  1  0.69724610  0.57437754  0.26413952  1  0.078887  0  0.097247  0.103136  0  1.01931  0
H  H66  1  0.75516972  0.76684869  0.76260803  1  0.105267  0  0.102327  0.118602  0  1.027208  0
H  H67  1  0.23315107  0.24482541  0.73739205  1  0.105391  0  0.10233  0.118605  0  1.027203  0
H  H68  1  0.24482918  0.23315207  0.23739109  1  0.105348  0  0.102324  0.118595  0  1.027259  0
H  H69  1  0.76685199  0.75516883  0.26260885  1  0.105258  0  0.102294  0.118568  0  1.02724  0
H  H70  1  0.09686791  0.68695123  0.70294095  1  0.084664  0  0.091546  0.147571  0  1.057164  0
H  H71  1  0.31304184  0.90312577  0.79705343  1  0.084823  0  0.091571  0.147603  0  1.057193  0
H  H72  1  0.90313431  0.31304692  0.29705775  1  0.084713  0  0.091561  0.147612  0  1.057164  0
H  H73  1  0.68695455  0.09686470  0.20293869  1  0.084651  0  0.091548  0.147584  0  1.057161  0
H  H74  1  0.14024117  0.69860275  0.82010510  1  0.074908  0  0.10324  0.166861  0  1.002831  0
H  H75  1  0.30139057  0.85975206  0.67988803  1  0.074815  0  0.103268  0.166984  0  1.002685  0
H  H76  1  0.85975772  0.30139393  0.17989113  1  0.074899  0  0.103237  0.166863  0  1.00278  0
H  H77  1  0.69860582  0.14023841  0.32010530  1  0.07497  0  0.103246  0.166869  0  1.002767  0
H  H78  1  0.08487143  0.80654158  0.78992055  1  0.051112  0  0.099132  0.155061  0  1.012668  0
H  H79  1  0.19344955  0.91512001  0.71007334  1  0.050842  0  0.099167  0.155179  0  1.012598  0
H  H80  1  0.91512747  0.19345429  0.21007787  1  0.051036  0  0.09915  0.15511  0  1.012655  0
H  H81  1  0.80654933  0.08487340  0.28992022  1  0.050843  0  0.099151  0.155105  0  1.012731  0
C  C82  1  0.70197635  0.21793009  0.84057917  1  0.423339  0  0.041416  0.095452  0  3.949874  0
C  C83  1  0.78207409  0.29803059  0.65942334  1  0.424369  0  0.041457  0.095474  0  3.949684  0
C  C84  1  0.29803004  0.78207376  0.15942274  1  0.422809  0  0.041439  0.095427  0  3.949759  0
C  C85  1  0.21792898  0.70198076  0.34058028  1  0.423415  0  0.04147  0.095509  0  3.949942  0
C  C86  1  0.88241276  0.29169195  0.94643882  1  0.433184  0  0.043877  0.103832  0  3.944655  0
C  C87  1  0.70830540  0.11759145  0.55355875  1  0.433186  0  0.043811  0.103761  0  3.944798  0
C  C88  1  0.11759196  0.70830995  0.05356214  1  0.43328  0  0.04384  0.103778  0  3.944688  0
C  C89  1  0.29169684  0.88241729  0.44644276  1  0.433028  0  0.043888  0.10391  0  3.944561  0
C  C90  1  0.65858884  0.27275510  0.90539870  1  -0.054521  0  -0.086491  -0.185839  0  3.913561  0
C  C91  1  0.72724339  0.34141628  0.59460423  1  -0.054076  0  -0.086473  -0.18574  0  3.91357  0
C  C92  1  0.34141589  0.72724843  0.09460389  1  -0.054612  0  -0.086468  -0.185807  0  3.913706  0
C  C93  1  0.27275386  0.65858824  0.40539905  1  -0.054555  0  -0.086484  -0.185854  0  3.913601  0
C  C94  1  0.84575341  0.35090673  0.01469011  1  0.06555  0  -0.086  -0.187027  0  3.931176  0
C  C95  1  0.64908648  0.15424648  0.48531100  1  0.065413  0  -0.086011  -0.187054  0  3.9314  0
C  C96  1  0.15424716  0.64909110  0.98531168  1  0.065581  0  -0.086013  -0.187026  0  3.931126  0
C  C97  1  0.35091243  0.84575837  0.51469160  1  0.065542  0  -0.085995  -0.186973  0  3.931093  0
C  C98  1  0.73162654  0.34137917  0.99498838  1  -0.029017  0  0.014084  0.174044  0  3.923985  0
C  C99  1  0.65861847  0.26837980  0.50501766  1  -0.029493  0  0.014148  0.174018  0  3.923906  0
C  C100  1  0.26838068  0.65862241  0.00501496  1  -0.029364  0  0.014083  0.173938  0  3.924004  0
C  C101  1  0.34137879  0.73162472  0.49498622  1  -0.028926  0  0.014094  0.17404  0  3.923727  0
C  C102  1  0.69197710  0.40408452  0.06991407  1  -0.020978  0  -0.156764  -0.237911  0  3.942866  0
C  C103  1  0.59590742  0.30802223  0.43008838  1  -0.020956  0  -0.156854  -0.237957  0  3.943074  0
C  C104  1  0.30802430  0.59591347  0.93008617  1  -0.020228  0  -0.156751  -0.237757  0  3.942925  0
C  C105  1  0.40408734  0.69197855  0.56991565  1  -0.020819  0  -0.156818  -0.237936  0  3.942826  0
C  C106  1  0.59358522  0.45377210  0.03529952  1  0.116378  0  -0.022415  -0.060833  0  4.059669  0
C  C107  1  0.54622491  0.40641832  0.46470600  1  0.116893  0  -0.022469  -0.060934  0  4.059884  0
C  C108  1  0.40641951  0.54623143  0.96470307  1  0.1164  0  -0.022524  -0.061218  0  4.059857  0
C  C109  1  0.45376904  0.59358231  0.53530379  1  0.116386  0  -0.022482  -0.061058  0  4.059743  0
C  C110  1  0.60640702  0.55808881  0.03034304  1  0.519059  0  0.09058  0.127696  0  4.089632  0
C  C111  1  0.44190615  0.39359672  0.46966140  1  0.51909  0  0.090663  0.127836  0  4.089792  0
C  C112  1  0.39359853  0.44191324  0.96965637  1  0.519136  0  0.090663  0.127941  0  4.089536  0
C  C113  1  0.55808447  0.60640489  0.53034656  1  0.51928  0  0.090627  0.127897  0  4.089536  0
C  C114  1  0.51525450  0.60293142  0.99588807  1  0.471403  0  0.088029  0.117472  0  4.102689  0
C  C115  1  0.39706969  0.48475024  0.50412452  1  0.471379  0  0.087974  0.117337  0  4.102953  0
C  C116  1  0.48475356  0.39707522  0.00411743  1  0.47185  0  0.08801  0.117305  0  4.102705  0
C  C117  1  0.60292759  0.51525269  0.49588915  1  0.471592  0  0.088047  0.117311  0  4.102647  0
C  C118  1  0.84475972  0.86934200  0.59712408  1  0.449957  0  0.04037  0.094081  0  3.953182  0
C  C119  1  0.13065812  0.15523900  0.90287825  1  0.449962  0  0.040312  0.093938  0  3.95319  0
C  C120  1  0.15524334  0.13066121  0.40287618  1  0.449955  0  0.040253  0.09397  0  3.953133  0
C  C121  1  0.86933746  0.84475948  0.09712059  1  0.45001  0  0.04025  0.093881  0  3.953259  0
C  C122  1  0.99754933  0.98443471  0.61229065  1  0.477766  0  0.040474  0.087431  0  3.95674  0
C  C123  1  0.01556302  0.00245180  0.88771467  1  0.478335  0  0.040468  0.087484  0  3.956786  0
C  C124  1  0.00245291  0.01556753  0.38771334  1  0.478071  0  0.040483  0.087423  0  3.956763  0
C  C125  1  0.98443006  0.99754864  0.11228462  1  0.478371  0  0.040489  0.087469  0  3.956753  0
C  C126  1  0.86602033  0.77776553  0.53664270  1  -0.028118  0  -0.084231  -0.171884  0  3.912568  0
C  C127  1  0.22223365  0.13397769  0.96335798  1  -0.028103  0  -0.084236  -0.171874  0  3.912678  0
C  C128  1  0.13397774  0.22223751  0.46335620  1  -0.028543  0  -0.08416  -0.171889  0  3.912262  0
C  C129  1  0.77776192  0.86602160  0.03663927  1  -0.028158  0  -0.084234  -0.171965  0  3.912483  0
C  C130  1  0.02415083  0.89673210  0.55203265  1  -0.045654  0  -0.087038  -0.192983  0  3.956421  0
C  C131  1  0.10326765  0.97584939  0.94797067  1  -0.045622  0  -0.08698  -0.192942  0  3.956287  0
C  C132  1  0.97585057  0.10326916  0.44796966  1  -0.046008  0  -0.087025  -0.192942  0  3.95642  0
C  C133  1  0.89672793  0.02415235  0.05202903  1  -0.04568  0  -0.087058  -0.193069  0  3.956451  0
C  C134  1  0.95784256  0.79031118  0.51279380  1  -0.024646  0  0.01712  0.179473  0  3.914289  0
C  C135  1  0.20968775  0.04215600  0.98720454  1  -0.024754  0  0.017118  0.179443  0  3.914241  0
C  C136  1  0.04215635  0.20969447  0.48720601  1  -0.02422  0  0.017107  0.179555  0  3.914039  0
C  C137  1  0.79030701  0.95784559  0.01279730  1  -0.024677  0  0.017174  0.179657  0  3.914071  0
C  C138  1  0.98333022  0.69355200  0.44630079  1  -0.056051  0  -0.151992  -0.22633  0  3.925066  0
C  C139  1  0.30644773  0.01666577  0.05369804  1  -0.055973  0  -0.151966  -0.226233  0  3.925053  0
C  C140  1  0.01666785  0.30645348  0.55369816  1  -0.056144  0  -0.152001  -0.226384  0  3.925184  0
C  C141  1  0.69354535  0.98332977  0.94629876  1  -0.056116  0  -0.151995  -0.226263  0  3.925114  0
C  C142  1  0.98987386  0.59369471  0.47262612  1  0.120497  0  -0.01431  -0.04278  0  4.019149  0
C  C143  1  0.40630370  0.01011925  0.02737218  1  0.120464  0  -0.014324  -0.042861  0  4.019358  0
C  C144  1  0.01012673  0.40631372  0.52737847  1  0.120435  0  -0.014258  -0.042968  0  4.019412  0
C  C145  1  0.59368354  0.98986944  0.97261946  1  0.120515  0  -0.014303  -0.042997  0  4.0194  0
C  C146  1  0.08371673  0.59060407  0.54296178  1  0.484606  0  0.088177  0.118117  0  4.084398  0
C  C147  1  0.40939322  0.91627630  0.95703654  1  0.484825  0  0.088186  0.118167  0  4.084171  0
C  C148  1  0.91628054  0.40940290  0.45704275  1  0.485233  0  0.088116  0.118186  0  4.084517  0
C  C149  1  0.59059402  0.08371401  0.04295372  1  0.485267  0  0.088096  0.118133  0  4.08455  0
C  C150  1  0.09431309  0.50068948  0.57002675  1  0.529509  0  0.092043  0.130284  0  4.087703  0
C  C151  1  0.49931194  0.90568290  0.92997043  1  0.529252  0  0.092004  0.130241  0  4.087698  0
C  C152  1  0.90568664  0.49931714  0.42997234  1  0.529346  0  0.092032  0.130021  0  4.087682  0
C  C153  1  0.50068030  0.09431003  0.07002425  1  0.529337  0  0.092078  0.130145  0  4.087715  0
C  C154  1  0.83860031  0.65528761  0.82063877  1  0.318353  0  0.072353  0.250836  0  4.050317  0
C  C155  1  0.34470838  0.16139275  0.67935553  1  0.317688  0  0.072352  0.250828  0  4.050468  0
C  C156  1  0.16140025  0.34471672  0.17935812  1  0.317789  0  0.072351  0.250855  0  4.050066  0
C  C157  1  0.65528967  0.83859969  0.32063996  1  0.31846  0  0.072357  0.250753  0  4.050355  0
C  C158  1  0.83210228  0.57159457  0.85402263  1  0.014407  0  -0.099418  -0.192861  0  3.970772  0
C  C159  1  0.42840172  0.16789588  0.64597669  1  0.01476  0  -0.099419  -0.192775  0  3.970826  0
C  C160  1  0.16789995  0.42840846  0.14597616  1  0.014432  0  -0.099433  -0.192833  0  3.970781  0
C  C161  1  0.57159136  0.83210293  0.35402277  1  0.014266  0  -0.099411  -0.19275  0  3.970678  0
C  C162  1  0.73069251  0.53377553  0.85569223  1  -0.092443  0  -0.093426  -0.058631  0  4.010444  0
C  C163  1  0.46622224  0.26930360  0.64430636  1  -0.092826  0  -0.093529  -0.058879  0  4.010559  0
C  C164  1  0.26930805  0.46622799  0.14430686  1  -0.091769  0  -0.09342  -0.058694  0  4.010513  0
C  C165  1  0.53377666  0.73068983  0.35569322  1  -0.092258  0  -0.093466  -0.058766  0  4.010459  0
C  C166  1  0.63816065  0.57913751  0.82393860  1  -0.04465  0  -0.101593  -0.10628  0  4.026743  0
C  C167  1  0.42086078  0.36183688  0.67605811  1  -0.044099  0  -0.101562  -0.106225  0  4.026768  0
C  C168  1  0.36184158  0.42086391  0.17606217  1  -0.044632  0  -0.10164  -0.106346  0  4.026705  0
C  C169  1  0.57914061  0.63815458  0.32393980  1  -0.044171  0  -0.101663  -0.106398  0  4.026825  0
C  C170  1  0.64613339  0.66149715  0.78905524  1  -0.035402  0  -0.094807  -0.072062  0  4.017382  0
C  C171  1  0.33850427  0.35386111  0.71094331  1  -0.035453  0  -0.09482  -0.0721  0  4.017647  0
C  C172  1  0.35386718  0.33850638  0.21094505  1  -0.035406  0  -0.094821  -0.072091  0  4.017469  0
C  C173  1  0.66150127  0.64613036  0.28905630  1  -0.035529  0  -0.094812  -0.072002  0  4.017296  0
C  C174  1  0.74711924  0.70073505  0.78757609  1  0.008502  0  -0.101304  -0.189484  0  3.984067  0
C  C175  1  0.29926487  0.25287717  0.71242256  1  0.008567  0  -0.101283  -0.189462  0  3.984116  0
C  C176  1  0.25288133  0.29926521  0.21242274  1  0.008521  0  -0.101264  -0.189445  0  3.98399  0
C  C177  1  0.70074069  0.74711919  0.28758015  1  0.00853  0  -0.101249  -0.189436  0  3.983982  0
C  C178  1  0.96482252  0.65947298  0.74608514  1  1.474784  0  0.239257  0.637002  0  4.029019  0
C  C179  1  0.34051807  0.03516823  0.75390663  1  1.474387  0  0.239229  0.637038  0  4.028979  0
C  C180  1  0.03517969  0.34051864  0.25391003  1  1.474523  0  0.23931  0.637044  0  4.029099  0
C  C181  1  0.65948413  0.96482095  0.24608909  1  1.474455  0  0.239293  0.636985  0  4.029171  0
C  C182  1  0.07858388  0.71608832  0.76508472  1  -0.040563  0  -0.244256  -0.528275  0  3.89917  0
C  C183  1  0.28390434  0.92140882  0.73490930  1  -0.040529  0  -0.244374  -0.528603  0  3.899284  0
C  C184  1  0.92141501  0.28390837  0.23491392  1  -0.0404  0  -0.2443  -0.528385  0  3.899112  0
C  C185  1  0.71609371  0.07858361  0.26508438  1  -0.040351  0  -0.244281  -0.528338  0  3.899244  0
N  N186  1  0.81197928  0.22622397  0.86031291  1  -1.205723  0  -0.333386  -0.245353  0  3.520104  0
N  N187  1  0.77378240  0.18802465  0.63968637  1  -1.205571  0  -0.333304  -0.245218  0  3.519584  0
N  N188  1  0.18802295  0.77377989  0.13968791  1  -1.205688  0  -0.333318  -0.245175  0  3.519762  0
N  N189  1  0.22622565  0.81198197  0.36031612  1  -1.205694  0  -0.333435  -0.245432  0  3.519952  0
N  N190  1  0.90931589  0.97155944  0.63515647  1  -1.233191  0  -0.332923  -0.247151  0  3.501511  0
N  N191  1  0.02843815  0.09068215  0.86484621  1  -1.233666  0  -0.332965  -0.247177  0  3.501485  0
N  N192  1  0.09068467  0.02844327  0.36484360  1  -1.232923  0  -0.332878  -0.247139  0  3.501526  0
N  N193  1  0.97155494  0.90931666  0.13515386  1  -1.233531  0  -0.332842  -0.247036  0  3.501511  0
N  N194  1  0.65812198  0.95393714  0.71349621  1  0.817191  0  0.09298  0.71084  0  4.436534  0
N  N195  1  0.04606475  0.34187959  0.78650316  1  0.817591  0  0.092982  0.710844  0  4.436315  0
N  N196  1  0.34188521  0.04606523  0.28649952  1  0.817324  0  0.092908  0.710843  0  4.436389  0
N  N197  1  0.95393913  0.65811481  0.21349619  1  0.817601  0  0.092896  0.710688  0  4.43647  0
O  O198  1  0.76216578  0.96574814  0.76217567  1  -0.599677  0  -0.214235  -0.484847  0  2.013655  0
O  O199  1  0.03425004  0.23783674  0.73782116  1  -0.599738  0  -0.214182  -0.484772  0  2.013605  0
O  O200  1  0.23783975  0.03425960  0.23781864  1  -0.599531  0  -0.214152  -0.484758  0  2.013392  0
O  O201  1  0.96574970  0.76216012  0.26218075  1  -0.599668  0  -0.214201  -0.484753  0  2.013486  0
O  O202  1  0.63102255  0.99312898  0.65114254  1  -0.547511  0  -0.197541  -0.468822  0  1.962801  0
O  O203  1  0.00688547  0.36898010  0.84886525  1  -0.547844  0  -0.197586  -0.468847  0  1.962645  0
O  O204  1  0.36897800  0.00687454  0.34885354  1  -0.547696  0  -0.197502  -0.468719  0  1.96285  0
O  O205  1  0.99312674  0.63102328  0.15113987  1  -0.547942  0  -0.197511  -0.4687  0  1.962802  0
O  O206  1  0.58623894  0.90437204  0.72943081  1  -0.527336  0  -0.181995  -0.425927  0  1.962143  0
O  O207  1  0.09562327  0.41376215  0.77056249  1  -0.527322  0  -0.181987  -0.425939  0  1.962044  0
O  O208  1  0.41377324  0.09562478  0.27056477  1  -0.527384  0  -0.182031  -0.426084  0  1.962044  0
O  O209  1  0.90437893  0.58622702  0.22943083  1  -0.527315  0  -0.181981  -0.425994  0  1.962068  0
O  O210  1  0.94258054  0.69921097  0.82529907  1  -1.079843  0  -0.157495  -0.286356  0  2.505047  0
O  O211  1  0.30078785  0.05741649  0.67470063  1  -1.079934  0  -0.15751  -0.286394  0  2.505334  0
O  O212  1  0.05741835  0.30078978  0.17469643  1  -1.079798  0  -0.157513  -0.286396  0  2.50514  0
O  O213  1  0.69921272  0.94258053  0.32530214  1  -1.079993  0  -0.157513  -0.286333  0  2.50523  0
O  O214  1  0.89976145  0.58892777  0.67377182  1  -1.147062  0  -0.274364  -0.476945  0  2.139939  0
O  O215  1  0.41106941  0.10023263  0.82622906  1  -1.146545  0  -0.274295  -0.476891  0  2.139573  0
O  O216  1  0.10024243  0.41106011  0.32622761  1  -1.146897  0  -0.274414  -0.476957  0  2.139918  0
O  O217  1  0.58894361  0.89975949  0.17377151  1  -1.146717  0  -0.274398  -0.476929  0  2.139986  0
F  F218  1  0.71017120  0.61769516  0.05978814  1  -0.62768  0  -0.074469  -0.100579  0  1.422918  0
F  F219  1  0.38230207  0.28983663  0.44021617  1  -0.627677  0  -0.074479  -0.100553  0  1.423012  0
F  F220  1  0.28983352  0.38230185  0.94021212  1  -0.627729  0  -0.074504  -0.100588  0  1.422803  0
F  F221  1  0.61769436  0.71017099  0.55978770  1  -0.627667  0  -0.074534  -0.100655  0  1.422804  0
F  F222  1  0.53295891  0.70467671  0.99245024  1  -0.626662  0  -0.075144  -0.101099  0  1.452297  0
F  F223  1  0.29532756  0.46704563  0.50756674  1  -0.626821  0  -0.075166  -0.101123  0  1.45255  0
F  F224  1  0.46704998  0.29532846  0.00755628  1  -0.626962  0  -0.075221  -0.101167  0  1.452128  0
F  F225  1  0.70467305  0.53295468  0.49244772  1  -0.626931  0  -0.075177  -0.101105  0  1.452143  0
F  F226  1  0.16894397  0.68082608  0.58854946  1  -0.645656  0  -0.074353  -0.109735  0  1.442379  0
F  F227  1  0.31917381  0.83104511  0.91145090  1  -0.645857  0  -0.07435  -0.109768  0  1.442176  0
F  F228  1  0.83104916  0.31918579  0.41145887  1  -0.646097  0  -0.074352  -0.109718  0  1.442363  0
F  F229  1  0.68081343  0.16894194  0.08854030  1  -0.645991  0  -0.07431  -0.109683  0  1.442411  0
F  F230  1  0.18871530  0.50777852  0.64088684  1  -0.63377  0  -0.080924  -0.108147  0  1.410717  0
F  F231  1  0.49222551  0.81128190  0.85911014  1  -0.633884  0  -0.080914  -0.108128  0  1.410741  0
F  F232  1  0.81128112  0.49222991  0.35911605  1  -0.63374  0  -0.080916  -0.108071  0  1.410783  0
F  F233  1  0.50776671  0.18871345  0.14087857  1  -0.633614  0  -0.080919  -0.108104  0  1.410837  0
