# generated using pymatgen
data_Zn2H14C38I5Br5N8
_symmetry_space_group_name_H-M   'P 1'
_cell_length_a   19.58972667
_cell_length_b   19.91870882
_cell_length_c   20.87839232
_cell_angle_alpha   108.51923968
_cell_angle_beta   106.19174528
_cell_angle_gamma   111.73598779
_symmetry_Int_Tables_number   1
_chemical_formula_structural   Zn2H14C38I5Br5N8
_chemical_formula_sum   'Zn4 H28 C76 I10 Br10 N16'
_cell_volume   6407.60498160
_cell_formula_units_Z   2
loop_
 _symmetry_equiv_pos_site_id
 _symmetry_equiv_pos_as_xyz
  1  'x, y, z'
loop_
 _atom_site_type_symbol
 _atom_site_label
 _atom_site_symmetry_multiplicity
 _atom_site_fract_x
 _atom_site_fract_y
 _atom_site_fract_z
 _atom_site_occupancy
 _atom_site_pbe_bader_charge
 _atom_site_pbe_bader_spin_density
 _atom_site_pbe_cm5_charge
 _atom_site_pbe_ddec_charge
 _atom_site_pbe_ddec_spin_density
 _atom_site_pbe_ddec_sum_bond_order
 _atom_site_pbe_magmom
Zn  Zn0  1  0.61915586  0.61897680  0.51393604  1  1.198645  0  0.729591  0.624871  0  2.447308  0
Zn  Zn1  1  0.38769913  0.40208847  0.48925309  1  1.204822  0  0.731757  0.648641  0  2.365663  0
Zn  Zn2  1  0.50445657  0.60000742  0.60348154  1  1.186689  0  0.746472  0.605423  0  2.487626  0
Zn  Zn3  1  0.51202084  0.41760321  0.40658322  1  1.193286  0  0.750903  0.615473  0  2.451225  0
H  H4  1  0.76501004  0.60876213  0.62177252  1  0.076152  0  0.116625  0.105948  0  1.003982  0
H  H5  1  0.94087577  0.43766404  0.39572370  1  0.09127  0  0.111597  0.117637  0  0.961963  0
H  H6  1  0.47335598  0.02500739  0.50606146  1  0.116448  0  0.110657  0.115516  0  0.967264  0
H  H7  1  0.51432817  0.02858591  0.64964250  1  0.089831  0  0.11033  0.10632  0  0.971683  0
H  H8  1  0.62956214  0.19960710  0.72038114  1  0.080612  0  0.114278  0.122379  0  0.962006  0
H  H9  1  0.49576246  0.65229592  0.26306020  1  0.103445  0  0.086945  0.103467  0  1.055396  0
H  H10  1  0.46445559  0.60824099  0.75131637  1  0.096845  0  0.120409  0.115375  0  0.984079  0
H  H11  1  0.34609778  0.41773682  0.97428240  1  0.058544  0  0.101719  0.107897  0  0.984705  0
H  H12  1  0.24838555  0.50016409  0.85933677  1  0.094082  0  0.1049  0.122611  0  0.993893  0
H  H13  1  0.27962555  0.42031715  0.17960804  1  0.085982  0  0.101215  0.117514  0  1.001809  0
H  H14  1  0.31346105  0.56099581  0.99423804  1  0.082947  0  0.099674  0.108391  0  1.001411  0
H  H15  1  0.24313710  0.40320327  0.36656761  1  0.079978  0  0.11832  0.111066  0  1.002455  0
H  H16  1  0.41443312  0.40662939  0.89515088  1  0.08695  0  0.106809  0.124843  0  0.988484  0
H  H17  1  0.64837000  0.39378894  0.34248331  1  0.117725  0  0.127805  0.120179  0  0.977853  0
H  H18  1  0.28722352  0.05009994  0.26451633  1  0.099753  0  0.107229  0.126863  0  0.987255  0
H  H19  1  0.86938927  0.68853944  0.73157850  1  0.066827  0  0.09956  0.111614  0  1.020329  0
H  H20  1  0.05958704  0.85557875  0.98139957  1  0.088028  0  0.087729  0.106681  0  1.054483  0
H  H21  1  0.86423733  0.69641975  0.96842361  1  0.109944  0  0.084068  0.101239  0  1.077646  0
H  H22  1  0.30266204  0.34913704  0.59687506  1  0.107349  0  0.111817  0.107268  0  1.007272  0
H  H23  1  0.63500128  0.37209565  0.49586594  1  0.113116  0  0.125248  0.118734  0  0.984161  0
H  H24  1  0.60783137  0.58045995  0.73368519  1  0.114949  0  0.101306  0.092672  0  1.068272  0
H  H25  1  0.54262992  0.79254732  0.67770187  1  0.106428  0  0.125171  0.116727  0  0.978441  0
H  H26  1  0.39105590  0.22337875  0.25222651  1  0.090365  0  0.123491  0.118229  0  0.981899  0
H  H27  1  0.70919238  0.81941114  0.57581220  1  0.110823  0  0.115873  0.107895  0  1.007178  0
H  H28  1  0.38483687  0.40207808  0.26641367  1  0.0883  0  0.120223  0.111361  0  0.999121  0
H  H29  1  0.39638786  0.66470119  0.51930770  1  0.0948  0  0.117978  0.1078  0  1.006532  0
H  H30  1  0.10011519  0.57675816  0.49825952  1  0.103094  0  0.112012  0.119813  0  0.963501  0
H  H31  1  0.08579751  0.66195055  0.34753394  1  0.113222  0  0.115475  0.135498  0  0.953131  0
C  C32  1  0.71637994  0.59915911  0.63922995  1  0.429889  0  0.011847  -0.036766  0  3.94174  0
C  C33  1  0.66649468  0.79927999  0.59850407  1  0.448145  0  0.01303  -0.044309  0  3.986525  0
C  C34  1  0.42173267  0.46611395  0.30908609  1  0.441774  0  0.012688  -0.034953  0  3.961778  0
C  C35  1  0.48560918  0.32468025  0.54479461  1  0.458577  0  0.085335  0.141469  0  3.983119  0
C  C36  1  0.36970475  0.59884182  0.48824342  1  0.426102  0  0.0152  -0.045211  0  3.943872  0
C  C37  1  0.42778979  0.53558806  0.30200943  1  0.036486  0  -0.035337  -0.061912  0  4.0415  0
C  C38  1  0.29110682  0.53932151  0.42746375  1  0.103599  0  -0.02873  0.037905  0  4.179087  0
C  C39  1  0.63404562  0.84202895  0.63545899  1  0.13381  0  -0.033424  0.033503  0  4.19915  0
C  C40  1  0.28329886  0.18703373  0.27856977  1  0.025601  0  -0.046519  -0.085649  0  4.097594  0
C  C41  1  0.06113388  0.56439246  0.44223370  1  -0.03365  0  -0.070272  -0.103001  0  3.613078  0
C  C42  1  0.02988998  0.62095660  0.42471296  1  0.012287  0  -0.00153  0.103611  0  3.618384  0
C  C43  1  0.55100611  0.31225619  0.54014779  1  0.165171  0  -0.031996  -0.004033  0  4.194625  0
C  C44  1  0.80794241  0.53361632  0.38292749  1  -0.451519  0  -0.053823  -0.082363  0  4.181284  0
C  C45  1  0.22337737  0.54962610  0.40028751  1  -0.260662  0  -0.046826  -0.069423  0  4.169285  0
C  C46  1  0.97430183  0.48788755  0.38588140  1  -0.019282  0  -0.069634  -0.079775  0  3.630354  0
C  C47  1  0.42853083  0.54679220  0.70377676  1  0.376209  0  0.004987  -0.055421  0  4.001995  0
C  C48  1  0.94002152  0.54414918  0.36902395  1  0.107511  0  0.002625  0.086971  0  3.808428  0
C  C49  1  0.99825860  0.47829688  0.31968696  1  -0.135668  0  -0.038985  0.010099  0  3.5599  0
C  C50  1  0.08783952  0.55563276  0.37624511  1  0.085553  0  0.007896  0.145115  0  3.791507  0
C  C51  1  0.96676145  0.53588955  0.30301087  1  0.008874  0  -0.006737  0.074672  0  3.619286  0
C  C52  1  0.05434718  0.61222278  0.35878118  1  -0.02702  0  -0.073979  -0.140494  0  3.614028  0
C  C53  1  0.86683117  0.53839991  0.37128124  1  0.136839  0  -0.060289  -0.112866  0  4.127491  0
C  C54  1  0.37355203  0.47375236  0.69867008  1  0.005375  0  -0.053518  -0.039525  0  4.131369  0
C  C55  1  0.16246566  0.55680846  0.38383258  1  -0.028416  0  -0.07419  -0.154748  0  4.12739  0
C  C56  1  0.69022075  0.13209963  0.66390832  1  0.00931  0  -0.007844  0.063189  0  3.628443  0
C  C57  1  0.66822614  0.12946990  0.58455544  1  0.011881  0  -0.011321  0.035265  0  3.62872  0
C  C58  1  0.57224389  0.25846897  0.55837983  1  -0.27202  0  -0.055057  -0.079045  0  4.205184  0
C  C59  1  0.66889663  0.45741897  0.37826944  1  0.447569  0  0.022141  -0.039966  0  3.952422  0
C  C60  1  0.64073676  0.91693671  0.64236855  1  -0.520756  0  -0.049888  -0.075162  0  4.17301  0
C  C61  1  0.62171468  0.15178181  0.67037815  1  0.002417  0  -0.0693  -0.101908  0  3.615232  0
C  C62  1  0.59885506  0.15034999  0.59075111  1  0.113937  0  0.0074  0.128323  0  3.806107  0
C  C63  1  0.55800214  0.05819641  0.63088822  1  -0.030676  0  -0.066851  -0.0624  0  3.622219  0
C  C64  1  0.62700451  0.03686933  0.62524815  1  0.095764  0  0.001773  0.102177  0  3.82259  0
C  C65  1  0.74208197  0.52818101  0.39955695  1  0.145015  0  -0.031186  0.013554  0  4.189811  0
C  C66  1  0.53526630  0.05516640  0.55171022  1  -0.043778  0  -0.069511  -0.089046  0  3.618514  0
C  C67  1  0.60390816  0.03564586  0.54526268  1  -0.149121  0  -0.037404  0.015627  0  3.554322  0
C  C68  1  0.58478740  0.20842335  0.57327691  1  -0.048679  0  -0.06171  -0.12731  0  4.129772  0
C  C69  1  0.63854296  0.97642635  0.63967409  1  0.193724  0  -0.071428  -0.138768  0  4.158435  0
C  C70  1  0.39226590  0.53611323  0.23063728  1  -0.000215  0  -0.004525  0.12561  0  4.023803  0
C  C71  1  0.34589436  0.41447741  0.62501688  1  0.466413  0  0.002758  -0.051312  0  4.009689  0
C  C72  1  0.43719563  0.59970063  0.21776019  1  0.063998  0  -0.106783  -0.179105  0  3.986618  0
C  C73  1  0.40974498  0.59318373  0.14593529  1  -0.283747  0  -0.043495  0.039564  0  3.875408  0
C  C74  1  0.33849988  0.52334012  0.08278779  1  0.072435  0  -0.022833  0.041673  0  3.999751  0
C  C75  1  0.29200286  0.46274196  0.09830086  1  -0.260482  0  -0.044862  0.033678  0  3.882072  0
C  C76  1  0.48546658  0.60085691  0.37549932  1  0.24873  0  0.041237  0.076854  0  3.913408  0
C  C77  1  0.31741288  0.46877823  0.17033095  1  -0.012863  0  -0.102286  -0.178438  0  3.96456  0
C  C78  1  0.29009551  0.48224615  0.84407619  1  -0.016622  0  -0.098638  -0.17353  0  3.94586  0
C  C79  1  0.30168320  0.48556107  0.78203502  1  -0.222601  0  -0.042681  0.037971  0  3.894486  0
C  C80  1  0.39343365  0.43365196  0.80198873  1  -0.10185  0  -0.012954  0.08405  0  3.947193  0
C  C81  1  0.38176671  0.42822987  0.86321039  1  0.005131  0  -0.09869  -0.195621  0  3.965438  0
C  C82  1  0.33183671  0.45514871  0.88664194  1  0.016283  0  -0.005204  0.148242  0  4.03  0
C  C83  1  0.73490195  0.59224550  0.44565714  1  0.268264  0  0.047647  0.075814  0  3.961613  0
C  C84  1  0.32237950  0.51455048  0.00643868  1  -0.028013  0  -0.101046  -0.123711  0  4.012212  0
C  C85  1  0.33079256  0.45897413  0.95736434  1  -0.069296  0  -0.08965  -0.125329  0  3.989874  0
C  C86  1  0.35511019  0.46336909  0.75960560  1  0.071364  0  -0.017341  0.010542  0  3.986966  0
C  C87  1  0.29148715  0.46493698  0.40973870  1  0.474795  0  0.018607  -0.034766  0  3.915266  0
C  C88  1  0.79093295  0.64092549  0.77960427  1  0.027586  0  -0.004306  0.078806  0  3.992612  0
C  C89  1  0.79412444  0.64178126  0.84843620  1  -0.19537  0  -0.049369  0.016356  0  3.858794  0
C  C90  1  0.86589840  0.69485495  0.91638158  1  -0.004232  0  -0.098063  -0.145955  0  3.93635  0
C  C91  1  0.94026765  0.74911988  0.92089662  1  0.040398  0  -0.01907  0.104519  0  4.004447  0
C  C92  1  0.93963928  0.73958393  0.85042606  1  -0.273715  0  -0.044496  0.025749  0  3.869172  0
C  C93  1  0.86763860  0.68858736  0.78322421  1  0.045721  0  -0.099863  -0.165871  0  3.975532  0
C  C94  1  0.08272291  0.00378827  0.11579999  1  -0.065268  0  -0.017725  0.037149  0  3.90471  0
C  C95  1  0.58392907  0.36265994  0.50979613  1  0.385108  0  0.019405  -0.036696  0  3.931808  0
C  C96  1  0.14576030  0.08523347  0.16586059  1  -0.05999  0  -0.025499  0.010259  0  3.925599  0
C  C97  1  0.23016064  0.03694115  0.22207611  1  0.050155  0  -0.096967  -0.162303  0  3.967772  0
C  C98  1  0.58044960  0.78503805  0.64974359  1  0.405215  0  0.019448  -0.044133  0  3.959877  0
C  C99  1  0.16806346  0.95606375  0.17104601  1  -0.271575  0  -0.047655  0.039016  0  3.903376  0
C  C100  1  0.09274794  0.93746515  0.11755209  1  0.118286  0  -0.025954  -0.003321  0  4.01974  0
C  C101  1  0.01012129  0.81775017  0.99068992  1  0.076641  0  -0.106823  -0.182202  0  4.00846  0
C  C102  1  0.02439686  0.85254968  0.06342135  1  -0.173719  0  -0.033244  0.055541  0  3.969171  0
C  C103  1  0.21963221  0.10245831  0.22088277  1  0.053885  0  -0.010304  0.078417  0  4.021556  0
C  C104  1  0.63614524  0.58422208  0.69621141  1  0.406848  0  0.005094  -0.035122  0  3.940554  0
C  C105  1  0.71733500  0.60423309  0.70866176  1  0.019004  0  -0.036812  -0.035013  0  4.030697  0
C  C106  1  0.36144000  0.23719454  0.28742764  1  0.431646  0  0.009565  -0.046963  0  3.986172  0
C  C107  1  0.27862698  0.23795217  0.33958647  1  0.436728  0  0.072847  0.124224  0  4.057049  0
I  I108  1  0.97446936  0.36705322  0.23819939  1  0.087064  0  0.025355  -0.07066  0  1.268121  0
I  I109  1  0.51900701  0.72401529  0.41667365  1  0.168992  0  0.107778  -0.010818  0  1.693652  0
I  I110  1  0.59033577  0.94445985  0.44854349  1  0.089663  0  0.041464  -0.045777  0  1.411602  0
I  I111  1  0.23565289  0.52529037  0.71985244  1  0.08451  0  0.035768  -0.068205  0  1.304211  0
I  I112  1  0.17863860  0.35831778  0.01212722  1  0.087419  0  0.038288  -0.064108  0  1.306256  0
I  I113  1  0.48473223  0.68945345  0.13121455  1  0.087463  0  0.04873  -0.051071  0  1.304074  0
I  I114  1  0.69180882  0.56424329  0.85631535  1  0.093255  0  0.050454  -0.060068  0  1.476527  0
I  I115  1  0.04672470  0.80582930  0.84198600  1  0.084484  0  0.050588  -0.056544  0  1.326393  0
I  I116  1  0.18943458  0.86146549  0.17585628  1  0.121275  0  0.057757  -0.036771  0  1.329841  0
I  I117  1  0.81590664  0.71736869  0.50347270  1  0.168707  0  0.111112  0.006674  0  1.385001  0
Br  Br118  1  0.19418394  0.21538135  0.36922396  1  -0.03309  0  0.04644  -0.045269  0  1.416504  0
Br  Br119  1  0.98167218  0.98137888  0.04511105  1  -0.015569  0  0.03456  -0.032052  0  1.483191  0
Br  Br120  1  0.05139928  0.72201479  0.49900119  1  -0.092942  0  -0.02649  -0.123795  0  1.264332  0
Br  Br121  1  0.40942739  0.27000768  0.57353659  1  -0.009373  0  0.057914  -0.037988  0  1.51176  0
Br  Br122  1  0.90083963  0.51689633  0.20552787  1  -0.06788  0  -0.01437  -0.096275  0  1.285893  0
Br  Br123  1  0.74547191  0.17981170  0.55276660  1  -0.052175  0  -0.005516  -0.08282  0  1.355361  0
Br  Br124  1  0.79911388  0.18592609  0.74244255  1  -0.069489  0  -0.013044  -0.094094  0  1.282366  0
Br  Br125  1  0.46773140  0.40220525  0.77798256  1  -0.071641  0  0.013598  -0.075123  0  1.526221  0
Br  Br126  1  0.13389060  0.17358021  0.15957191  1  -0.034118  0  0.021227  -0.058196  0  1.504532  0
Br  Br127  1  0.95573720  0.80823410  0.10591562  1  -0.055525  0  0.031531  -0.047281  0  1.427255  0
N  N128  1  0.64190189  0.58001442  0.59140941  1  -0.788721  0  -0.283326  -0.19069  0  3.632521  0
N  N129  1  0.43311923  0.53194691  0.63804782  1  -0.786332  0  -0.274601  -0.167614  0  3.559464  0
N  N130  1  0.62326887  0.47806867  0.40906957  1  -0.80682  0  -0.264317  -0.15916  0  3.541199  0
N  N131  1  0.38184276  0.44949006  0.58898996  1  -0.80018  0  -0.272359  -0.18224  0  3.537226  0
N  N132  1  0.66431980  0.56203677  0.45096243  1  -0.761611  0  -0.269807  -0.205852  0  3.538425  0
N  N133  1  0.54124771  0.40090027  0.49784230  1  -0.766714  0  -0.278832  -0.169357  0  3.601851  0
N  N134  1  0.59255349  0.57090148  0.62645790  1  -0.803597  0  -0.286848  -0.181955  0  3.607818  0
N  N135  1  0.51265882  0.57179388  0.42134787  1  -0.782492  0  -0.276758  -0.214189  0  3.571539  0
N  N136  1  0.36399069  0.47988555  0.45751276  1  -0.792829  0  -0.277693  -0.183716  0  3.616385  0
N  N137  1  0.58029124  0.71421984  0.62242572  1  -0.783175  0  -0.270742  -0.170627  0  3.543431  0
N  N138  1  0.39918318  0.31149078  0.34839295  1  -0.782037  0  -0.265  -0.160968  0  3.523157  0
N  N139  1  0.34714437  0.31159994  0.38088738  1  -0.772111  0  -0.272578  -0.229802  0  3.530726  0
N  N140  1  0.63359896  0.72301474  0.59022385  1  -0.800087  0  -0.274598  -0.183097  0  3.557295  0
N  N141  1  0.47269549  0.48851123  0.37983525  1  -0.777849  0  -0.283379  -0.174642  0  3.635684  0
N  N142  1  0.41177349  0.56185986  0.50548810  1  -0.792979  0  -0.283215  -0.180042  0  3.644332  0
N  N143  1  0.48111788  0.37834119  0.52054670  1  -0.769997  0  -0.273381  -0.223821  0  3.559694  0
