# generated using pymatgen
data_SrHgH9C9S2N3O7
_symmetry_space_group_name_H-M   'P 1'
_cell_length_a   6.75290095
_cell_length_b   15.64525058
_cell_length_c   15.74600000
_cell_angle_alpha   100.48219544
_cell_angle_beta   102.71202320
_cell_angle_gamma   89.93853002
_symmetry_Int_Tables_number   1
_chemical_formula_structural   SrHgH9C9S2N3O7
_chemical_formula_sum   'Sr4 Hg4 H36 C36 S8 N12 O28'
_cell_volume   1594.40196554
_cell_formula_units_Z   4
loop_
 _symmetry_equiv_pos_site_id
 _symmetry_equiv_pos_as_xyz
  1  'x, y, z'
loop_
 _atom_site_type_symbol
 _atom_site_label
 _atom_site_symmetry_multiplicity
 _atom_site_fract_x
 _atom_site_fract_y
 _atom_site_fract_z
 _atom_site_occupancy
 _atom_site_hle17_bader_spin_density
 _atom_site_hle17_ddec_charge
 _atom_site_hle17_ddec_spin_density
 _atom_site_hle17_ddec_sum_bond_order
 _atom_site_hle17_magmom
 _atom_site_hse06_10hf_bader_spin_density
 _atom_site_hse06_10hf_ddec_charge
 _atom_site_hse06_10hf_ddec_spin_density
 _atom_site_hse06_10hf_ddec_sum_bond_order
 _atom_site_hse06_10hf_magmom
 _atom_site_hse06_bader_spin_density
 _atom_site_hse06_ddec_charge
 _atom_site_hse06_ddec_spin_density
 _atom_site_hse06_ddec_sum_bond_order
 _atom_site_hse06_magmom
 _atom_site_pbe_bader_charge
 _atom_site_pbe_bader_spin_density
 _atom_site_pbe_cm5_charge
 _atom_site_pbe_ddec_charge
 _atom_site_pbe_ddec_spin_density
 _atom_site_pbe_ddec_sum_bond_order
 _atom_site_pbe_magmom
Sr  Sr0  1  0.51122431  0.32767872  0.55572686  1  0  1.632517  0  1.048745  0  0  1.486163  0  1.415245  0  0  1.523259  0  1.371544  0  1.693077  0  0.937432  1.458876  0  1.446248  0
Sr  Sr1  1  0.95495074  0.17217949  0.44430338  1  0  1.632522  0  1.047398  0  0  1.48638  0  1.413103  0  0  1.5235  0  1.369398  0  1.694338  0  0.936622  1.459075  0  1.444122  0
Sr  Sr2  1  0.48877642  0.67232135  0.44427589  1  0  1.632515  0  1.048752  0  0  1.486147  0  1.415262  0  0  1.523243  0  1.371563  0  1.693064  0  0.937432  1.458828  0  1.446318  0
Sr  Sr3  1  0.04504987  0.82781927  0.55569531  1  0  1.632486  0  1.047482  0  0  1.486368  0  1.413137  0  0  1.523494  0  1.369426  0  1.694323  0  0.936611  1.459022  0  1.444227  0
Hg  Hg4  1  0.95061863  0.63031037  0.85221706  1  0  0.673576  0  2.125862  0  0  0.523119  0  2.614186  0  0  0.565463  0  2.587062  0  0.76565  0  0.541277  0.494286  0  2.63218  0
Hg  Hg5  1  0.09588659  0.86926882  0.14771627  1  0  0.673861  0  2.124098  0  0  0.523144  0  2.612292  0  0  0.56558  0  2.585123  0  0.766219  0  0.541336  0.494249  0  2.630311  0
Hg  Hg6  1  0.04938823  0.36969035  0.14778575  1  0  0.673621  0  2.12584  0  0  0.523149  0  2.614194  0  0  0.565489  0  2.587073  0  0.765649  0  0.541309  0.494314  0  2.632189  0
Hg  Hg7  1  0.90411414  0.13073125  0.85228457  1  0  0.673953  0  2.124081  0  0  0.523183  0  2.612289  0  0  0.565623  0  2.585115  0  0.766273  0  0.541363  0.494286  0  2.630312  0
H  H8  1  0.14256685  0.43650834  0.55020722  1  0  0.427324  0  0.851164  0  0  0.396933  0  0.925862  0  0  0.405865  0  0.912771  0  0.626271  0  0.3106  0.390585  0  0.935144  0
H  H9  1  0.59188478  0.06354569  0.44974487  1  0  0.427649  0  0.852661  0  0  0.39682  0  0.926687  0  0  0.405771  0  0.913598  0  0.637676  0  0.310248  0.39046  0  0.935999  0
H  H10  1  0.85743097  0.56349303  0.44979295  1  0  0.427373  0  0.851128  0  0  0.396983  0  0.925795  0  0  0.405913  0  0.912708  0  0.626237  0  0.310617  0.390637  0  0.935093  0
H  H11  1  0.40811917  0.93645633  0.55025409  1  0  0.427654  0  0.852668  0  0  0.396827  0  0.926683  0  0  0.40578  0  0.913592  0  0.637678  0  0.310229  0.390466  0  0.935996  0
H  H12  1  0.21457158  0.48858667  0.48365003  1  0  0.42077  0  0.89046  0  0  0.386304  0  0.959705  0  0  0.398513  0  0.941804  0  0.64411  0  0.297409  0.377662  0  0.972368  0
H  H13  1  0.73160869  0.01133334  0.51628260  1  0  0.42063  0  0.890224  0  0  0.386553  0  0.959001  0  0  0.398727  0  0.941144  0  0.646596  0  0.297177  0.377925  0  0.971653  0
H  H14  1  0.78543523  0.51141339  0.51635076  1  0  0.420722  0  0.890522  0  0  0.386268  0  0.959746  0  0  0.398474  0  0.94185  0  0.644081  0  0.297407  0.377626  0  0.972409  0
H  H15  1  0.26838445  0.98866673  0.48371689  1  0  0.420617  0  0.890248  0  0  0.386537  0  0.959033  0  0  0.398706  0  0.941183  0  0.64661  0  0.297163  0.377908  0  0.971685  0
H  H16  1  0.59685424  0.15403743  0.64038216  1  0  0.429257  0  0.861993  0  0  0.400768  0  0.921169  0  0  0.410241  0  0.907134  0  0.628545  0  0.297825  0.394034  0  0.931162  0
H  H17  1  0.95346810  0.34556447  0.35930334  1  0  0.429772  0  0.860635  0  0  0.40128  0  0.919727  0  0  0.410752  0  0.905688  0  0.627277  0  0.298445  0.394551  0  0.929717  0
H  H18  1  0.40314807  0.84596329  0.35962022  1  0  0.429222  0  0.862043  0  0  0.400758  0  0.921185  0  0  0.410232  0  0.907148  0  0.628419  0  0.297835  0.394025  0  0.931178  0
H  H19  1  0.04653555  0.65443430  0.64069754  1  0  0.429768  0  0.860639  0  0  0.401273  0  0.919733  0  0  0.410746  0  0.905692  0  0.627267  0  0.298442  0.394542  0  0.929725  0
H  H20  1  0.35820588  0.16548527  0.62704273  1  0  0.425769  0  0.874764  0  0  0.396799  0  0.935596  0  0  0.406768  0  0.920871  0  0.642487  0  0.295453  0.389748  0  0.945997  0
H  H21  1  0.72875227  0.33452583  0.37301835  1  0  0.425992  0  0.874462  0  0  0.397245  0  0.934857  0  0  0.407229  0  0.920107  0  0.639574  0  0.296035  0.390183  0  0.945282  0
H  H22  1  0.64179485  0.83451480  0.37295684  1  0  0.425766  0  0.874766  0  0  0.396797  0  0.935596  0  0  0.406764  0  0.920873  0  0.642481  0  0.295451  0.389746  0  0.945995  0
H  H23  1  0.27124998  0.66547424  0.62698200  1  0  0.425971  0  0.874495  0  0  0.397221  0  0.934893  0  0  0.407205  0  0.920143  0  0.639556  0  0.296033  0.390159  0  0.945317  0
H  H24  1  0.37559542  0.39489485  0.36925969  1  0  0.425511  0  0.861857  0  0  0.39332  0  0.934403  0  0  0.402919  0  0.920414  0  0.637038  0  0.301723  0.386528  0  0.944288  0
H  H25  1  0.00885433  0.10526457  0.63096635  1  0  0.426751  0  0.862074  0  0  0.395185  0  0.931562  0  0  0.404733  0  0.91765  0  0.617727  0  0.302846  0.388417  0  0.941425  0
H  H26  1  0.62441436  0.60510457  0.63074126  1  0  0.425479  0  0.861942  0  0  0.393337  0  0.934388  0  0  0.402932  0  0.920401  0  0.636983  0  0.301736  0.386556  0  0.944269  0
H  H27  1  0.99114640  0.89473550  0.36903322  1  0  0.426728  0  0.862088  0  0  0.39518  0  0.931569  0  0  0.404728  0  0.917657  0  0.617717  0  0.302835  0.388412  0  0.941432  0
H  H28  1  0.58245975  0.45006333  0.41062670  1  0  0.423187  0  0.880693  0  0  0.394787  0  0.940581  0  0  0.404746  0  0.926046  0  0.648716  0  0.299226  0.387761  0  0.950836  0
H  H29  1  0.17364022  0.04996793  0.58977340  1  0  0.422887  0  0.88105  0  0  0.394384  0  0.941097  0  0  0.404339  0  0.926573  0  0.64846  0  0.299205  0.387371  0  0.951318  0
H  H30  1  0.41754857  0.54993674  0.58937423  1  0  0.423114  0  0.880783  0  0  0.394736  0  0.940638  0  0  0.404695  0  0.926104  0  0.648721  0  0.299238  0.387711  0  0.950891  0
H  H31  1  0.82635741  0.95003149  0.41022513  1  0  0.422846  0  0.881115  0  0  0.394309  0  0.941192  0  0  0.40426  0  0.926677  0  0.648434  0  0.299186  0.387296  0  0.951413  0
H  H32  1  0.24231465  0.25273658  0.76757776  1  0  0.097773  0  0.955973  0  0  0.103754  0  1.027761  0  0  0.107263  0  1.024899  0  0.105109  0  0.103723  0.101146  0  1.029966  0
H  H33  1  0.47328788  0.24682758  0.23323654  1  0  0.097727  0  0.956661  0  0  0.103796  0  1.028032  0  0  0.107324  0  1.025127  0  0.137319  0  0.104143  0.101177  0  1.030266  0
H  H34  1  0.75768128  0.74726088  0.23242343  1  0  0.097768  0  0.95603  0  0  0.103763  0  1.027779  0  0  0.10727  0  1.02491  0  0.105119  0  0.10372  0.101147  0  1.030009  0
H  H35  1  0.52671279  0.75317184  0.76676291  1  0  0.09776  0  0.956663  0  0  0.103843  0  1.028012  0  0  0.107371  0  1.025109  0  0.137307  0  0.104162  0.101225  0  1.030244  0
H  H36  1  0.33811056  0.33940044  0.92215263  1  0  0.10444  0  0.936699  0  0  0.11807  0  0.989169  0  0  0.120703  0  0.989008  0  0.085167  0  0.106791  0.116193  0  0.989434  0
H  H37  1  0.41466731  0.15992041  0.07881722  1  0  0.102383  0  0.937054  0  0  0.11587  0  0.990093  0  0  0.118499  0  0.989936  0  0.123677  0  0.105477  0.113989  0  0.990369  0
H  H38  1  0.66188239  0.66059767  0.07784713  1  0  0.104405  0  0.93682  0  0  0.118096  0  0.989221  0  0  0.120729  0  0.989061  0  0.085135  0  0.106803  0.11622  0  0.989484  0
H  H39  1  0.58533184  0.84007901  0.92118335  1  0  0.102373  0  0.937087  0  0  0.115871  0  0.990113  0  0  0.118501  0  0.989955  0  0.123656  0  0.105481  0.113991  0  0.990389  0
H  H40  1  0.21957511  0.49239568  0.95077735  1  0  0.086632  0  0.961999  0  0  0.09084  0  1.033578  0  0  0.093578  0  1.030918  0  0.125267  0  0.111015  0.088877  0  1.035481  0
H  H41  1  0.26691247  0.00696616  0.04984537  1  0  0.087442  0  0.962202  0  0  0.092063  0  1.032955  0  0  0.094876  0  1.03017  0  0.175844  0  0.110838  0.089983  0  1.035024  0
H  H42  1  0.78042860  0.50760374  0.04922365  1  0  0.086587  0  0.962016  0  0  0.090814  0  1.033569  0  0  0.093551  0  1.030909  0  0.125274  0  0.111002  0.088854  0  1.035469  0
H  H43  1  0.73308528  0.99303456  0.95015531  1  0  0.087376  0  0.962181  0  0  0.091996  0  1.032959  0  0  0.094811  0  1.030172  0  0.175858  0  0.110808  0.089915  0  1.03503  0
C  C44  1  0.91658419  0.49215758  0.66503210  1  0  0.626127  0  3.913169  0  0  0.566964  0  4.216873  0  0  0.600123  0  4.209462  0  1.60096  0  0.221785  0.544539  0  4.221149  0
C  C45  1  0.24952959  0.00772210  0.33494578  1  0  0.627179  0  3.913901  0  0  0.568664  0  4.216781  0  0  0.601875  0  4.209301  0  1.596641  0  0.223011  0.546214  0  4.221082  0
C  C46  1  0.08342426  0.50784379  0.33496971  1  0  0.626327  0  3.913099  0  0  0.567165  0  4.216771  0  0  0.600327  0  4.209357  0  1.601347  0  0.221897  0.544745  0  4.221048  0
C  C47  1  0.75045432  0.99227666  0.66505197  1  0  0.627359  0  3.913806  0  0  0.568785  0  4.216706  0  0  0.602004  0  4.209222  0  1.597769  0  0.223114  0.546332  0  4.221007  0
C  C48  1  0.02547283  0.30407719  0.62280574  1  0  0.694176  0  3.944057  0  0  0.638669  0  4.241927  0  0  0.674223  0  4.23093  0  1.62646  0  0.223829  0.614363  0  4.248715  0
C  C49  1  0.40089421  0.19581811  0.37740039  1  0  0.696939  0  3.940681  0  0  0.641099  0  4.239018  0  0  0.676638  0  4.227993  0  1.645438  0  0.225639  0.616809  0  4.245819  0
C  C50  1  0.97452626  0.69592158  0.37719471  1  0  0.694205  0  3.944092  0  0  0.638671  0  4.242017  0  0  0.674223  0  4.231024  0  1.626123  0  0.223786  0.614367  0  4.248796  0
C  C51  1  0.59910494  0.80418131  0.62259955  1  0  0.696834  0  3.940796  0  0  0.641015  0  4.239079  0  0  0.676548  0  4.228072  0  1.645453  0  0.22562  0.616727  0  4.245871  0
C  C52  1  0.02970764  0.44496427  0.73561061  1  0  0.069741  0  3.705534  0  0  0.061609  0  3.95157  0  0  0.063355  0  3.971256  0  0.528394  0  0.115337  0.06031  0  3.938464  0
C  C53  1  0.29174136  0.05482759  0.26456690  1  0  0.068453  0  3.705956  0  0  0.060098  0  3.95173  0  0  0.061766  0  3.971441  0  0.535138  0  0.114444  0.058847  0  3.938639  0
C  C54  1  0.97029917  0.55503580  0.26438890  1  0  0.069595  0  3.705334  0  0  0.061479  0  3.951375  0  0  0.063224  0  3.971052  0  0.528371  0  0.11527  0.060181  0  3.938269  0
C  C55  1  0.70825615  0.94517053  0.73543329  1  0  0.068339  0  3.706085  0  0  0.059983  0  3.951859  0  0  0.061653  0  3.971566  0  0.533816  0  0.114434  0.058741  0  3.938752  0
C  C56  1  0.08231202  0.35820217  0.71463034  1  0  -0.070497  0  3.667518  0  0  -0.056754  0  3.907366  0  0  -0.062258  0  3.924493  0  0.01133  0  0.014678  -0.053512  0  3.896239  0
C  C57  1  0.36533955  0.14161180  0.28565181  1  0  -0.068343  0  3.667663  0  0  -0.054848  0  3.907864  0  0  -0.060175  0  3.924805  0  0.000799  0  0.015869  -0.051741  0  3.896873  0
C  C58  1  0.91769036  0.64179920  0.28537026  1  0  -0.070479  0  3.667366  0  0  -0.056771  0  3.907234  0  0  -0.062272  0  3.924361  0  0.011363  0  0.014664  -0.053528  0  3.896106  0
C  C59  1  0.63465809  0.85838762  0.71434863  1  0  -0.068265  0  3.667649  0  0  -0.054764  0  3.907804  0  0  -0.060086  0  3.924741  0  0.000968  0  0.015906  -0.051661  0  3.896812  0
C  C60  1  0.19547216  0.31953571  0.78239460  1  0  -0.021364  0  3.696376  0  0  -0.051324  0  3.953953  0  0  -0.048363  0  3.971086  0  -0.058355  0  -0.056936  -0.052954  0  3.94226  0
C  C61  1  0.41121759  0.18007725  0.21819021  1  0  -0.023077  0  3.695933  0  0  -0.052821  0  3.954233  0  0  -0.049894  0  3.971192  0  -0.040745  0  -0.057841  -0.054476  0  3.942764  0
C  C62  1  0.80452712  0.68046501  0.21760495  1  0  -0.021354  0  3.696426  0  0  -0.051302  0  3.954028  0  0  -0.048325  0  3.971142  0  -0.058419  0  -0.056907  -0.05294  0  3.942344  0
C  C63  1  0.58878156  0.81992217  0.78181100  1  0  -0.023083  0  3.696108  0  0  -0.052854  0  3.954431  0  0  -0.049929  0  3.971392  0  -0.040761  0  -0.057849  -0.054507  0  3.942961  0
C  C64  1  0.24897953  0.36727874  0.86806232  1  0  -0.095753  0  3.728799  0  0  -0.1097  0  3.983718  0  0  -0.11613  0  4.00511  0  0.002161  0  -0.075243  -0.105527  0  3.969185  0
C  C65  1  0.37917989  0.13222037  0.13264820  1  0  -0.091764  0  3.725417  0  0  -0.106025  0  3.980343  0  0  -0.112426  0  4.001783  0  -0.012055  0  -0.073736  -0.101871  0  3.965746  0
C  C66  1  0.75101671  0.63272198  0.13193822  1  0  -0.095742  0  3.728789  0  0  -0.109735  0  3.983689  0  0  -0.116171  0  4.005097  0  0.002171  0  -0.075226  -0.105561  0  3.969153  0
C  C67  1  0.62081926  0.86777905  0.86735047  1  0  -0.091859  0  3.725522  0  0  -0.106123  0  3.980447  0  0  -0.112528  0  4.001894  0  -0.012002  0  -0.073805  -0.101969  0  3.965849  0
C  C68  1  0.18655938  0.45250422  0.88453225  1  0  0.131834  0  3.687314  0  0  0.095764  0  3.946284  0  0  0.103335  0  3.963391  0  0.533837  0  0.046761  0.090824  0  3.934531  0
C  C69  1  0.30001194  0.04702026  0.11601092  1  0  0.128647  0  3.686435  0  0  0.092354  0  3.944967  0  0  0.099888  0  3.962125  0  0.402345  0  0.045178  0.0875  0  3.933167  0
C  C70  1  0.81344287  0.54749585  0.11546938  1  0  0.132013  0  3.687205  0  0  0.095917  0  3.94623  0  0  0.103487  0  3.963337  0  0.533881  0  0.046815  0.090977  0  3.934479  0
C  C71  1  0.69999183  0.95297981  0.88398894  1  0  0.128783  0  3.686338  0  0  0.092488  0  3.944858  0  0  0.100023  0  3.962017  0  0.402385  0  0.045239  0.087633  0  3.933059  0
C  C72  1  0.56371906  0.50171880  0.77460934  1  0  0.288228  0  3.936341  0  0  0.272511  0  4.241842  0  0  0.29051  0  4.257588  0  0.647245  0  0.14699  0.260132  0  4.231247  0
C  C73  1  0.78664652  0.99815249  0.22479321  1  0  0.288245  0  3.937043  0  0  0.272313  0  4.242826  0  0  0.290338  0  4.258569  0  0.646462  0  0.147385  0.259917  0  4.232225  0
C  C74  1  0.43628793  0.49828322  0.22539626  1  0  0.288168  0  3.936178  0  0  0.272453  0  4.241689  0  0  0.29045  0  4.257433  0  0.647368  0  0.146946  0.260074  0  4.231098  0
C  C75  1  0.21334395  0.00185148  0.77520419  1  0  0.288129  0  3.936934  0  0  0.272186  0  4.242726  0  0  0.290211  0  4.258475  0  0.646345  0  0.147299  0.259789  0  4.232122  0
C  C76  1  0.19261396  0.67679652  0.07456458  1  0  0.257902  0  3.960905  0  0  0.242186  0  4.259354  0  0  0.261809  0  4.276812  0  0.621922  0  0.144407  0.228912  0  4.247434  0
C  C77  1  0.11943564  0.82269354  0.92615869  1  0  0.256565  0  3.962476  0  0  0.240977  0  4.260704  0  0  0.260603  0  4.278146  0  0.616348  0  0.144837  0.227703  0  4.24877  0
C  C78  1  0.80738008  0.32319704  0.92543255  1  0  0.25767  0  3.960558  0  0  0.241963  0  4.259025  0  0  0.261587  0  4.276492  0  0.621289  0  0.14427  0.228685  0  4.247101  0
C  C79  1  0.88055629  0.17730978  0.07384127  1  0  0.256285  0  3.961987  0  0  0.240692  0  4.260259  0  0  0.26032  0  4.277712  0  0.616153  0  0.144603  0.227415  0  4.248323  0
S  S80  1  0.58757262  0.58804438  0.85481815  1  0  -0.254056  0  2.172906  0  0  -0.217025  0  2.502872  0  0  -0.235571  0  2.497406  0  0.078974  0  -0.109191  -0.204341  0  2.506453  0
S  S81  1  0.72995249  0.91228686  0.14393591  1  0  -0.254061  0  2.172627  0  0  -0.216876  0  2.502646  0  0  -0.235514  0  2.497254  0  0.067686  0  -0.109565  -0.204122  0  2.506156  0
S  S82  1  0.41243406  0.41195439  0.14518239  1  0  -0.254063  0  2.172716  0  0  -0.217029  0  2.502677  0  0  -0.235578  0  2.497215  0  0.079001  0  -0.109167  -0.204346  0  2.506261  0
S  S83  1  0.27005444  0.08771451  0.85605750  1  0  -0.254033  0  2.172794  0  0  -0.216838  0  2.502815  0  0  -0.235476  0  2.497425  0  0.067789  0  -0.109536  -0.204085  0  2.506323  0
S  S84  1  0.28670688  0.73614548  0.17294942  1  0  -0.171694  0  2.334032  0  0  -0.1402  0  2.693186  0  0  -0.156482  0  2.688993  0  0.187012  0  -0.056722  -0.129434  0  2.696092  0
S  S85  1  0.11741106  0.76342265  0.82817040  1  0  -0.171532  0  2.330638  0  0  -0.140086  0  2.688973  0  0  -0.156359  0  2.684747  0  0.191517  0  -0.057581  -0.129305  0  2.69191  0
S  S86  1  0.71328159  0.26385329  0.82705575  1  0  -0.171666  0  2.3343  0  0  -0.140171  0  2.693466  0  0  -0.156454  0  2.689285  0  0.187083  0  -0.056753  -0.12941  0  2.696377  0
S  S87  1  0.88257443  0.23657676  0.17182380  1  0  -0.171421  0  2.330805  0  0  -0.139957  0  2.689132  0  0  -0.156229  0  2.684908  0  0.19174  0  -0.057563  -0.129171  0  2.692058  0
N  N88  1  0.08154526  0.48977979  0.81947508  1  0  -0.276563  0  3.27987  0  0  -0.202349  0  3.538076  0  0  -0.22133  0  3.560495  0  -1.209609  0  -0.299324  -0.189331  0  3.522475  0
N  N89  1  0.25989902  0.00989431  0.18080959  1  0  -0.27567  0  3.277305  0  0  -0.200799  0  3.534599  0  0  -0.219868  0  3.557199  0  -1.203613  0  -0.298181  -0.187754  0  3.518899  0
N  N90  1  0.91846015  0.51022158  0.18052517  1  0  -0.276641  0  3.279825  0  0  -0.20245  0  3.53807  0  0  -0.221431  0  3.560492  0  -1.209566  0  -0.299381  -0.189431  0  3.522469  0
N  N91  1  0.74010323  0.99010576  0.81919012  1  0  -0.27564  0  3.277326  0  0  -0.200777  0  3.534622  0  0  -0.219844  0  3.557212  0  -1.203624  0  -0.298193  -0.187731  0  3.518918  0
N  N92  1  0.54394157  0.44058342  0.71677808  1  0  -0.518007  0  2.692789  0  0  -0.483779  0  2.945837  0  0  -0.499328  0  2.957291  0  -1.25445  0  -0.372015  -0.473262  0  2.938354  0
N  N93  1  0.82456964  0.05898920  0.28301975  1  0  -0.518018  0  2.692009  0  0  -0.483655  0  2.944889  0  0  -0.499221  0  2.956373  0  -1.244941  0  -0.371369  -0.473115  0  2.937374  0
N  N94  1  0.45607130  0.55941665  0.28322391  1  0  -0.517931  0  2.692845  0  0  -0.483702  0  2.945877  0  0  -0.49925  0  2.957332  0  -1.254554  0  -0.371983  -0.473183  0  2.938398  0
N  N95  1  0.17542623  0.94100762  0.71697687  1  0  -0.517919  0  2.69161  0  0  -0.483558  0  2.944508  0  0  -0.499125  0  2.955997  0  -1.244938  0  -0.371295  -0.473012  0  2.936993  0
N  N96  1  0.12924628  0.63037608  0.00581813  1  0  -0.471976  0  2.860394  0  0  -0.423655  0  3.127273  0  0  -0.443651  0  3.137302  0  -1.240596  0  -0.356615  -0.410145  0  3.120328  0
N  N97  1  0.12294654  0.86887523  0.99471870  1  0  -0.471751  0  2.863059  0  0  -0.423525  0  3.130296  0  0  -0.443544  0  3.140354  0  -1.238601  0  -0.357041  -0.40998  0  3.12331  0
N  N98  1  0.87075805  0.36962985  0.99418665  1  0  -0.471833  0  2.859699  0  0  -0.423521  0  3.126586  0  0  -0.44352  0  3.136624  0  -1.24007  0  -0.356513  -0.410006  0  3.119636  0
N  N99  1  0.87704034  0.13112288  0.00527159  1  0  -0.471585  0  2.862379  0  0  -0.423346  0  3.129634  0  0  -0.44337  0  3.139697  0  -1.238679  0  -0.356834  -0.409796  0  3.122644  0
O  O100  1  0.89470961  0.57352461  0.68375323  1  0  -0.621878  0  2.061338  0  0  -0.549074  0  2.293944  0  0  -0.574922  0  2.282815  0  -1.189634  0  -0.299025  -0.53105  0  2.301035  0
O  O101  1  0.20801631  0.92641759  0.31618430  1  0  -0.621835  0  2.063022  0  0  -0.5496  0  2.295532  0  0  -0.575397  0  2.284271  0  -1.188753  0  -0.299413  -0.531563  0  2.30267  0
O  O102  1  0.10529422  0.42647611  0.31624865  1  0  -0.622002  0  2.061342  0  0  -0.549193  0  2.293974  0  0  -0.575023  0  2.282802  0  -1.18995  0  -0.299109  -0.531171  0  2.30105  0
O  O103  1  0.79197829  0.07358182  0.68381649  1  0  -0.621991  0  2.063059  0  0  -0.549564  0  2.295411  0  0  -0.575359  0  2.284144  0  -1.188708  0  -0.299405  -0.531526  0  2.302549  0
O  O104  1  0.85112538  0.44635321  0.58780007  1  0  -0.662045  0  2.026702  0  0  -0.591303  0  2.247885  0  0  -0.616925  0  2.238551  0  -1.202401  0  -0.307935  -0.573374  0  2.253866  0
O  O105  1  0.26263185  0.05353883  0.41212600  1  0  -0.662594  0  2.028311  0  0  -0.592412  0  2.249604  0  0  -0.618021  0  2.240127  0  -1.197786  0  -0.308313  -0.574528  0  2.255731  0
O  O106  1  0.14888914  0.55364816  0.41220040  1  0  -0.662126  0  2.026735  0  0  -0.591319  0  2.247819  0  0  -0.616948  0  2.238485  0  -1.202466  0  -0.307944  -0.573395  0  2.253805  0
O  O107  1  0.73734484  0.94646384  0.58787051  1  0  -0.662664  0  2.028299  0  0  -0.592518  0  2.24965  0  0  -0.618153  0  2.240189  0  -1.197827  0  -0.308341  -0.574627  0  2.255776  0
O  O108  1  0.85651344  0.26179233  0.59925654  1  0  -0.706243  0  1.985377  0  0  -0.643636  0  2.228915  0  0  -0.671325  0  2.219285  0  -1.215921  0  -0.376269  -0.623826  0  2.234876  0
O  O109  1  0.25538908  0.23789544  0.40072494  1  0  -0.708345  0  1.986277  0  0  -0.645722  0  2.230441  0  0  -0.673432  0  2.220757  0  -1.214796  0  -0.376784  -0.625888  0  2.236434  0
O  O110  1  0.14348710  0.73820579  0.40074266  1  0  -0.706248  0  1.985342  0  0  -0.643636  0  2.228893  0  0  -0.671327  0  2.219266  0  -1.215882  0  -0.376251  -0.623816  0  2.234851  0
O  O111  1  0.74461487  0.76210658  0.59927402  1  0  -0.708322  0  1.986289  0  0  -0.645712  0  2.230437  0  0  -0.67342  0  2.220759  0  -1.214805  0  -0.376769  -0.625868  0  2.236427  0
O  O112  1  0.15638063  0.29858649  0.57557522  1  0  -0.727349  0  2.046206  0  0  -0.659309  0  2.295708  0  0  -0.687499  0  2.285269  0  -1.207654  0  -0.384837  -0.639217  0  2.302299  0
O  O113  1  0.58002453  0.20157748  0.42488531  1  0  -0.729195  0  2.04635  0  0  -0.66089  0  2.296181  0  0  -0.689115  0  2.285782  0  -1.223533  0  -0.387314  -0.640771  0  2.302743  0
O  O114  1  0.84362155  0.70141293  0.42442627  1  0  -0.727326  0  2.046273  0  0  -0.659273  0  2.29578  0  0  -0.687463  0  2.285344  0  -1.207353  0  -0.384811  -0.639171  0  2.302369  0
O  O115  1  0.41997620  0.79842259  0.57511617  1  0  -0.729142  0  2.046332  0  0  -0.660843  0  2.296141  0  0  -0.689064  0  2.285747  0  -1.223512  0  -0.387357  -0.640716  0  2.302701  0
O  O116  1  0.26373924  0.45889398  0.53560397  1  0  -0.877994  0  1.884815  0  0  -0.817711  0  2.079041  0  0  -0.83756  0  2.046837  0  -1.284862  0  -0.605308  -0.803584  0  2.101542  0
O  O117  1  0.72797217  0.04097919  0.46433788  1  0  -0.877695  0  1.884965  0  0  -0.817461  0  2.077692  0  0  -0.837301  0  2.045418  0  -1.298174  0  -0.6045  -0.803352  0  2.100323  0
O  O118  1  0.73626592  0.54110479  0.46439706  1  0  -0.878013  0  1.884829  0  0  -0.817724  0  2.07906  0  0  -0.837571  0  2.046857  0  -1.28483  0  -0.605318  -0.803591  0  2.101572  0
O  O119  1  0.27202686  0.95901892  0.53566118  1  0  -0.877695  0  1.884979  0  0  -0.817471  0  2.077688  0  0  -0.837314  0  2.045418  0  -1.298179  0  -0.604464  -0.803356  0  2.100323  0
O  O120  1  0.48858768  0.19488976  0.62825575  1  0  -0.872295  0  1.816679  0  0  -0.816911  0  1.995728  0  0  -0.835455  0  1.965603  0  -1.280932  0  -0.627516  -0.803571  0  2.016758  0
O  O121  1  0.85744779  0.30478499  0.37126405  1  0  -0.872981  0  1.814759  0  0  -0.817823  0  1.994019  0  0  -0.836334  0  1.963834  0  -1.277697  0  -0.628339  -0.804527  0  2.015114  0
O  O122  1  0.51141305  0.80511030  0.37174382  1  0  -0.872276  0  1.816731  0  0  -0.816899  0  1.995746  0  0  -0.835443  0  1.965624  0  -1.280796  0  -0.627511  -0.803552  0  2.016772  0
O  O123  1  0.14255282  0.69521377  0.62873464  1  0  -0.87296  0  1.8148  0  0  -0.817794  0  1.99406  0  0  -0.836303  0  1.963873  0  -1.277662  0  -0.628333  -0.804487  0  2.015166  0
O  O124  1  0.51713627  0.39118668  0.40163759  1  0  -0.866293  0  1.859795  0  0  -0.805216  0  2.034022  0  0  -0.825332  0  2.005105  0  -1.295237  0  -0.588562  -0.790958  0  2.054247  0
O  O125  1  0.11748944  0.10889793  0.59877288  1  0  -0.867435  0  1.862104  0  0  -0.806287  0  2.034895  0  0  -0.82637  0  2.006002  0  -1.27649  0  -0.589528  -0.79206  0  2.055072  0
O  O126  1  0.48287357  0.60881339  0.59836348  1  0  -0.866224  0  1.860011  0  0  -0.805199  0  2.034093  0  0  -0.825307  0  2.00519  0  -1.29519  0  -0.588588  -0.790961  0  2.054268  0
O  O127  1  0.88251123  0.89110149  0.40122721  1  0  -0.867415  0  1.862171  0  0  -0.80622  0  2.035019  0  0  -0.826302  0  2.006128  0  -1.276458  0  -0.589511  -0.791987  0  2.055197  0
