# generated using pymatgen
data_LiH18C15N
_symmetry_space_group_name_H-M   'P 1'
_cell_length_a   9.81040274
_cell_length_b   10.14791021
_cell_length_c   13.37300000
_cell_angle_alpha   90.00000000
_cell_angle_beta   90.00000000
_cell_angle_gamma   108.77728030
_symmetry_Int_Tables_number   1
_chemical_formula_structural   LiH18C15N
_chemical_formula_sum   'Li4 H72 C60 N4'
_cell_volume   1260.49168421
_cell_formula_units_Z   4
loop_
 _symmetry_equiv_pos_site_id
 _symmetry_equiv_pos_as_xyz
  1  'x, y, z'
loop_
 _atom_site_type_symbol
 _atom_site_label
 _atom_site_symmetry_multiplicity
 _atom_site_fract_x
 _atom_site_fract_y
 _atom_site_fract_z
 _atom_site_occupancy
 _atom_site_hle17_bader_spin_density
 _atom_site_hle17_ddec_charge
 _atom_site_hle17_ddec_spin_density
 _atom_site_hle17_ddec_sum_bond_order
 _atom_site_hle17_magmom
 _atom_site_hse06_10hf_bader_spin_density
 _atom_site_hse06_10hf_ddec_charge
 _atom_site_hse06_10hf_ddec_spin_density
 _atom_site_hse06_10hf_ddec_sum_bond_order
 _atom_site_hse06_10hf_magmom
 _atom_site_hse06_bader_spin_density
 _atom_site_hse06_ddec_charge
 _atom_site_hse06_ddec_spin_density
 _atom_site_hse06_ddec_sum_bond_order
 _atom_site_hse06_magmom
 _atom_site_pbe_bader_charge
 _atom_site_pbe_bader_spin_density
 _atom_site_pbe_cm5_charge
 _atom_site_pbe_ddec_charge
 _atom_site_pbe_ddec_spin_density
 _atom_site_pbe_ddec_sum_bond_order
 _atom_site_pbe_magmom
Li  Li0  1  0.34662991  0.38202471  0.27628655  1  0  0.77022  0  0.499031  0  0  0.712762  0  0.619157  0  0  0.716481  0  0.615504  0  0.83744  0  0.451761  0.708439  0  0.624402  0
Li  Li1  1  0.15336838  0.61797552  0.77628730  1  0  0.770196  0  0.499054  0  0  0.712749  0  0.619162  0  0  0.716468  0  0.615508  0  0.83744  0  0.451758  0.708425  0  0.624409  0
Li  Li2  1  0.65336722  0.61797552  0.72371345  1  0  0.770198  0  0.499051  0  0  0.71275  0  0.619162  0  0  0.716469  0  0.615508  0  0.83744  0  0.451754  0.708426  0  0.624409  0
Li  Li3  1  0.84663079  0.38202471  0.22371345  1  0  0.770221  0  0.499027  0  0  0.71277  0  0.619125  0  0  0.716491  0  0.615469  0  0.837441  0  0.451763  0.708447  0  0.624371  0
H  H4  1  0.99007452  0.21414875  0.42274434  1  0  0.042833  0  0.903657  0  0  0.055686  0  0.965799  0  0  0.057216  0  0.963994  0  0.018128  0  0.101212  0.054319  0  0.967342  0
H  H5  1  0.50992621  0.78585357  0.92274209  1  0  0.042852  0  0.903706  0  0  0.055696  0  0.965846  0  0  0.057227  0  0.964038  0  0.018155  0  0.10121  0.05433  0  0.967388  0
H  H6  1  0.00992531  0.78585045  0.57725791  1  0  0.042816  0  0.903695  0  0  0.05566  0  0.965844  0  0  0.057189  0  0.964039  0  0.01816  0  0.101205  0.054294  0  0.967386  0
H  H7  1  0.49007365  0.21414875  0.07725566  1  0  0.042823  0  0.903656  0  0  0.05567  0  0.965805  0  0  0.057198  0  0.964  0  0.018137  0  0.1012  0.054302  0  0.967348  0
H  H8  1  0.16702009  0.10422253  0.48764226  1  0  0.070647  0  0.949283  0  0  0.089448  0  1.019563  0  0  0.090622  0  1.018636  0  0.012387  0  0.08696  0.088434  0  1.020338  0
H  H9  1  0.33298058  0.89577875  0.98764226  1  0  0.070642  0  0.949254  0  0  0.089433  0  1.019538  0  0  0.090604  0  1.018614  0  0.01238  0  0.08696  0.088425  0  1.020308  0
H  H10  1  0.83298112  0.89577771  0.51235848  1  0  0.070656  0  0.949255  0  0  0.089456  0  1.01953  0  0  0.090629  0  1.018604  0  0.012398  0  0.086962  0.088441  0  1.020306  0
H  H11  1  0.66701858  0.10422149  0.01235774  1  0  0.070634  0  0.949276  0  0  0.089426  0  1.019562  0  0  0.090597  0  1.018638  0  0.012373  0  0.086956  0.088417  0  1.020333  0
H  H12  1  0.34983570  0.17418542  0.44592687  1  0  0.083781  0  0.954625  0  0  0.1038  0  1.021477  0  0  0.104315  0  1.022155  0  0.035149  0  0.099749  0.103593  0  1.020744  0
H  H13  1  0.15016463  0.82581482  0.94592687  1  0  0.083773  0  0.954642  0  0  0.103795  0  1.021489  0  0  0.104311  0  1.022167  0  0.035149  0  0.09975  0.103587  0  1.020757  0
H  H14  1  0.65016551  0.82581482  0.55407388  1  0  0.083762  0  0.95469  0  0  0.103787  0  1.021535  0  0  0.104302  0  1.022214  0  0.035164  0  0.099734  0.103579  0  1.020803  0
H  H15  1  0.84983454  0.17418542  0.05407238  1  0  0.083784  0  0.954636  0  0  0.103805  0  1.021482  0  0  0.10432  0  1.022161  0  0.035156  0  0.099746  0.103598  0  1.02075  0
H  H16  1  0.21701176  0.06727133  0.36439991  1  0  0.092658  0  0.977351  0  0  0.112482  0  1.038786  0  0  0.112476  0  1.041595  0  0.062494  0  0.099437  0.112518  0  1.036802  0
H  H17  1  0.28298926  0.93273099  0.86439991  1  0  0.092632  0  0.977377  0  0  0.112454  0  1.038816  0  0  0.112449  0  1.041625  0  0.062459  0  0.099425  0.112489  0  1.036834  0
H  H18  1  0.78298877  0.93272995  0.63560084  1  0  0.092647  0  0.977413  0  0  0.112469  0  1.03885  0  0  0.112464  0  1.041657  0  0.062469  0  0.099436  0.112504  0  1.036867  0
H  H19  1  0.71701196  0.06727237  0.13560009  1  0  0.092674  0  0.977347  0  0  0.112495  0  1.038785  0  0  0.11249  0  1.041593  0  0.062489  0  0.099449  0.112531  0  1.036802  0
H  H20  1  0.18368218  0.33989023  0.53256337  1  0  0.088145  0  0.930786  0  0  0.111362  0  0.990989  0  0  0.112179  0  0.991112  0  0.032322  0  0.096246  0.110711  0  0.99084  0
H  H21  1  0.31631815  0.66011000  0.03256263  1  0  0.088153  0  0.930784  0  0  0.111368  0  0.990981  0  0  0.112184  0  0.991105  0  0.032292  0  0.096247  0.110717  0  0.990832  0
H  H22  1  0.81631801  0.66011000  0.46743812  1  0  0.088129  0  0.930845  0  0  0.111353  0  0.991035  0  0  0.112171  0  0.991157  0  0.032335  0  0.096229  0.110701  0  0.990887  0
H  H23  1  0.68367863  0.33988919  0.96743663  1  0  0.088154  0  0.930774  0  0  0.111339  0  0.991014  0  0  0.112155  0  0.991138  0  0.0325  0  0.096231  0.110688  0  0.990865  0
H  H24  1  0.22446625  0.47212852  0.43884319  1  0  0.09858  0  0.974481  0  0  0.118275  0  1.036699  0  0  0.119038  0  1.037654  0  0.0683  0  0.105907  0.117741  0  1.035902  0
H  H25  1  0.27553442  0.52787276  0.93884170  1  0  0.098592  0  0.974487  0  0  0.118286  0  1.036702  0  0  0.119049  0  1.037658  0  0.068272  0  0.105901  0.117752  0  1.035905  0
H  H26  1  0.77553428  0.52787276  0.56115830  1  0  0.098546  0  0.974533  0  0  0.118265  0  1.03672  0  0  0.119028  0  1.037676  0  0.068303  0  0.1059  0.117731  0  1.035923  0
H  H27  1  0.72446270  0.47212747  0.06115606  1  0  0.098553  0  0.974483  0  0  0.118262  0  1.036688  0  0  0.119023  0  1.037644  0  0.068293  0  0.105898  0.117727  0  1.035891  0
H  H28  1  0.36189171  0.40598127  0.48213939  1  0  0.085761  0  0.95006  0  0  0.106149  0  1.014764  0  0  0.107071  0  1.01452  0  0.041883  0  0.104254  0.105488  0  1.014977  0
H  H29  1  0.13810861  0.59401896  0.98213789  1  0  0.085771  0  0.950064  0  0  0.106171  0  1.014757  0  0  0.107093  0  1.014513  0  0.041896  0  0.104254  0.10551  0  1.014971  0
H  H30  1  0.63810847  0.59401896  0.51786211  1  0  0.085768  0  0.95005  0  0  0.106151  0  1.014761  0  0  0.107072  0  1.014519  0  0.041893  0  0.104257  0.105489  0  1.014974  0
H  H31  1  0.86188886  0.40598231  0.01785912  1  0  0.085764  0  0.950035  0  0  0.106163  0  1.014726  0  0  0.107083  0  1.014483  0  0.04189  0  0.104254  0.105501  0  1.014939  0
H  H32  1  0.17889229  0.18601954  0.17534809  1  0  0.068781  0  0.975943  0  0  0.07705  0  1.049515  0  0  0.08042  0  1.047122  0  0.054117  0  0.102719  0.074805  0  1.051043  0
H  H33  1  0.32110873  0.81398278  0.67534585  1  0  0.068783  0  0.975958  0  0  0.077045  0  1.049541  0  0  0.080415  0  1.047146  0  0.054121  0  0.102714  0.074792  0  1.05108  0
H  H34  1  0.82110961  0.81398278  0.82465266  1  0  0.068808  0  0.975964  0  0  0.077071  0  1.049539  0  0  0.080441  0  1.047144  0  0.054136  0  0.102725  0.074818  0  1.05108  0
H  H35  1  0.67889113  0.18601954  0.32465191  1  0  0.068799  0  0.975971  0  0  0.077058  0  1.049546  0  0  0.080428  0  1.047153  0  0.054106  0  0.102724  0.074803  0  1.051086  0
H  H36  1  0.08268284  0.98405279  0.06502729  1  0  0.081838  0  0.974018  0  0  0.095825  0  1.034156  0  0  0.09788  0  1.034334  0  0.016354  0  0.096109  0.094322  0  1.034115  0
H  H37  1  0.41731783  0.01594849  0.56502505  1  0  0.08184  0  0.973991  0  0  0.09583  0  1.034125  0  0  0.09787  0  1.034318  0  0.016153  0  0.096095  0.094326  0  1.034084  0
H  H38  1  0.91731836  0.01594745  0.93497345  1  0  0.081843  0  0.974004  0  0  0.095816  0  1.034158  0  0  0.097871  0  1.034334  0  0.016182  0  0.096097  0.094313  0  1.034116  0
H  H39  1  0.58268270  0.98405279  0.43497271  1  0  0.081827  0  0.974019  0  0  0.095813  0  1.03416  0  0  0.097868  0  1.034337  0  0.016364  0  0.096105  0.09431  0  1.034118  0
H  H40  1  0.76809725  0.67166207  0.12791445  1  0  0.121328  0  0.96086  0  0  0.14179  0  1.021778  0  0  0.142779  0  1.023246  0  0.066697  0  0.097122  0.141234  0  1.020404  0
H  H41  1  0.73190212  0.32833921  0.62791296  1  0  0.121263  0  0.960928  0  0  0.141738  0  1.021838  0  0  0.14273  0  1.023298  0  0.066708  0  0.097107  0.141182  0  1.020465  0
H  H42  1  0.23190191  0.32833817  0.87208704  1  0  0.121291  0  0.96092  0  0  0.141774  0  1.021806  0  0  0.142762  0  1.023277  0  0.066734  0  0.097114  0.141218  0  1.020433  0
H  H43  1  0.26809672  0.67166311  0.37208629  1  0  0.121343  0  0.960844  0  0  0.141813  0  1.021745  0  0  0.142799  0  1.023222  0  0.066724  0  0.097138  0.141257  0  1.020372  0
H  H44  1  0.91670850  0.73695376  0.04394825  1  0  0.098104  0  0.955628  0  0  0.118984  0  1.020057  0  0  0.120516  0  1.019417  0  0.013377  0  0.088148  0.117746  0  1.020693  0
H  H45  1  0.58329224  0.26304856  0.54394601  1  0  0.098078  0  0.95563  0  0  0.118932  0  1.020098  0  0  0.120461  0  1.019461  0  0.013422  0  0.088134  0.117695  0  1.020733  0
H  H46  1  0.08329168  0.26304648  0.95605399  1  0  0.098114  0  0.955594  0  0  0.118961  0  1.020066  0  0  0.120492  0  1.019427  0  0.013442  0  0.088136  0.117725  0  1.0207  0
H  H47  1  0.41670864  0.73695376  0.45605175  1  0  0.098091  0  0.955627  0  0  0.118969  0  1.020062  0  0  0.120501  0  1.01942  0  0.013374  0  0.088146  0.117732  0  1.020697  0
H  H48  1  0.76095604  0.78768541  0.03116877  1  0  0.101567  0  0.941711  0  0  0.124846  0  1.002736  0  0  0.125922  0  1.002363  0  0.027944  0  0.08933  0.124514  0  1.002647  0
H  H49  1  0.73904606  0.21231795  0.53116653  1  0  0.101595  0  0.94167  0  0  0.124853  0  1.002718  0  0  0.125928  0  1.002345  0  0.027892  0  0.089339  0.12452  0  1.002628  0
H  H50  1  0.23904551  0.21231586  0.96883347  1  0  0.101635  0  0.941672  0  0  0.124894  0  1.002708  0  0  0.12597  0  1.002334  0  0.027875  0  0.08935  0.124562  0  1.002618  0
H  H51  1  0.26095653  0.78768645  0.46883123  1  0  0.101538  0  0.941736  0  0  0.124817  0  1.002765  0  0  0.125893  0  1.00239  0  0.027943  0  0.089319  0.124485  0  1.002675  0
H  H52  1  0.72602239  0.81334787  0.26430120  1  0  0.097237  0  0.968725  0  0  0.109288  0  1.028036  0  0  0.111434  0  1.028312  0  0.087169  0  0.09865  0.107516  0  1.028084  0
H  H53  1  0.77398002  0.18665028  0.76429747  1  0  0.097186  0  0.968888  0  0  0.109245  0  1.028184  0  0  0.111395  0  1.028464  0  0.087102  0  0.098626  0.107476  0  1.028226  0
H  H54  1  0.27398016  0.18665028  0.73570253  1  0  0.097186  0  0.968884  0  0  0.109245  0  1.028177  0  0  0.111395  0  1.028457  0  0.087465  0  0.098624  0.107475  0  1.02822  0
H  H55  1  0.22602218  0.81334683  0.23569880  1  0  0.097223  0  0.968727  0  0  0.109279  0  1.028032  0  0  0.111426  0  1.028308  0  0.087166  0  0.098638  0.107508  0  1.028079  0
H  H56  1  0.82352058  0.01593704  0.37665296  1  0  0.074984  0  0.98591  0  0  0.086095  0  1.052651  0  0  0.088815  0  1.050989  0  0.04504  0  0.0935  0.084149  0  1.053853  0
H  H57  1  0.67648081  0.98406112  0.87664847  1  0  0.075023  0  0.985852  0  0  0.086106  0  1.052621  0  0  0.088817  0  1.050967  0  0.045068  0  0.093505  0.084162  0  1.053822  0
H  H58  1  0.17648197  0.98406112  0.62335078  1  0  0.075017  0  0.985859  0  0  0.086104  0  1.052626  0  0  0.088815  0  1.050973  0  0.045048  0  0.093499  0.084163  0  1.053825  0
H  H59  1  0.32352174  0.01593704  0.12334854  1  0  0.075003  0  0.98589  0  0  0.086105  0  1.052637  0  0  0.088825  0  1.050975  0  0.045078  0  0.0935  0.084159  0  1.05384  0
H  H60  1  0.13530336  0.39461656  0.15807672  1  0  0.09387  0  1.004947  0  0  0.107196  0  1.065339  0  0  0.10977  0  1.064508  0  0.041745  0  0.096398  0.104688  0  1.06765  0
H  H61  1  0.36469629  0.60538472  0.65807672  1  0  0.093914  0  1.00493  0  0  0.107208  0  1.06536  0  0  0.109781  0  1.064527  0  0.041755  0  0.096404  0.104698  0  1.067671  0
H  H62  1  0.86469715  0.60538160  0.84192328  1  0  0.093939  0  1.005003  0  0  0.107238  0  1.06542  0  0  0.109812  0  1.064588  0  0.041728  0  0.096425  0.104728  0  1.067731  0
H  H63  1  0.63530185  0.39461552  0.34192403  1  0  0.093879  0  1.004932  0  0  0.107204  0  1.065326  0  0  0.109778  0  1.064494  0  0.041745  0  0.096398  0.104696  0  1.067637  0
H  H64  1  0.06492158  0.62842744  0.14683317  1  0  0.09092  0  0.993272  0  0  0.106129  0  1.04859  0  0  0.108278  0  1.048465  0  0.038273  0  0.091425  0.104462  0  1.048804  0
H  H65  1  0.43507635  0.37157176  0.64683317  1  0  0.090926  0  0.993247  0  0  0.106142  0  1.048547  0  0  0.108287  0  1.048436  0  0.03828  0  0.091427  0.104473  0  1.048764  0
H  H66  1  0.93507656  0.37157280  0.85316758  1  0  0.090929  0  0.993299  0  0  0.106156  0  1.048586  0  0  0.108303  0  1.048469  0  0.038234  0  0.091435  0.104488  0  1.048802  0
H  H67  1  0.56492179  0.62842848  0.35316608  1  0  0.09093  0  0.993228  0  0  0.106143  0  1.048538  0  0  0.108288  0  1.048424  0  0.038286  0  0.09143  0.104475  0  1.048753  0
H  H68  1  0.92898862  0.65501103  0.31625065  1  0  0.099753  0  0.989639  0  0  0.110901  0  1.050316  0  0  0.113334  0  1.050102  0  0.032388  0  0.090876  0.110014  0  1.048979  0
H  H69  1  0.57100904  0.34498817  0.81625065  1  0  0.099765  0  0.989627  0  0  0.110913  0  1.050303  0  0  0.113348  0  1.050085  0  0.032408  0  0.09089  0.110026  0  1.048966  0
H  H70  1  0.07100985  0.34498713  0.68375009  1  0  0.099717  0  0.98967  0  0  0.110921  0  1.050294  0  0  0.113358  0  1.050074  0  0.032372  0  0.090898  0.110034  0  1.048957  0
H  H71  1  0.42898876  0.65501103  0.18374860  1  0  0.099751  0  0.989654  0  0  0.1109  0  1.050329  0  0  0.113334  0  1.050114  0  0.03239  0  0.090872  0.110013  0  1.048992  0
H  H72  1  0.91966150  0.43648667  0.43640769  1  0  0.107165  0  0.989605  0  0  0.120213  0  1.049448  0  0  0.122491  0  1.049528  0  0.069626  0  0.092535  0.118612  0  1.049081  0
H  H73  1  0.58033718  0.56351253  0.93640769  1  0  0.10711  0  0.989665  0  0  0.120188  0  1.049466  0  0  0.122461  0  1.049553  0  0.069741  0  0.092528  0.118588  0  1.049099  0
H  H74  1  0.08033630  0.56351253  0.56359306  1  0  0.107118  0  0.989669  0  0  0.120202  0  1.049465  0  0  0.122468  0  1.04956  0  0.06973  0  0.092523  0.1186  0  1.0491  0
H  H75  1  0.41966028  0.43648563  0.06359157  1  0  0.107155  0  0.989588  0  0  0.120192  0  1.049456  0  0  0.122465  0  1.049541  0  0.069615  0  0.092509  0.118591  0  1.049089  0
C  C76  1  0.05637518  0.24241846  0.35384207  1  0  0.077777  0  3.662741  0  0  0.059419  0  3.883032  0  0  0.063146  0  3.896539  0  0.279253  0  0.01469  0.056973  0  3.873697  0
C  C77  1  0.44362481  0.75758385  0.85384057  1  0  0.077812  0  3.662726  0  0  0.059453  0  3.882961  0  0  0.063182  0  3.896469  0  0.279268  0  0.01471  0.057006  0  3.873627  0
C  C78  1  0.94362500  0.75758177  0.64616017  1  0  0.077897  0  3.662612  0  0  0.059524  0  3.882873  0  0  0.063252  0  3.896382  0  0.279285  0  0.014698  0.057076  0  3.873538  0
C  C79  1  0.55637266  0.24241742  0.14615868  1  0  0.07781  0  3.662641  0  0  0.059453  0  3.882917  0  0  0.063181  0  3.896426  0  0.279265  0  0.014679  0.057006  0  3.873585  0
C  C80  1  0.23691238  0.14717093  0.42252673  1  0  -0.171792  0  3.706088  0  0  -0.265644  0  3.962084  0  0  -0.263856  0  3.971836  0  0.239149  0  -0.149616  -0.266491  0  3.955035  0
C  C81  1  0.26308727  0.85283035  0.92252673  1  0  -0.171752  0  3.706063  0  0  -0.265614  0  3.962069  0  0  -0.263826  0  3.971819  0  0.239163  0  -0.149613  -0.266467  0  3.95502  0
C  C82  1  0.76308780  0.85282931  0.57747401  1  0  -0.171804  0  3.706172  0  0  -0.265677  0  3.962179  0  0  -0.263887  0  3.971926  0  0.239154  0  -0.149623  -0.266523  0  3.955132  0
C  C83  1  0.73691224  0.14717093  0.07747252  1  0  -0.171811  0  3.706029  0  0  -0.265654  0  3.962034  0  0  -0.263866  0  3.971788  0  0.239169  0  -0.149625  -0.266504  0  3.954982  0
C  C84  1  0.24696361  0.37858480  0.46399162  1  0  -0.182405  0  3.68692  0  0  -0.274535  0  3.938606  0  0  -0.27253  0  3.947511  0  0.205874  0  -0.147344  -0.27539  0  3.931892  0
C  C85  1  0.25303671  0.62141543  0.96399088  1  0  -0.182407  0  3.686947  0  0  -0.274557  0  3.938609  0  0  -0.272552  0  3.947516  0  0.205854  0  -0.147331  -0.275412  0  3.931895  0
C  C86  1  0.75303657  0.62141543  0.53600838  1  0  -0.182354  0  3.686961  0  0  -0.274509  0  3.938618  0  0  -0.272504  0  3.947525  0  0.205775  0  -0.147322  -0.275364  0  3.931904  0
C  C87  1  0.74696041  0.37858480  0.03600763  1  0  -0.182404  0  3.686914  0  0  -0.274525  0  3.938576  0  0  -0.272517  0  3.947482  0  0.205682  0  -0.147342  -0.27538  0  3.931862  0
C  C88  1  0.00640587  0.11788537  0.28430120  1  0  0.040466  0  3.742043  0  0  0.056645  0  3.97626  0  0  0.056274  0  4.000042  0  -0.03957  0  -0.006974  0.056728  0  3.959948  0
C  C89  1  0.49359514  0.88211694  0.78429821  1  0  0.040481  0  3.742074  0  0  0.056656  0  3.976291  0  0  0.056286  0  4.000066  0  -0.039529  0  -0.0069  0.056743  0  3.959981  0
C  C90  1  0.99359568  0.88211590  0.71570029  1  0  0.04042  0  3.742068  0  0  0.056619  0  3.97626  0  0  0.056249  0  4.000035  0  -0.039526  0  -0.006933  0.056706  0  3.95995  0
C  C91  1  0.50640504  0.11788329  0.21569880  1  0  0.040496  0  3.742008  0  0  0.056669  0  3.976221  0  0  0.056299  0  4.000003  0  -0.039538  0  -0.00693  0.056755  0  3.959908  0
C  C92  1  0.07828756  0.10601898  0.19586181  1  0  -0.09992  0  3.760641  0  0  -0.12057  0  4.013949  0  0  -0.122166  0  4.034577  0  -0.124212  0  -0.086055  -0.120418  0  4.000804  0
C  C93  1  0.42171107  0.89398229  0.69585957  1  0  -0.100014  0  3.760605  0  0  -0.120649  0  4.013897  0  0  -0.122252  0  4.034544  0  -0.124541  0  -0.086115  -0.120479  0  4.000728  0
C  C94  1  0.92171195  0.89398229  0.80413968  1  0  -0.100062  0  3.760643  0  0  -0.1207  0  4.013911  0  0  -0.122305  0  4.034565  0  -0.124532  0  -0.086126  -0.120533  0  4.000748  0
C  C95  1  0.57828774  0.10601690  0.30413894  1  0  -0.099992  0  3.760784  0  0  -0.120622  0  4.014078  0  0  -0.122219  0  4.034707  0  -0.124496  0  -0.086077  -0.120459  0  4.000929  0
C  C96  1  0.02432275  0.99105231  0.13321244  1  0  -0.142465  0  3.760736  0  0  -0.159614  0  4.001199  0  0  -0.163391  0  4.024316  0  -0.027996  0  -0.098122  -0.156521  0  3.986123  0
C  C97  1  0.47567826  0.00895001  0.63321170  1  0  -0.142377  0  3.760688  0  0  -0.159554  0  4.001134  0  0  -0.163324  0  4.024261  0  -0.027593  0  -0.098053  -0.15646  0  3.986061  0
C  C98  1  0.97567914  0.00895001  0.86678756  1  0  -0.142348  0  3.760684  0  0  -0.159467  0  4.00116  0  0  -0.163246  0  4.024278  0  -0.027578  0  -0.098035  -0.156373  0  3.986086  0
C  C99  1  0.52432296  0.99105335  0.36678756  1  0  -0.142435  0  3.760829  0  0  -0.159586  0  4.001288  0  0  -0.163363  0  4.024404  0  -0.027718  0  -0.098106  -0.156492  0  3.986212  0
C  C100  1  0.89613473  0.88439322  0.15563598  1  0  0.13814  0  3.761237  0  0  0.168528  0  3.987919  0  0  0.169025  0  4.01282  0  0.00028  0  -0.010394  0.167298  0  3.970465  0
C  C101  1  0.60386598  0.11560598  0.65563224  1  0  0.138057  0  3.761442  0  0  0.168532  0  3.988018  0  0  0.169031  0  4.012914  0  0.000255  0  -0.010416  0.1673  0  3.970569  0
C  C102  1  0.10386782  0.11560494  0.84436626  1  0  0.138096  0  3.761394  0  0  0.168446  0  3.98813  0  0  0.168944  0  4.013029  0  0.000323  0  -0.010427  0.167215  0  3.970679  0
C  C103  1  0.39613351  0.88439218  0.34436476  1  0  0.138164  0  3.761322  0  0  0.168548  0  3.988012  0  0  0.169047  0  4.012912  0  0.000271  0  -0.010417  0.167317  0  3.970561  0
C  C104  1  0.83312961  0.76351341  0.08622149  1  0  -0.331698  0  3.722263  0  0  -0.41337  0  3.957041  0  0  -0.415434  0  3.966868  0  -0.076379  0  -0.235868  -0.411167  0  3.949322  0
C  C105  1  0.66687078  0.23648787  0.58621925  1  0  -0.331572  0  3.722371  0  0  -0.413242  0  3.957125  0  0  -0.415303  0  3.966956  0  -0.076446  0  -0.235814  -0.411039  0  3.949405  0
C  C106  1  0.16687159  0.23648683  0.91378075  1  0  -0.331721  0  3.722296  0  0  -0.413351  0  3.957076  0  0  -0.415415  0  3.966903  0  -0.076485  0  -0.235852  -0.411149  0  3.949357  0
C  C107  1  0.33313010  0.76351445  0.41377926  1  0  -0.331641  0  3.72232  0  0  -0.413312  0  3.9571  0  0  -0.415377  0  3.966924  0  -0.076398  0  -0.235838  -0.41111  0  3.949382  0
C  C108  1  0.82545782  0.89536242  0.24472594  1  0  -0.123944  0  3.742369  0  0  -0.140244  0  3.979879  0  0  -0.142655  0  4.0009  0  -0.060565  0  -0.094669  -0.13777  0  3.964469  0
C  C109  1  0.67454426  0.10463781  0.74472220  1  0  -0.123957  0  3.742506  0  0  -0.140294  0  3.979991  0  0  -0.142709  0  4.001012  0  -0.060445  0  -0.094716  -0.137821  0  3.964585  0
C  C110  1  0.17454609  0.10463677  0.75527705  1  0  -0.123943  0  3.742557  0  0  -0.140245  0  3.980093  0  0  -0.14266  0  4.001111  0  -0.060845  0  -0.09468  -0.137771  0  3.964685  0
C  C111  1  0.32545796  0.89536242  0.25527481  1  0  -0.124004  0  3.74247  0  0  -0.140308  0  3.979985  0  0  -0.14272  0  4.001004  0  -0.060537  0  -0.094698  -0.137834  0  3.964575  0
C  C112  1  0.88045218  0.00965569  0.30771330  1  0  -0.124648  0  3.795696  0  0  -0.147654  0  4.050463  0  0  -0.150016  0  4.071701  0  -0.00855  0  -0.095711  -0.145363  0  4.035459  0
C  C113  1  0.61954991  0.99034455  0.80770882  1  0  -0.124637  0  3.795679  0  0  -0.147621  0  4.050451  0  0  -0.149973  0  4.071691  0  -0.00856  0  -0.095724  -0.145337  0  4.035449  0
C  C114  1  0.11955005  0.99034455  0.69229044  1  0  -0.124609  0  3.795663  0  0  -0.147596  0  4.050423  0  0  -0.149947  0  4.071661  0  -0.008567  0  -0.095696  -0.145314  0  4.035417  0
C  C115  1  0.38045128  0.00965257  0.19228819  1  0  -0.124637  0  3.795735  0  0  -0.147635  0  4.050499  0  0  -0.149996  0  4.071736  0  -0.008637  0  -0.095694  -0.145345  0  4.035495  0
C  C116  1  0.03282691  0.37054343  0.31064683  1  0  -0.116012  0  3.969393  0  0  -0.094536  0  4.204211  0  0  -0.096747  0  4.230408  0  -0.193697  0  -0.09781  -0.092187  0  4.185563  0
C  C117  1  0.46717411  0.62945889  0.81064608  1  0  -0.116045  0  3.969327  0  0  -0.094562  0  4.204153  0  0  -0.096772  0  4.230346  0  -0.193821  0  -0.097802  -0.092213  0  4.185507  0
C  C118  1  0.96717395  0.62945577  0.68935392  1  0  -0.116015  0  3.969302  0  0  -0.094519  0  4.204098  0  0  -0.096727  0  4.23029  0  -0.194052  0  -0.097782  -0.09217  0  4.185452  0
C  C119  1  0.53282575  0.37054343  0.18935317  1  0  -0.116022  0  3.969534  0  0  -0.094534  0  4.204335  0  0  -0.096742  0  4.23053  0  -0.193728  0  -0.097804  -0.092184  0  4.185688  0
C  C120  1  0.08164734  0.43409070  0.21651686  1  0  -0.30662  0  3.951589  0  0  -0.316183  0  4.194749  0  0  -0.319739  0  4.216727  0  -0.197641  0  -0.182683  -0.314988  0  4.182706  0
C  C121  1  0.41835095  0.56590953  0.71651686  1  0  -0.306588  0  3.95153  0  0  -0.316126  0  4.194689  0  0  -0.319677  0  4.216664  0  -0.19768  0  -0.182672  -0.314931  0  4.182649  0
C  C122  1  0.91835081  0.56590953  0.78348538  1  0  -0.306632  0  3.951548  0  0  -0.316177  0  4.194709  0  0  -0.31973  0  4.216686  0  -0.19727  0  -0.182669  -0.314981  0  4.182669  0
C  C123  1  0.58164720  0.43409070  0.28348239  1  0  -0.306639  0  3.951659  0  0  -0.316206  0  4.19482  0  0  -0.319761  0  4.216797  0  -0.197619  0  -0.182691  -0.315011  0  4.182778  0
C  C124  1  0.04443359  0.55782757  0.21026023  1  0  -0.223194  0  3.963975  0  0  -0.226878  0  4.204387  0  0  -0.230277  0  4.227637  0  -0.204148  0  -0.183858  -0.224699  0  4.189334  0
C  C125  1  0.45556571  0.44217267  0.71026023  1  0  -0.223266  0  3.963915  0  0  -0.226944  0  4.204331  0  0  -0.230348  0  4.22758  0  -0.204144  0  -0.183881  -0.224766  0  4.189278  0
C  C126  1  0.95556759  0.44216955  0.78974127  1  0  -0.223319  0  3.963938  0  0  -0.227019  0  4.204376  0  0  -0.230423  0  4.227634  0  -0.204109  0  -0.183945  -0.224841  0  4.189324  0
C  C127  1  0.54443243  0.55782757  0.28973977  1  0  -0.223197  0  3.963906  0  0  -0.226877  0  4.204327  0  0  -0.230277  0  4.227574  0  -0.20413  0  -0.183859  -0.224699  0  4.189275  0
C  C128  1  0.97268986  0.57166735  0.29966201  1  0  -0.224153  0  3.957202  0  0  -0.230956  0  4.201032  0  0  -0.234237  0  4.224185  0  -0.154511  0  -0.186277  -0.22873  0  4.185221  0
C  C129  1  0.52730916  0.42833288  0.79966201  1  0  -0.224162  0  3.957155  0  0  -0.230974  0  4.201003  0  0  -0.234254  0  4.224154  0  -0.154511  0  -0.186302  -0.228747  0  4.185193  0
C  C130  1  0.02731167  0.42833080  0.70033949  1  0  -0.224074  0  3.957065  0  0  -0.230934  0  4.200913  0  0  -0.234216  0  4.224063  0  -0.154581  0  -0.186289  -0.228708  0  4.185102  0
C  C131  1  0.47268898  0.57166735  0.20033725  1  0  -0.224163  0  3.957196  0  0  -0.230965  0  4.20102  0  0  -0.234246  0  4.224172  0  -0.154541  0  -0.186261  -0.228739  0  4.185209  0
C  C132  1  0.96553723  0.45634864  0.36168100  1  0  -0.299148  0  3.937544  0  0  -0.309966  0  4.183945  0  0  -0.314354  0  4.206604  0  -0.203488  0  -0.187988  -0.30606  0  4.168001  0
C  C133  1  0.53446043  0.54365055  0.86168100  1  0  -0.299079  0  3.937505  0  0  -0.30992  0  4.183895  0  0  -0.314302  0  4.206557  0  -0.203488  0  -0.187982  -0.306014  0  4.167951  0
C  C134  1  0.03446158  0.54365055  0.63831975  1  0  -0.299081  0  3.93754  0  0  -0.309937  0  4.18395  0  0  -0.314315  0  4.206617  0  -0.203563  0  -0.187967  -0.306031  0  4.168008  0
C  C135  1  0.46553668  0.45634656  0.13831975  1  0  -0.299131  0  3.937607  0  0  -0.309946  0  4.184015  0  0  -0.31433  0  4.206677  0  -0.203474  0  -0.187978  -0.30604  0  4.16807  0
N  N136  1  0.21103068  0.27281562  0.38425858  1  0  -0.27856  0  3.281903  0  0  -0.192746  0  3.534192  0  0  -0.204098  0  3.550607  0  -1.034624  0  -0.433658  -0.184543  0  3.522442  0
N  N137  1  0.28896897  0.72718566  0.88425783  1  0  -0.278587  0  3.281899  0  0  -0.192724  0  3.534163  0  0  -0.204076  0  3.550577  0  -1.034522  0  -0.433662  -0.184523  0  3.522416  0
N  N138  1  0.78896950  0.72718462  0.61574291  1  0  -0.278577  0  3.281813  0  0  -0.192735  0  3.534112  0  0  -0.204088  0  3.550529  0  -1.034548  0  -0.433658  -0.184533  0  3.522363  0
N  N139  1  0.71102987  0.27281666  0.11574142  1  0  -0.278537  0  3.281803  0  0  -0.19271  0  3.534067  0  0  -0.204063  0  3.550483  0  -1.034592  0  -0.433633  -0.184509  0  3.52232  0
