# generated using pymatgen
data_NiH8C14(NO)4
_symmetry_space_group_name_H-M   'P 1'
_cell_length_a   5.34653154
_cell_length_b   26.35232275
_cell_length_c   26.36235053
_cell_angle_alpha   120.02000846
_cell_angle_beta   90.00002277
_cell_angle_gamma   89.99992505
_symmetry_Int_Tables_number   1
_chemical_formula_structural   NiH8C14(NO)4
_chemical_formula_sum   'Ni3 H24 C42 N12 O12'
_cell_volume   3216.01598750
_cell_formula_units_Z   3
loop_
 _symmetry_equiv_pos_site_id
 _symmetry_equiv_pos_as_xyz
  1  'x, y, z'
loop_
 _atom_site_type_symbol
 _atom_site_label
 _atom_site_symmetry_multiplicity
 _atom_site_fract_x
 _atom_site_fract_y
 _atom_site_fract_z
 _atom_site_occupancy
 _atom_site_pbe_bader_charge
 _atom_site_pbe_bader_spin_density
 _atom_site_pbe_cm5_charge
 _atom_site_pbe_ddec_charge
 _atom_site_pbe_ddec_spin_density
 _atom_site_pbe_ddec_sum_bond_order
 _atom_site_pbe_magmom
Ni  Ni0  1  0.50000093  0.99999957  0.50000001  1  1.208728  1.563403  0.65823  0.732916  1.788906  2.631878  1.549
Ni  Ni1  1  0.49999757  0.50000064  0.00000088  1  1.207995  1.563254  0.658847  0.733088  1.788769  2.632856  1.548
Ni  Ni2  1  0.50000229  0.49999975  0.49999908  1  1.201529  1.563141  0.658787  0.733639  1.788838  2.632178  1.549
H  H3  1  0.49999224  0.90797931  0.53232737  1  0.131096  0.001832  0.131243  0.112427  0.000575  0.964639  0.001
H  H4  1  0.49999133  0.62432859  0.09198804  1  0.133712  0.001831  0.131399  0.112526  0.000573  0.964625  0.001
H  H5  1  0.49997607  0.46753807  0.37566812  1  0.127731  0.001835  0.130623  0.11138  0.000575  0.964706  0.001
H  H6  1  0.49999176  0.09202007  0.46767241  1  0.13109  0.001832  0.131239  0.112428  0.000575  0.964644  0.001
H  H7  1  0.49999080  0.37567215  0.90801266  1  0.133705  0.001831  0.13141  0.11255  0.000573  0.964572  0.001
H  H8  1  0.49997801  0.53246197  0.62433101  1  0.127733  0.001835  0.13062  0.111378  0.000575  0.964681  0.001
H  H9  1  0.49999394  0.09202753  0.62436229  1  0.134919  0.001831  0.131166  0.112309  0.000574  0.96466  0.001
H  H10  1  0.49997497  0.37567101  0.46765765  1  0.131058  0.001831  0.131339  0.112351  0.000574  0.964683  0.001
H  H11  1  0.49998979  0.53246102  0.90813462  1  0.129162  0.001835  0.130565  0.111286  0.000576  0.964777  0.001
H  H12  1  0.49999193  0.90797245  0.37563765  1  0.134932  0.001831  0.131196  0.112371  0.000574  0.964624  0.001
H  H13  1  0.49997536  0.62432881  0.53234169  1  0.131084  0.001832  0.131355  0.112402  0.000574  0.96466  0.001
H  H14  1  0.49998860  0.46753949  0.09186630  1  0.129214  0.001835  0.130544  0.111271  0.000576  0.96474  0.001
H  H15  1  0.50000781  0.79733217  0.48048846  1  0.11188  0.000995  0.112814  0.118925  0.000519  1.004167  0.0
H  H16  1  0.50000614  0.68308636  0.20262681  1  0.10558  0.001005  0.112842  0.11929  0.00052  1.004649  0.0
H  H17  1  0.50001490  0.51935750  0.31684671  1  0.153679  0.000957  0.113019  0.119846  0.00052  1.004061  0.0
H  H18  1  0.50000611  0.20266683  0.51951094  1  0.111884  0.000995  0.11282  0.118931  0.000519  1.004178  0.0
H  H19  1  0.50000592  0.31691453  0.79737449  1  0.105621  0.001005  0.112871  0.119337  0.00052  1.004615  0.0
H  H20  1  0.50001212  0.48064270  0.68315302  1  0.153688  0.000956  0.113018  0.119872  0.00052  1.00403  0.0
H  H21  1  0.50000269  0.20267814  0.68315897  1  0.104106  0.001004  0.112774  0.118845  0.00052  1.004253  0.0
H  H22  1  0.50001473  0.31690964  0.51953819  1  0.112814  0.000992  0.112884  0.119254  0.00052  1.004601  0.0
H  H23  1  0.50000487  0.48065444  0.79750183  1  0.114412  0.000995  0.113102  0.119971  0.00052  1.004  0.0
H  H24  1  0.50000562  0.79732146  0.31684059  1  0.104093  0.001004  0.112748  0.118846  0.00052  1.004243  0.0
H  H25  1  0.50001603  0.68309018  0.48046116  1  0.112817  0.000992  0.112872  0.119258  0.00052  1.004605  0.0
H  H26  1  0.50000532  0.51934667  0.20249925  1  0.11472  0.000994  0.11309  0.119966  0.00052  1.004003  0.0
C  C27  1  0.50000957  0.78892402  0.39446088  1  0.134851  -0.009548  0.006574  0.034694  -0.010373  3.971722  -0.006
C  C28  1  0.50000291  0.60541021  0.21094825  1  0.055034  -0.009716  0.008214  0.037004  -0.010392  3.971822  -0.006
C  C29  1  0.50000701  0.60541416  0.39446184  1  -0.20857  -0.009706  0.008151  0.037087  -0.010387  3.97101  -0.006
C  C30  1  0.50000810  0.21107558  0.60553869  1  0.134844  -0.009548  0.006581  0.03464  -0.010373  3.971731  -0.006
C  C31  1  0.49999979  0.39459052  0.78905245  1  0.054946  -0.009717  0.008157  0.036897  -0.010393  3.971759  -0.006
C  C32  1  0.50000879  0.39458544  0.60553772  1  -0.208565  -0.009706  0.008097  0.036913  -0.010387  3.970968  -0.006
C  C33  1  0.50001367  0.72407909  0.36204069  1  1.044779  -0.002177  0.260764  0.381947  -0.002489  4.013832  0.0
C  C34  1  0.50000844  0.63779537  0.27577272  1  1.133961  -0.00203  0.259297  0.380476  -0.002493  4.013487  0.0
C  C35  1  0.50001422  0.63779879  0.36202156  1  1.132466  -0.002024  0.259293  0.380076  -0.002493  4.013102  0.0
C  C36  1  0.50001148  0.27592067  0.63795947  1  1.044791  -0.002177  0.260744  0.381992  -0.002489  4.013769  0.0
C  C37  1  0.50000736  0.36220498  0.72422760  1  1.133975  -0.00203  0.259299  0.380515  -0.002494  4.013438  0.0
C  C38  1  0.50001280  0.36220141  0.63797817  1  1.132455  -0.002024  0.259277  0.380143  -0.002493  4.013071  0.0
C  C39  1  0.00000020  0.99999989  0.52963212  1  1.578949  -0.002772  0.193602  0.450942  -0.003231  4.221203  -0.004
C  C40  1  0.99999817  0.52964948  0.00002102  1  1.558651  -0.002772  0.193583  0.450798  -0.003233  4.221378  -0.004
C  C41  1  0.00000537  0.47035245  0.47036759  1  1.602519  -0.002771  0.193591  0.450893  -0.003236  4.221181  -0.004
C  C42  1  0.00000009  0.99999805  0.47036757  1  1.559975  -0.002764  0.193502  0.450827  -0.00323  4.22137  -0.004
C  C43  1  0.99999864  0.47035037  0.99998056  1  1.57718  -0.002752  0.193668  0.450777  -0.003233  4.22132  -0.004
C  C44  1  0.00000510  0.52964756  0.52962932  1  1.536197  -0.002832  0.193634  0.450876  -0.003236  4.221152  -0.004
C  C45  1  0.49999980  0.88127233  0.48468382  1  0.519406  -0.006719  0.055968  0.097085  -0.007177  3.919276  -0.004
C  C46  1  0.49999339  0.60337233  0.11866998  1  0.520271  -0.006694  0.055649  0.096905  -0.007197  3.91971  -0.004
C  C47  1  0.49998702  0.51519425  0.39658399  1  0.522648  -0.006717  0.056683  0.098981  -0.007184  3.919465  -0.004
C  C48  1  0.49999917  0.11872705  0.51531597  1  0.519589  -0.006718  0.055977  0.097042  -0.007177  3.919273  -0.004
C  C49  1  0.49999435  0.39662840  0.88133073  1  0.520223  -0.006695  0.055672  0.09693  -0.007197  3.919494  -0.004
C  C50  1  0.49998763  0.48480557  0.60341536  1  0.522653  -0.006717  0.056733  0.099077  -0.007183  3.919358  -0.004
C  C51  1  0.49999560  0.11872877  0.60342343  1  0.596519  -0.006733  0.055837  0.097025  -0.00718  3.919129  -0.004
C  C52  1  0.49998615  0.39662429  0.51529944  1  0.524383  -0.006717  0.055887  0.097409  -0.007187  3.91977  -0.004
C  C53  1  0.49999191  0.48480452  0.88139676  1  0.513237  -0.006727  0.056653  0.098895  -0.007188  3.91962  -0.004
C  C54  1  0.49999402  0.88127060  0.39657635  1  0.596531  -0.006732  0.055795  0.096973  -0.007179  3.919172  -0.004
C  C55  1  0.49998663  0.60337575  0.48469969  1  0.52441  -0.006717  0.055857  0.097334  -0.007186  3.919818  -0.004
C  C56  1  0.49999209  0.51519660  0.11860433  1  0.513314  -0.006726  0.056659  0.098895  -0.007188  3.919514  -0.004
C  C57  1  0.50000575  0.82041186  0.45590432  1  -0.091832  0.005239  -0.074243  -0.146354  0.002848  3.939987  0.004
C  C58  1  0.50000079  0.63540223  0.17950586  1  -0.078346  0.005227  -0.074628  -0.147298  0.002846  3.941413  0.004
C  C59  1  0.49999800  0.54394756  0.36451626  1  -0.002043  0.005269  -0.075334  -0.149029  0.002848  3.941359  0.004
C  C60  1  0.50000444  0.17958736  0.54409486  1  -0.091827  0.005239  -0.074263  -0.146348  0.002848  3.939953  0.004
C  C61  1  0.50000005  0.36459889  0.82049522  1  -0.078333  0.005227  -0.07469  -0.147379  0.002846  3.941374  0.004
C  C62  1  0.50000097  0.45605263  0.63548347  1  -0.002019  0.005269  -0.075402  -0.149149  0.002848  3.94129  0.004
C  C63  1  0.50000275  0.17959221  0.63549091  1  -0.146694  0.005284  -0.074181  -0.146244  0.002847  3.939948  0.004
C  C64  1  0.50000325  0.36459443  0.54409545  1  0.040969  0.005228  -0.074681  -0.147231  0.002845  3.941268  0.004
C  C65  1  0.49999759  0.45605773  0.82056912  1  -0.093727  0.005242  -0.075354  -0.149105  0.00285  3.94169  0.004
C  C66  1  0.50000183  0.82040799  0.36450882  1  -0.146723  0.005284  -0.074184  -0.14628  0.002847  3.939916  0.004
C  C67  1  0.50000133  0.63540577  0.45590428  1  0.040947  0.005228  -0.074681  -0.1473  0.002846  3.941426  0.004
C  C68  1  0.49999951  0.54394317  0.17943218  1  -0.094164  0.005242  -0.07539  -0.1492  0.00285  3.941746  0.004
N  N69  1  0.49999581  0.91111997  0.45555876  1  -1.256104  0.067076  -0.322677  -0.205681  0.039576  3.590539  0.061
N  N70  1  0.49999184  0.54436614  0.08880474  1  -1.25756  0.067096  -0.322844  -0.205595  0.039587  3.591897  0.061
N  N71  1  0.49998134  0.54437195  0.45556148  1  -1.259654  0.067185  -0.323042  -0.206346  0.039586  3.591809  0.061
N  N72  1  0.49999380  0.08887903  0.54444064  1  -1.256315  0.067074  -0.322713  -0.205646  0.039574  3.590497  0.061
N  N73  1  0.49999216  0.45563476  0.91119657  1  -1.257576  0.06709  -0.322875  -0.20568  0.039583  3.591859  0.061
N  N74  1  0.49998209  0.45562825  0.54443825  1  -1.259691  0.067181  -0.32304  -0.206362  0.039583  3.591776  0.061
N  N75  1  0.50001577  0.69668829  0.39349721  1  -1.1933  -0.007832  -0.303724  -0.403643  -0.007986  3.202845  -0.006
N  N76  1  0.50000812  0.69668050  0.30318647  1  -1.202259  -0.007826  -0.303801  -0.403937  -0.007987  3.202932  -0.006
N  N77  1  0.50001618  0.60632011  0.30315471  1  -1.200433  -0.007834  -0.302937  -0.403732  -0.007985  3.202116  -0.006
N  N78  1  0.50001499  0.30331169  0.60650273  1  -1.193276  -0.007833  -0.303703  -0.403658  -0.007987  3.202804  -0.006
N  N79  1  0.50000768  0.30331986  0.69681385  1  -1.202247  -0.007826  -0.303744  -0.403875  -0.007987  3.202903  -0.006
N  N80  1  0.50001458  0.39368008  0.69684501  1  -1.200424  -0.007835  -0.302955  -0.403806  -0.007985  3.20203  -0.006
O  O81  1  0.21049269  0.00000113  0.55179480  1  -1.126186  0.085404  -0.307308  -0.49402  0.048274  2.325633  0.078
O  O82  1  0.21048992  0.55182683  0.00003571  1  -1.125663  0.085448  -0.307332  -0.494014  0.048307  2.325594  0.078
O  O83  1  0.21050269  0.44817568  0.44820122  1  -1.125534  0.085474  -0.307306  -0.494026  0.048298  2.325435  0.078
O  O84  1  0.21049165  0.99999781  0.44820541  1  -1.126153  0.085404  -0.307267  -0.49397  0.048273  2.325704  0.078
O  O85  1  0.21049067  0.44817441  0.99996902  1  -1.125066  0.085463  -0.307292  -0.493848  0.048308  2.325581  0.078
O  O86  1  0.21050222  0.55182389  0.55179612  1  -1.125457  0.085475  -0.307334  -0.494004  0.048298  2.325445  0.078
O  O87  1  0.78950732  0.00000075  0.55179442  1  -1.126176  0.085402  -0.307322  -0.494016  0.048272  2.325655  0.078
O  O88  1  0.78950423  0.44817764  0.44820230  1  -1.125418  0.085462  -0.307297  -0.494015  0.04829  2.325535  0.078
O  O89  1  0.78950642  0.55182645  0.00003533  1  -1.125674  0.085444  -0.307333  -0.493955  0.048305  2.325619  0.078
O  O90  1  0.78950628  0.99999759  0.44820563  1  -1.126158  0.085402  -0.307307  -0.493988  0.048271  2.325717  0.078
O  O91  1  0.78950376  0.55182231  0.55179541  1  -1.125404  0.085463  -0.30736  -0.49408  0.048291  2.325517  0.078
O  O92  1  0.78950531  0.44817486  0.99996859  1  -1.125075  0.085459  -0.307268  -0.493896  0.048306  2.325587  0.078
