# generated using pymatgen
data_UH4C6N2O7
_symmetry_space_group_name_H-M   'P 1'
_cell_length_a   7.44290380
_cell_length_b   7.44295890
_cell_length_c   9.79417637
_cell_angle_alpha   97.61618409
_cell_angle_beta   97.61676230
_cell_angle_gamma   103.54502498
_symmetry_Int_Tables_number   1
_chemical_formula_structural   UH4C6N2O7
_chemical_formula_sum   'U2 H8 C12 N4 O14'
_cell_volume   515.23682797
_cell_formula_units_Z   2
loop_
 _symmetry_equiv_pos_site_id
 _symmetry_equiv_pos_as_xyz
  1  'x, y, z'
loop_
 _atom_site_type_symbol
 _atom_site_label
 _atom_site_symmetry_multiplicity
 _atom_site_fract_x
 _atom_site_fract_y
 _atom_site_fract_z
 _atom_site_occupancy
 _atom_site_hle17_bader_spin_density
 _atom_site_hle17_ddec_charge
 _atom_site_hle17_ddec_spin_density
 _atom_site_hle17_ddec_sum_bond_order
 _atom_site_hle17_magmom
 _atom_site_hse06_10hf_bader_spin_density
 _atom_site_hse06_10hf_ddec_charge
 _atom_site_hse06_10hf_ddec_spin_density
 _atom_site_hse06_10hf_ddec_sum_bond_order
 _atom_site_hse06_10hf_magmom
 _atom_site_hse06_bader_spin_density
 _atom_site_hse06_ddec_charge
 _atom_site_hse06_ddec_spin_density
 _atom_site_hse06_ddec_sum_bond_order
 _atom_site_hse06_magmom
 _atom_site_pbe_bader_spin_density
 _atom_site_pbe_cm5_charge
 _atom_site_pbe_ddec_charge
 _atom_site_pbe_ddec_spin_density
 _atom_site_pbe_ddec_sum_bond_order
 _atom_site_pbe_magmom
U  U0  1  0.29497463  0.24844814  0.66492844  1  0  2.478565  0  4.192927  0  0  2.5266  0  4.869294  0  0  2.634288  0  4.830579  0  0  2.209677  2.450255  0  4.897161  0
U  U1  1  0.75153151  0.70501526  0.33507470  1  0  2.478603  0  4.192933  0  0  2.526726  0  4.869232  0  0  2.634369  0  4.830606  0  0  2.209725  2.45028  0  4.897205  0
H  H2  1  0.62878594  0.23170397  0.87736430  1  0  0.441777  0  0.855166  0  0  0.412918  0  0.916198  0  0  0.425748  0  0.897794  0  0  0.30348  0.403725  0  0.929422  0
H  H3  1  0.76829635  0.37121778  0.12263737  1  0  0.441727  0  0.855224  0  0  0.412897  0  0.916215  0  0  0.42573  0  0.897806  0  0  0.30349  0.403705  0  0.929437  0
H  H4  1  0.44444078  0.18453461  0.95753529  1  0  0.407803  0  0.90221  0  0  0.369135  0  0.979647  0  0  0.382244  0  0.960905  0  0  0.296201  0.359219  0  0.993682  0
H  H5  1  0.81546739  0.55555728  0.04246756  1  0  0.407815  0  0.902199  0  0  0.369132  0  0.979653  0  0  0.382244  0  0.960907  0  0  0.296203  0.359216  0  0.993687  0
H  H6  1  0.12059906  0.23380808  0.06576263  1  0  0.111044  0  0.933726  0  0  0.114349  0  0.999638  0  0  0.118494  0  0.996377  0  0  0.132005  0.111211  0  1.0022  0
H  H7  1  0.76620192  0.87939804  0.93423761  1  0  0.111027  0  0.933733  0  0  0.114341  0  0.999633  0  0  0.118486  0  0.996374  0  0  0.132014  0.111202  0  1.002197  0
H  H8  1  0.06774723  0.27413431  0.31598473  1  0  0.11242  0  0.946682  0  0  0.114758  0  1.010886  0  0  0.119263  0  1.006941  0  0  0.135829  0.111273  0  1.014024  0
H  H9  1  0.72587074  0.93225115  0.68401686  1  0  0.112416  0  0.946654  0  0  0.114761  0  1.010852  0  0  0.119265  0  1.006907  0  0  0.13583  0.111277  0  1.013988  0
C  C10  1  0.43913625  0.10762371  0.35007421  1  0  0.037507  0  3.709889  0  0  0.038201  0  3.954065  0  0  0.035242  0  3.972032  0  0  0.140136  0.039666  0  3.942634  0
C  C11  1  0.89238038  0.56086508  0.64992636  1  0  0.037282  0  3.709991  0  0  0.038079  0  3.954123  0  0  0.035111  0  3.97209  0  0  0.140133  0.039552  0  3.942685  0
C  C12  1  0.47091590  0.08887282  0.21159045  1  0  0.083883  0  3.65239  0  0  0.080324  0  3.894524  0  0  0.082168  0  3.909245  0  0  0.149906  0.078179  0  3.885919  0
C  C13  1  0.91113236  0.52908748  0.78841163  1  0  0.084095  0  3.652272  0  0  0.080384  0  3.894591  0  0  0.082232  0  3.909309  0  0  0.149971  0.078239  0  3.885985  0
C  C14  1  0.21442204  0.19995203  0.14813777  1  0  0.137669  0  3.567305  0  0  0.106123  0  3.820595  0  0  0.111557  0  3.830759  0  0  0.093285  0.102423  0  3.81417  0
C  C15  1  0.80005250  0.78557961  0.85186179  1  0  0.137685  0  3.567206  0  0  0.106138  0  3.820496  0  0  0.111571  0  3.83066  0  0  0.09329  0.102439  0  3.814073  0
C  C16  1  0.18402571  0.22093496  0.28684427  1  0  0.14259  0  3.587747  0  0  0.119033  0  3.847905  0  0  0.125506  0  3.856592  0  0  0.093073  0.114441  0  3.842333  0
C  C17  1  0.77906610  0.81597048  0.71315422  1  0  0.142593  0  3.58762  0  0  0.119027  0  3.847799  0  0  0.1255  0  3.856483  0  0  0.093091  0.114443  0  3.842218  0
C  C18  1  0.56001815  0.06154992  0.46808083  1  0  0.691406  0  3.833282  0  0  0.65524  0  4.122438  0  0  0.695319  0  4.109333  0  0  0.262975  0.627524  0  4.13038  0
C  C19  1  0.93845108  0.43998228  0.53191889  1  0  0.691505  0  3.833281  0  0  0.655321  0  4.122424  0  0  0.69541  0  4.10931  0  0  0.263  0.627602  0  4.130367  0
C  C20  1  0.63429182  0.02398156  0.16354892  1  0  0.660673  0  3.888239  0  0  0.609698  0  4.205521  0  0  0.64645  0  4.194368  0  0  0.240967  0.584558  0  4.212027  0
C  C21  1  0.97601850  0.36571112  0.83645032  1  0  0.660597  0  3.88826  0  0  0.609624  0  4.205599  0  0  0.646374  0  4.19445  0  0  0.24095  0.584482  0  4.212107  0
N  N22  1  0.29922332  0.17954313  0.38747754  1  0  -0.302687  0  3.209816  0  0  -0.281608  0  3.491407  0  0  -0.295725  0  3.511305  0  0  -0.305062  -0.270645  0  3.476753  0
N  N23  1  0.82045654  0.70077608  0.61252064  1  0  -0.302628  0  3.20979  0  0  -0.281569  0  3.491354  0  0  -0.295678  0  3.511255  0  0  -0.305064  -0.270596  0  3.476694  0
N  N24  1  0.36038543  0.14075419  0.11192316  1  0  -0.256501  0  3.089144  0  0  -0.207736  0  3.329588  0  0  -0.217261  0  3.34138  0  0  -0.262513  -0.20031  0  3.321848  0
N  N25  1  0.85925329  0.63961606  0.88807739  1  0  -0.25657  0  3.089131  0  0  -0.207768  0  3.329637  0  0  -0.217294  0  3.341425  0  0  -0.262598  -0.200341  0  3.321898  0
O  O26  1  0.15468365  0.01500783  0.66214232  1  0  -0.685091  0  1.561113  0  0  -0.702532  0  1.846229  0  0  -0.725489  0  1.834849  0  0  -0.75475  -0.688746  0  1.854956  0
O  O27  1  0.98499139  0.84531683  0.33785701  1  0  -0.685154  0  1.560738  0  0  -0.702639  0  1.845803  0  0  -0.725601  0  1.834441  0  0  -0.754661  -0.688815  0  1.85454  0
O  O28  1  0.43841907  0.47829509  0.65985445  1  0  -0.698481  0  1.55694  0  0  -0.715169  0  1.838109  0  0  -0.738917  0  1.828022  0  0  -0.760126  -0.700936  0  1.846014  0
O  O29  1  0.52169938  0.56159070  0.34014269  1  0  -0.69845  0  1.557344  0  0  -0.71516  0  1.838535  0  0  -0.738898  0  1.828456  0  0  -0.760289  -0.700897  0  1.846462  0
O  O30  1  0.53612691  0.11818864  0.59070255  1  0  -0.623132  0  2.048057  0  0  -0.604052  0  2.307923  0  0  -0.638229  0  2.301854  0  0  -0.342712  -0.579325  0  2.311931  0
O  O31  1  0.88180853  0.46387225  0.40929740  1  0  -0.623198  0  2.04807  0  0  -0.604083  0  2.307895  0  0  -0.63826  0  2.301827  0  0  -0.342704  -0.579347  0  2.311907  0
O  O32  1  0.68190401  0.97343864  0.44374557  1  0  -0.641799  0  2.112469  0  0  -0.623504  0  2.38322  0  0  -0.658762  0  2.376355  0  0  -0.354663  -0.597451  0  2.386395  0
O  O33  1  0.02656271  0.31809761  0.55625262  1  0  -0.64177  0  2.112369  0  0  -0.623487  0  2.383143  0  0  -0.658751  0  2.376268  0  0  -0.354695  -0.597445  0  2.386317  0
O  O34  1  0.62894006  0.84927379  0.15975011  1  0  -0.66628  0  2.021575  0  0  -0.65541  0  2.28901  0  0  -0.692081  0  2.281315  0  0  -0.384693  -0.62778  0  2.292526  0
O  O35  1  0.15072712  0.37106034  0.84025020  1  0  -0.666214  0  2.021591  0  0  -0.655327  0  2.28903  0  0  -0.692002  0  2.281333  0  0  -0.384685  -0.627711  0  2.292546  0
O  O36  1  0.75719612  0.14167590  0.12474198  1  0  -0.546833  0  1.981416  0  0  -0.500267  0  2.205149  0  0  -0.527167  0  2.19661  0  0  -0.261274  -0.480981  0  2.210216  0
O  O37  1  0.85832228  0.24280505  0.87525895  1  0  -0.546886  0  1.981457  0  0  -0.500253  0  2.205138  0  0  -0.527152  0  2.196602  0  0  -0.261267  -0.480974  0  2.210217  0
O  O38  1  0.49131713  0.22242841  0.87081117  1  0  -0.884536  0  1.934275  0  0  -0.856138  0  2.143989  0  0  -0.882675  0  2.108638  0  0  -0.631739  -0.836331  0  2.169508  0
O  O39  1  0.77756353  0.50868338  0.12918788  1  0  -0.884473  0  1.934237  0  0  -0.85611  0  2.14398  0  0  -0.882628  0  2.108603  0  0  -0.631737  -0.836281  0  2.16948  0
