# generated using pymatgen
data_AlH12C27(O2F)3
_symmetry_space_group_name_H-M   'P 1'
_cell_length_a   4.01617851
_cell_length_b   27.77741598
_cell_length_c   27.85157818
_cell_angle_alpha   59.99715994
_cell_angle_beta   90.31912795
_cell_angle_gamma   89.65772216
_symmetry_Int_Tables_number   1
_chemical_formula_structural   AlH12C27(O2F)3
_chemical_formula_sum   'Al3 H36 C81 O18 F9'
_cell_volume   2690.56760826
_cell_formula_units_Z   3
loop_
 _symmetry_equiv_pos_site_id
 _symmetry_equiv_pos_as_xyz
  1  'x, y, z'
loop_
 _atom_site_type_symbol
 _atom_site_label
 _atom_site_symmetry_multiplicity
 _atom_site_fract_x
 _atom_site_fract_y
 _atom_site_fract_z
 _atom_site_occupancy
 _atom_site_pbe_bader_charge
 _atom_site_pbe_bader_spin_density
 _atom_site_pbe_cm5_charge
 _atom_site_pbe_ddec_charge
 _atom_site_pbe_ddec_spin_density
 _atom_site_pbe_ddec_sum_bond_order
 _atom_site_pbe_magmom
Al  Al0  1  0.00170676  0.49964553  0.49994255  1  2.504255  0  0.431592  1.606073  0  2.563738  0
Al  Al1  1  0.94845589  0.83275886  0.83259899  1  2.504162  0  0.432764  1.600553  0  2.56783  0
Al  Al2  1  0.05101980  0.16607602  0.16699431  1  2.502602  0  0.432099  1.602603  0  2.566621  0
H  H3  1  0.51343339  0.07661468  0.92259552  1  0.046518  0  0.099512  0.097921  0  1.026377  0
H  H4  1  0.51121697  0.25528218  0.83413341  1  0.049395  0  0.099683  0.098546  0  1.025656  0
H  H5  1  0.50279213  0.16658823  0.74439744  1  0.051862  0  0.099953  0.098836  0  1.02462  0
H  H6  1  0.75122652  0.92704915  0.90777787  1  0.09953  0  0.11102  0.11792  0  0.975841  0
H  H7  1  0.77852541  0.01558821  0.90843167  1  0.056101  0  0.101117  0.10438  0  1.006529  0
H  H8  1  0.19099029  0.09545116  0.75720732  1  0.077498  0  0.109317  0.13105  0  0.99462  0
H  H9  1  0.25591944  0.08928788  0.98414047  1  0.086116  0  0.109427  0.131341  0  0.995316  0
H  H10  1  0.82918021  0.24186935  0.99453353  1  0.107735  0  0.110784  0.117216  0  0.975377  0
H  H11  1  0.82299056  0.24120398  0.90610092  1  0.068546  0  0.101091  0.104273  0  1.006417  0
H  H12  1  0.79972931  0.31443420  0.76202110  1  0.099505  0  0.107688  0.129934  0  0.997427  0
H  H13  1  0.21424953  0.33199850  0.59686081  1  0.098751  0  0.111955  0.118767  0  0.982274  0
H  H14  1  0.21250397  0.24143230  0.68456698  1  0.061243  0  0.100489  0.10398  0  1.007084  0
H  H15  1  0.50316866  0.49955468  0.07792627  1  0.051969  0  0.099596  0.098251  0  1.026455  0
H  H16  1  0.51516376  0.58945554  0.16640827  1  0.045135  0  0.099972  0.09911  0  1.02435  0
H  H17  1  0.51430653  0.41076461  0.25617631  1  0.050782  0  0.100259  0.099329  0  1.023391  0
H  H18  1  0.24935842  0.33695726  0.09180735  1  0.088252  0  0.110034  0.116014  0  0.977486  0
H  H19  1  0.22965009  0.42583051  0.09197221  1  0.067447  0  0.100987  0.104227  0  1.007466  0
H  H20  1  0.81747012  0.35087909  0.24321896  1  0.094054  0  0.10953  0.131401  0  0.99496  0
H  H21  1  0.77313700  0.57389514  0.01668673  1  0.08922  0  0.109672  0.131761  0  0.994213  0
H  H22  1  0.17973825  0.73663633  0.00558887  1  0.08731  0  0.109989  0.115773  0  0.97664  0
H  H23  1  0.19366446  0.64760146  0.09433208  1  0.060566  0  0.100542  0.103818  0  1.006538  0
H  H24  1  0.21841803  0.57613471  0.23862829  1  0.102284  0  0.108201  0.129955  0  0.997014  0
H  H25  1  0.81098861  0.42816008  0.40361875  1  0.101459  0  0.11117  0.117534  0  0.983919  0
H  H26  1  0.81725869  0.42572240  0.31577710  1  0.065736  0  0.100166  0.104183  0  1.006334  0
H  H27  1  0.49580813  0.92248063  0.50022920  1  0.045006  0  0.099699  0.098169  0  1.026888  0
H  H28  1  0.47988593  0.83406428  0.41031438  1  0.041735  0  0.100064  0.098862  0  1.025154  0
H  H29  1  0.47704429  0.74381312  0.58850922  1  0.067415  0  0.099748  0.099014  0  1.024201  0
H  H30  1  0.73868157  0.90744642  0.66369643  1  0.085136  0  0.113166  0.120834  0  0.972629  0
H  H31  1  0.75686970  0.90799262  0.57476898  1  0.064881  0  0.101423  0.104705  0  1.006904  0
H  H32  1  0.18159378  0.75691626  0.64745981  1  0.090198  0  0.109754  0.131683  0  0.995182  0
H  H33  1  0.23739463  0.98572885  0.42486415  1  0.077129  0  0.109854  0.132094  0  0.993886  0
H  H34  1  0.82638914  0.99272623  0.26507267  1  0.077155  0  0.113148  0.120061  0  0.971301  0
H  H35  1  0.80607429  0.90403340  0.35407222  1  0.052304  0  0.101121  0.104026  0  1.006876  0
H  H36  1  0.77237731  0.76154557  0.42378167  1  0.085611  0  0.107964  0.129955  0  0.997811  0
H  H37  1  0.19567257  0.59645360  0.57014302  1  0.077453  0  0.11404  0.121498  0  0.979028  0
H  H38  1  0.18513779  0.68423727  0.57307841  1  0.036861  0  0.100708  0.104996  0  1.005453  0
C  C39  1  0.49626771  0.57445475  0.49797684  1  1.614619  0  0.277783  0.675376  0  4.056144  0
C  C40  1  0.50647561  0.42664009  0.57488539  1  1.579439  0  0.27525  0.671056  0  4.064353  0
C  C41  1  0.50300647  0.50003363  0.42597609  1  1.612665  0  0.275492  0.672578  0  4.061249  0
C  C42  1  0.44760764  0.90758929  0.83138760  1  1.64242  0  0.285012  0.690171  0  4.049583  0
C  C43  1  0.45609088  0.75966141  0.90727093  1  1.606924  0  0.286795  0.693284  0  4.043829  0
C  C44  1  0.44708152  0.83127106  0.75988277  1  1.61396  0  0.2893  0.696507  0  4.039174  0
C  C45  1  0.54933376  0.16633119  0.09290863  1  1.639783  0  0.284675  0.691161  0  4.049045  0
C  C46  1  0.54869548  0.23993489  0.16713797  1  1.632804  0  0.287614  0.695293  0  4.042876  0
C  C47  1  0.55390621  0.09265429  0.24064611  1  1.615679  0  0.288203  0.695698  0  4.039585  0
C  C48  1  0.52356816  0.16595588  0.88449959  1  0.010434  0  -0.00644  0.08039  0  4.016398  0
C  C49  1  0.51212902  0.11599549  0.88356867  1  -0.06196  0  -0.087771  -0.173338  0  3.923509  0
C  C50  1  0.49786420  0.11551649  0.83352869  1  0.017824  0  -0.006012  0.081596  0  4.015686  0
C  C51  1  0.49859723  0.16642109  0.78361141  1  -0.055514  0  -0.088516  -0.17583  0  3.92561  0
C  C52  1  0.50790397  0.21709252  0.78312683  1  0.014332  0  -0.006671  0.080381  0  4.01551  0
C  C53  1  0.51816754  0.21615552  0.83392309  1  -0.050886  0  -0.087629  -0.174714  0  3.925998  0
C  C54  1  0.62575089  0.96404577  0.87527387  1  -0.076054  0  -0.081646  -0.07628  0  3.999173  0
C  C55  1  0.63809629  0.01388255  0.87573463  1  0.002426  0  -0.097583  -0.152845  0  4.005297  0
C  C56  1  0.48596281  0.06244135  0.83333114  1  -0.002021  0  -0.0055  0.089567  0  4.014717  0
C  C57  1  0.32218850  0.05958592  0.79017364  1  0.008682  0  -0.099511  -0.258203  0  3.9837  0
C  C58  1  0.31507846  0.00966269  0.79029858  1  0.397422  0  0.102611  0.278323  0  4.061663  0
C  C59  1  0.46154349  0.96107132  0.83235243  1  0.076475  0  -0.016363  -0.145329  0  3.967661  0
C  C60  1  0.38997601  0.12266422  0.98529301  1  0.014506  0  -0.100229  -0.258521  0  3.986347  0
C  C61  1  0.40244900  0.12341865  0.03462084  1  0.482079  0  0.102687  0.276593  0  4.06311  0
C  C62  1  0.55115304  0.16622934  0.03909258  1  -0.014913  0  -0.016272  -0.143879  0  3.966034  0
C  C63  1  0.70095414  0.20888217  0.99170421  1  -0.060427  0  -0.081973  -0.077075  0  3.99738  0
C  C64  1  0.69423981  0.20862511  0.94184234  1  -0.088681  0  -0.096867  -0.151312  0  4.001753  0
C  C65  1  0.53590291  0.16586598  0.93760527  1  0.061978  0  -0.005386  0.089134  0  4.013039  0
C  C66  1  0.66499696  0.31697734  0.72676670  1  0.048556  0  -0.10167  -0.268343  0  3.985866  0
C  C67  1  0.66493025  0.36704679  0.67711773  1  0.369593  0  0.110902  0.297187  0  4.033788  0
C  C68  1  0.50703817  0.37376654  0.62908676  1  0.111274  0  -0.017432  -0.154073  0  3.9481  0
C  C69  1  0.34529021  0.32702409  0.63344302  1  -0.033352  0  -0.077248  -0.062562  0  3.990605  0
C  C70  1  0.34759383  0.27630507  0.68250650  1  -0.037293  0  -0.098949  -0.158041  0  4.004416  0
C  C71  1  0.50730826  0.27043829  0.73027577  1  -0.031856  0  -0.001523  0.099374  0  4.00933  0
C  C72  1  0.49903787  0.55066191  0.11606036  1  0.016945  0  -0.006753  0.080343  0  4.017495  0
C  C73  1  0.50669494  0.49973863  0.11697779  1  -0.055869  0  -0.088058  -0.17431  0  3.923673  0
C  C74  1  0.51811821  0.44903230  0.16702972  1  0.010052  0  -0.005501  0.082626  0  4.014961  0
C  C75  1  0.52043411  0.44987515  0.21694660  1  -0.047224  0  -0.08826  -0.175044  0  3.924801  0
C  C76  1  0.51560422  0.50010253  0.21741058  1  -0.026244  0  -0.006309  0.07926  0  4.01553  0
C  C77  1  0.50642675  0.55013047  0.16662144  1  -0.018119  0  -0.088139  -0.175249  0  3.927671  0
C  C78  1  0.37665736  0.34063664  0.12447235  1  -0.015745  0  -0.08261  -0.076731  0  4.003777  0
C  C79  1  0.36853734  0.39071862  0.12447244  1  -0.04478  0  -0.097539  -0.152505  0  4.007822  0
C  C80  1  0.52355660  0.39578801  0.16709592  1  -0.03526  0  -0.005777  0.08769  0  4.015466  0
C  C81  1  0.68457303  0.34887561  0.21008149  1  0.059986  0  -0.098713  -0.256833  0  3.982833  0
C  C82  1  0.68779025  0.29925993  0.20951757  1  0.400948  0  0.103991  0.27896  0  4.060709  0
C  C83  1  0.53915253  0.29390280  0.16710879  1  0.050005  0  -0.016684  -0.147486  0  3.968587  0
C  C84  1  0.63460184  0.60839280  0.01532261  1  -0.004751  0  -0.098984  -0.257886  0  3.983358  0
C  C85  1  0.61849486  0.65849047  0.96580592  1  0.495148  0  0.104828  0.279232  0  4.061156  0
C  C86  1  0.46257739  0.70564294  0.96114095  1  0.01839  0  -0.017327  -0.147222  0  3.967717  0
C  C87  1  0.31225627  0.70086128  0.00857561  1  -0.051615  0  -0.08242  -0.077009  0  4.001954  0
C  C88  1  0.32326735  0.65079218  0.05859386  1  -0.026244  0  -0.097145  -0.152112  0  4.003247  0
C  C89  1  0.48619895  0.60380891  0.06292860  1  -0.009709  0  -0.005304  0.089402  0  4.013355  0
C  C90  1  0.35449432  0.54333075  0.27387104  1  -0.034956  0  -0.101725  -0.267948  0  3.983768  0
C  C91  1  0.35097995  0.54345041  0.32359115  1  0.455884  0  0.11184  0.298729  0  4.034583  0
C  C92  1  0.51009144  0.50189879  0.37163679  1  0.046351  0  -0.016907  -0.156131  0  3.949175  0
C  C93  1  0.67819404  0.45983242  0.36709317  1  -0.081431  0  -0.078127  -0.062746  0  3.993126  0
C  C94  1  0.67890525  0.45843747  0.31795394  1  -0.046148  0  -0.09869  -0.159263  0  4.003505  0
C  C95  1  0.51657557  0.50042182  0.27028063  1  0.063319  0  -0.000931  0.101152  0  4.0074  0
C  C96  1  0.49893373  0.88430860  0.44922185  1  -0.017339  0  -0.006187  0.081383  0  4.017968  0
C  C97  1  0.49008176  0.88337123  0.49998924  1  -0.023575  0  -0.087296  -0.173085  0  3.922777  0
C  C98  1  0.47552038  0.83319765  0.55047290  1  -0.017679  0  -0.006216  0.082306  0  4.015122  0
C  C99  1  0.47216823  0.78320254  0.54951632  1  -0.053913  0  -0.087305  -0.175001  0  3.925088  0
C  C100  1  0.47813155  0.78277885  0.49941711  1  -0.016103  0  -0.006622  0.079136  0  4.01546  0
C  C101  1  0.48870931  0.83371586  0.44961674  1  -0.024789  0  -0.087838  -0.175385  0  3.928028  0
C  C102  1  0.61455403  0.87489681  0.65956768  1  0.000698  0  -0.08043  -0.074977  0  3.995419  0
C  C103  1  0.62132550  0.87531739  0.60939896  1  -0.055434  0  -0.096874  -0.15173  0  4.003626  0
C  C104  1  0.46968195  0.83295779  0.60366296  1  0.010407  0  -0.005108  0.087907  0  4.01421  0
C  C105  1  0.31263337  0.78978857  0.65000182  1  0.02291  0  -0.099821  -0.258294  0  3.984161  0
C  C106  1  0.31136992  0.78985103  0.69971023  1  0.430369  0  0.103708  0.278658  0  4.063231  0
C  C107  1  0.45707892  0.83194968  0.70575691  1  0.035344  0  -0.016509  -0.147638  0  3.969143  0
C  C108  1  0.37528629  0.98615136  0.39110482  1  0.075089  0  -0.099379  -0.258619  0  3.986219  0
C  C109  1  0.39561727  0.03558515  0.34113679  1  0.410487  0  0.103755  0.277737  0  4.065015  0
C  C110  1  0.55028497  0.03909073  0.29482090  1  0.019413  0  -0.016026  -0.147093  0  3.971001  0
C  C111  1  0.69580744  0.99065935  0.30025154  1  -0.007237  0  -0.080701  -0.074901  0  3.996125  0
C  C112  1  0.68073870  0.94070096  0.35025918  1  0.005817  0  -0.0967  -0.151011  0  4.001714  0
C  C113  1  0.51782031  0.93747887  0.39632212  1  -0.030673  0  -0.005463  0.088757  0  4.015651  0
C  C114  1  0.63903164  0.72632891  0.45614353  1  -0.000766  0  -0.10158  -0.268529  0  3.98475  0
C  C115  1  0.64465939  0.67666800  0.45566396  1  0.461503  0  0.11251  0.298377  0  4.035872  0
C  C116  1  0.48959590  0.62862978  0.49670951  1  0.020263  0  -0.017901  -0.157479  0  3.950317  0
C  C117  1  0.32452104  0.63301934  0.53876818  1  -0.012048  0  -0.076817  -0.061078  0  3.985443  0
C  C118  1  0.32161817  0.68213790  0.54045821  1  0.001275  0  -0.097606  -0.158394  0  4.001452  0
C  C119  1  0.47891882  0.72988154  0.49888702  1  -0.000359  0  -0.000928  0.101243  0  4.006605  0
O  O120  1  0.73691385  0.47288309  0.46059693  1  -1.264488  0  -0.242402  -0.604204  0  2.348725  0
O  O121  1  0.73284779  0.56514090  0.47339094  1  -1.244948  0  -0.233411  -0.593031  0  2.384336  0
O  O122  1  0.74221613  0.46051487  0.56560055  1  -1.236015  0  -0.234098  -0.593537  0  2.387801  0
O  O123  1  0.26241732  0.52447715  0.43482551  1  -1.243152  0  -0.230241  -0.588691  0  2.390528  0
O  O124  1  0.27086117  0.43363990  0.54092985  1  -1.254947  0  -0.240144  -0.600172  0  2.353416  0
O  O125  1  0.26498689  0.54022811  0.52489303  1  -1.257473  0  -0.238643  -0.599506  0  2.353049  0
O  O126  1  0.68188045  0.80595668  0.79433731  1  -1.24817  0  -0.227101  -0.587556  0  2.362402  0
O  O127  1  0.67855784  0.89843128  0.80593754  1  -1.244367  0  -0.230186  -0.589975  0  2.359446  0
O  O128  1  0.68945449  0.79375794  0.89908074  1  -1.254014  0  -0.238031  -0.601158  0  2.333607  0
O  O129  1  0.20604647  0.85694937  0.76700247  1  -1.243033  0  -0.231218  -0.592728  0  2.342957  0
O  O130  1  0.21654878  0.76778607  0.87413018  1  -1.235725  0  -0.223172  -0.581429  0  2.371638  0
O  O131  1  0.20849640  0.87503646  0.85682622  1  -1.253236  0  -0.232801  -0.592389  0  2.339797  0
O  O132  1  0.79084162  0.12586996  0.23220007  1  -1.242843  0  -0.22421  -0.584199  0  2.368174  0
O  O133  1  0.78706509  0.14105751  0.12665615  1  -1.248798  0  -0.227989  -0.589287  0  2.368577  0
O  O134  1  0.78604695  0.23255737  0.14127469  1  -1.251807  0  -0.235973  -0.599151  0  2.336572  0
O  O135  1  0.31819195  0.10048334  0.20660388  1  -1.24975  0  -0.233636  -0.596214  0  2.339425  0
O  O136  1  0.31603897  0.20596443  0.19211437  1  -1.248534  0  -0.225208  -0.585323  0  2.369644  0
O  O137  1  0.31096659  0.19218055  0.10042586  1  -1.248594  0  -0.23525  -0.595194  0  2.33248  0
F  F138  1  0.15514204  0.00797881  0.74790921  1  -0.630034  0  -0.101821  -0.140245  0  1.316795  0
F  F139  1  0.25892369  0.08103382  0.08029266  1  -0.635867  0  -0.100742  -0.138613  0  1.319078  0
F  F140  1  0.82245457  0.41019501  0.67697402  1  -0.627451  0  -0.097602  -0.135603  0  1.339273  0
F  F141  1  0.84566477  0.25439977  0.25160083  1  -0.633117  0  -0.096385  -0.133021  0  1.319495  0
F  F142  1  0.76468557  0.66180607  0.92033088  1  -0.625965  0  -0.096475  -0.132697  0  1.321794  0
F  F143  1  0.18804117  0.58617877  0.32384764  1  -0.623657  0  -0.092719  -0.12961  0  1.343274  0
F  F144  1  0.15787123  0.74753943  0.74406350  1  -0.63281  0  -0.098581  -0.136027  0  1.318778  0
F  F145  1  0.25427398  0.08214800  0.33701920  1  -0.626895  0  -0.097498  -0.134324  0  1.322927  0
F  F146  1  0.80513136  0.67647677  0.41307513  1  -0.62674  0  -0.094317  -0.131292  0  1.342236  0
