# generated using pymatgen
data_CdH24C38(NO)4
_symmetry_space_group_name_H-M   'P 1'
_cell_length_a   10.64109124
_cell_length_b   10.72380618
_cell_length_c   14.83000000
_cell_angle_alpha   93.26597176
_cell_angle_beta   93.29138655
_cell_angle_gamma   109.80089911
_symmetry_Int_Tables_number   1
_chemical_formula_structural   CdH24C38(NO)4
_chemical_formula_sum   'Cd2 H48 C76 N8 O8'
_cell_volume   1584.34361919
_cell_formula_units_Z   2
loop_
 _symmetry_equiv_pos_site_id
 _symmetry_equiv_pos_as_xyz
  1  'x, y, z'
loop_
 _atom_site_type_symbol
 _atom_site_label
 _atom_site_symmetry_multiplicity
 _atom_site_fract_x
 _atom_site_fract_y
 _atom_site_fract_z
 _atom_site_occupancy
 _atom_site_hle17_bader_spin_density
 _atom_site_hle17_ddec_charge
 _atom_site_hle17_ddec_spin_density
 _atom_site_hle17_ddec_sum_bond_order
 _atom_site_hle17_magmom
 _atom_site_hse06_10hf_bader_spin_density
 _atom_site_hse06_10hf_ddec_charge
 _atom_site_hse06_10hf_ddec_spin_density
 _atom_site_hse06_10hf_ddec_sum_bond_order
 _atom_site_hse06_10hf_magmom
 _atom_site_hse06_bader_spin_density
 _atom_site_hse06_ddec_charge
 _atom_site_hse06_ddec_spin_density
 _atom_site_hse06_ddec_sum_bond_order
 _atom_site_hse06_magmom
 _atom_site_pbe_bader_charge
 _atom_site_pbe_bader_spin_density
 _atom_site_pbe_cm5_charge
 _atom_site_pbe_ddec_charge
 _atom_site_pbe_ddec_spin_density
 _atom_site_pbe_ddec_sum_bond_order
 _atom_site_pbe_magmom
Cd  Cd0  1  0.27291419  0.72509236  0.74916919  1  0  1.055187  0  1.763419  0  0  0.836921  0  2.22601  0  0  0.897196  0  2.173756  0  1.254003  0  0.755805  0.794318  0  2.261863  0
Cd  Cd1  1  0.72708548  0.27491570  0.25082533  1  0  1.055171  0  1.763483  0  0  0.836902  0  2.226076  0  0  0.897179  0  2.173821  0  1.253932  0  0.755772  0.794295  0  2.261925  0
H  H2  1  0.36259532  0.00153933  0.88633425  1  0  0.072114  0  0.955035  0  0  0.078767  0  1.025375  0  0  0.080667  0  1.024346  0  0.114428  0  0.113519  0.077447  0  1.025995  0
H  H3  1  0.99598207  0.63629446  0.61332667  1  0  0.071173  0  0.955075  0  0  0.077758  0  1.025908  0  0  0.079546  0  1.024964  0  0.093911  0  0.113508  0.076519  0  1.026474  0
H  H4  1  0.63740288  0.99846177  0.11366599  1  0  0.072169  0  0.95504  0  0  0.078795  0  1.025386  0  0  0.080695  0  1.024361  0  0.11432  0  0.113528  0.077479  0  1.026004  0
H  H5  1  0.00399318  0.36369471  0.38667281  1  0  0.071241  0  0.955093  0  0  0.077811  0  1.025929  0  0  0.079606  0  1.024973  0  0.093734  0  0.113532  0.076532  0  1.026536  0
H  H6  1  0.44431857  0.25040872  0.88424016  1  0  0.103636  0  0.944506  0  0  0.118159  0  0.995387  0  0  0.121019  0  0.994804  0  0.074062  0  0.1109  0.116134  0  0.995891  0
H  H7  1  0.74506527  0.55514150  0.61527494  1  0  0.1037  0  0.944277  0  0  0.118187  0  0.99518  0  0  0.12099  0  0.994669  0  0.084465  0  0.111142  0.116196  0  0.995641  0
H  H8  1  0.55568417  0.74959735  0.11575238  1  0  0.103552  0  0.944505  0  0  0.118157  0  0.995291  0  0  0.121021  0  0.994701  0  0.074472  0  0.110896  0.116133  0  0.995794  0
H  H9  1  0.25491316  0.44485960  0.38473797  1  0  0.103568  0  0.944391  0  0  0.118169  0  0.995154  0  0  0.120972  0  0.994643  0  0.084419  0  0.111034  0.116171  0  0.995628  0
H  H10  1  0.46489003  0.34888611  0.73405017  1  0  0.099529  0  0.935953  0  0  0.113419  0  0.990434  0  0  0.11634  0  0.988121  0  0.049784  0  0.1123  0.111253  0  0.992192  0
H  H11  1  0.64575340  0.53398565  0.76546581  1  0  0.099573  0  0.936014  0  0  0.113511  0  0.990153  0  0  0.116304  0  0.988008  0  0.064076  0  0.112435  0.11143  0  0.99181  0
H  H12  1  0.53509318  0.65110703  0.26594035  1  0  0.099554  0  0.935757  0  0  0.113417  0  0.990285  0  0  0.116341  0  0.987973  0  0.049884  0  0.112287  0.11125  0  0.992043  0
H  H13  1  0.35424206  0.46600749  0.23455421  1  0  0.099567  0  0.935948  0  0  0.113499  0  0.990087  0  0  0.116294  0  0.987939  0  0.064154  0  0.112435  0.111419  0  0.991744  0
H  H14  1  0.45355408  0.31438343  0.56612536  1  0  0.097012  0  0.930842  0  0  0.11186  0  0.982238  0  0  0.114529  0  0.98182  0  0.077032  0  0.106566  0.109945  0  0.982812  0
H  H15  1  0.68056127  0.54392965  0.93349825  1  0  0.096892  0  0.931327  0  0  0.112114  0  0.982222  0  0  0.114832  0  0.981756  0  0.030527  0  0.106565  0.110152  0  0.982881  0
H  H16  1  0.54642837  0.68561568  0.43386943  1  0  0.096952  0  0.930752  0  0  0.11177  0  0.982211  0  0  0.114441  0  0.98179  0  0.077041  0  0.10655  0.109856  0  0.982787  0
H  H17  1  0.31945053  0.45606449  0.06651642  1  0  0.096893  0  0.931201  0  0  0.112082  0  0.982145  0  0  0.1148  0  0.981677  0  0.030464  0  0.106512  0.110119  0  0.982805  0
H  H18  1  0.39445065  0.15944602  0.42578904  1  0  0.129747  0  0.966832  0  0  0.139575  0  1.026286  0  0  0.14362  0  1.023257  0  0.169487  0  0.109284  0.136738  0  1.02837  0
H  H19  1  0.83699523  0.60294726  0.07389673  1  0  0.130032  0  0.964191  0  0  0.139571  0  1.023831  0  0  0.143664  0  1.020768  0  0.162297  0  0.109387  0.136677  0  1.025993  0
H  H20  1  0.60554473  0.84055508  0.57420569  1  0  0.129586  0  0.966788  0  0  0.139436  0  1.026253  0  0  0.14349  0  1.023224  0  0.169699  0  0.10916  0.136599  0  1.028337  0
H  H21  1  0.16302857  0.39705980  0.92611560  1  0  0.130195  0  0.964015  0  0  0.139618  0  1.023781  0  0  0.143711  0  1.020714  0  0.161962  0  0.109365  0.136724  0  1.025942  0
H  H22  1  0.29946430  0.93220890  0.35387168  1  0  0.113709  0  0.932851  0  0  0.124476  0  0.991124  0  0  0.127997  0  0.988332  0  0.119246  0  0.112165  0.122018  0  0.993003  0
H  H23  1  0.06565403  0.69913156  0.14578648  1  0  0.114086  0  0.934648  0  0  0.124359  0  0.993574  0  0  0.128014  0  0.990615  0  0.139476  0  0.111677  0.121843  0  0.995506  0
H  H24  1  0.70052729  0.06778126  0.64612109  1  0  0.113721  0  0.932783  0  0  0.124406  0  0.991122  0  0  0.12798  0  0.988264  0  0.11931  0  0.11215  0.121948  0  0.993004  0
H  H25  1  0.93437199  0.30087650  0.85421385  1  0  0.114115  0  0.934939  0  0  0.124465  0  0.993748  0  0  0.128121  0  0.99079  0  0.139499  0  0.11174  0.121948  0  0.995683  0
H  H26  1  0.20301504  0.68480326  0.37099527  1  0  0.09567  0  0.95756  0  0  0.106702  0  1.015214  0  0  0.10919  0  1.016007  0  0.075895  0  0.102242  0.105006  0  1.014861  0
H  H27  1  0.31494613  0.79717141  0.12855596  1  0  0.096292  0  0.958866  0  0  0.106987  0  1.016849  0  0  0.109428  0  1.017692  0  0.080959  0  0.102082  0.105307  0  1.016479  0
H  H28  1  0.79697871  0.31519585  0.62900605  1  0  0.0957  0  0.957411  0  0  0.106685  0  1.015129  0  0  0.109179  0  1.015916  0  0.075903  0  0.102246  0.104988  0  1.014777  0
H  H29  1  0.68508141  0.20282471  0.87143180  1  0  0.096255  0  0.958768  0  0  0.10697  0  1.01675  0  0  0.109409  0  1.017581  0  0.080593  0  0.10204  0.105274  0  1.016396  0
H  H30  1  0.19016931  0.60722617  0.52864237  1  0  0.074936  0  0.961111  0  0  0.081306  0  1.029791  0  0  0.084208  0  1.026409  0  0.101655  0  0.110536  0.079289  0  1.031974  0
H  H31  1  0.39289861  0.81048742  0.97096326  1  0  0.073964  0  0.961389  0  0  0.080366  0  1.030206  0  0  0.083207  0  1.02687  0  0.07544  0  0.110448  0.078409  0  1.032354  0
H  H32  1  0.80982418  0.39277493  0.47135565  1  0  0.074885  0  0.961156  0  0  0.081273  0  1.029804  0  0  0.084177  0  1.026416  0  0.101554  0  0.11052  0.079254  0  1.031985  0
H  H33  1  0.60711516  0.18950970  0.02902195  1  0  0.073902  0  0.961325  0  0  0.080285  0  1.030189  0  0  0.083129  0  1.026847  0  0.075724  0  0.110314  0.078328  0  1.032338  0
H  H34  1  0.60005590  0.81453860  0.97377426  1  0  0.081691  0  0.980281  0  0  0.090929  0  1.04745  0  0  0.094388  0  1.044192  0  0.019849  0  0.095058  0.088454  0  1.049699  0
H  H35  1  0.18120954  0.39775290  0.52462949  1  0  0.081729  0  0.979584  0  0  0.090745  0  1.047267  0  0  0.094192  0  1.04405  0  0.068545  0  0.094821  0.088318  0  1.049433  0
H  H36  1  0.39995401  0.18545553  0.02622078  1  0  0.081679  0  0.98015  0  0  0.090932  0  1.047338  0  0  0.094396  0  1.044076  0  0.019866  0  0.09507  0.088453  0  1.049585  0
H  H37  1  0.81877401  0.60224124  0.47537323  1  0  0.081589  0  0.97951  0  0  0.090613  0  1.047209  0  0  0.094061  0  1.043991  0  0.068669  0  0.094755  0.088185  0  1.049375  0
H  H38  1  0.80740003  0.90346379  0.07626683  1  0  0.076379  0  0.993259  0  0  0.087725  0  1.057067  0  0  0.090237  0  1.056061  0  0.061177  0  0.094367  0.086037  0  1.057719  0
H  H39  1  0.09358419  0.19113853  0.42292991  1  0  0.076811  0  0.992756  0  0  0.088033  0  1.056521  0  0  0.090545  0  1.055563  0  0.046742  0  0.094446  0.086341  0  1.057177  0
H  H40  1  0.19260457  0.09652041  0.92372960  1  0  0.076194  0  0.99344  0  0  0.087595  0  1.057196  0  0  0.090106  0  1.056192  0  0.061049  0  0.094322  0.085911  0  1.057839  0
H  H41  1  0.90641238  0.80886058  0.57706682  1  0  0.076766  0  0.992843  0  0  0.088034  0  1.056539  0  0  0.090547  0  1.055576  0  0.046749  0  0.094429  0.086342  0  1.057195  0
H  H42  1  0.82377422  0.93504691  0.74489727  1  0  0.088495  0  0.970487  0  0  0.096919  0  1.038047  0  0  0.100428  0  1.035485  0  0.074032  0  0.097692  0.094369  0  1.039919  0
H  H43  1  0.06495237  0.17642340  0.75456155  1  0  0.088798  0  0.971749  0  0  0.097493  0  1.038704  0  0  0.100935  0  1.036242  0  0.083483  0  0.098079  0.095002  0  1.040496  0
H  H44  1  0.17623137  0.06497010  0.25510326  1  0  0.088464  0  0.970423  0  0  0.096933  0  1.037955  0  0  0.100407  0  1.035425  0  0.074058  0  0.097689  0.094384  0  1.039824  0
H  H45  1  0.93503196  0.82357571  0.24543939  1  0  0.088829  0  0.971776  0  0  0.097466  0  1.038777  0  0  0.100905  0  1.03632  0  0.083114  0  0.098032  0.094975  0  1.04057  0
H  H46  1  0.03467624  0.01810205  0.84450538  1  0  0.08433  0  0.975938  0  0  0.098486  0  1.03372  0  0  0.101285  0  1.032154  0  0.060827  0  0.097438  0.096557  0  1.034763  0
H  H47  1  0.98337695  0.96653856  0.65569420  1  0  0.083626  0  0.975649  0  0  0.097803  0  1.033449  0  0  0.100614  0  1.031859  0  0.062138  0  0.097136  0.095887  0  1.034476  0
H  H48  1  0.96532763  0.98190999  0.15549420  1  0  0.084265  0  0.976093  0  0  0.098499  0  1.033777  0  0  0.101297  0  1.032216  0  0.060779  0  0.097485  0.096584  0  1.034803  0
H  H49  1  0.01661090  0.03346254  0.34430359  1  0  0.08361  0  0.975608  0  0  0.097872  0  1.033304  0  0  0.100688  0  1.031704  0  0.061871  0  0.097149  0.095928  0  1.034368  0
C  C50  1  0.37304998  0.04808320  0.82234727  1  0  0.131124  0  3.723297  0  0  0.099548  0  3.98001  0  0  0.106989  0  3.997607  0  0.54873  0  0.05033  0.094779  0  3.967749  0
C  C51  1  0.94888896  0.62592784  0.67723463  1  0  0.133972  0  3.719846  0  0  0.102627  0  3.97602  0  0  0.110199  0  3.993635  0  0.531531  0  0.051579  0.097756  0  3.963772  0
C  C52  1  0.62694549  0.95192088  0.17764286  1  0  0.131093  0  3.723452  0  0  0.099543  0  3.98018  0  0  0.106979  0  3.997779  0  0.548561  0  0.050316  0.094773  0  3.96792  0
C  C53  1  0.05109212  0.37406729  0.32276938  1  0  0.134019  0  3.720019  0  0  0.102623  0  3.976245  0  0  0.110192  0  3.993862  0  0.531539  0  0.051598  0.097787  0  3.964006  0
C  C54  1  0.41989062  0.18738467  0.82091052  1  0  -0.128767  0  3.764762  0  0  -0.140516  0  4.018244  0  0  -0.146969  0  4.039114  0  -0.112727  0  -0.086631  -0.136237  0  4.003883  0
C  C55  1  0.80854363  0.57930541  0.67862051  1  0  -0.129448  0  3.765431  0  0  -0.141471  0  4.018975  0  0  -0.147868  0  4.039783  0  -0.012198  0  -0.087041  -0.137237  0  4.004672  0
C  C56  1  0.58010828  0.81262936  0.17908286  1  0  -0.128826  0  3.764716  0  0  -0.14064  0  4.018237  0  0  -0.147089  0  4.039095  0  -0.113421  0  -0.086666  -0.13636  0  4.003876  0
C  C57  1  0.19143463  0.42068972  0.32139012  1  0  -0.129349  0  3.765512  0  0  -0.141426  0  4.018998  0  0  -0.147823  0  4.039813  0  -0.01254  0  -0.086959  -0.137188  0  4.004679  0
C  C58  1  0.43222006  0.24154365  0.73819244  1  0  -0.047052  0  3.703752  0  0  -0.073134  0  3.953149  0  0  -0.071036  0  3.9715  0  -0.003814  0  -0.062067  -0.074267  0  3.940571  0
C  C59  1  0.75395701  0.56667753  0.76133700  1  0  -0.04541  0  3.703927  0  0  -0.071074  0  3.953293  0  0  -0.068837  0  3.971565  0  -0.087524  0  -0.061432  -0.072305  0  3.940769  0
C  C60  1  0.56777036  0.75845944  0.26179947  1  0  -0.04683  0  3.703272  0  0  -0.072938  0  3.952672  0  0  -0.070848  0  3.97102  0  -0.003482  0  -0.061971  -0.07407  0  3.940094  0
C  C61  1  0.24603571  0.43331860  0.23867630  1  0  -0.045569  0  3.703666  0  0  -0.071208  0  3.953075  0  0  -0.068973  0  3.971353  0  -0.08752  0  -0.06145  -0.07244  0  3.940549  0
C  C62  1  0.40001259  0.15705548  0.65748814  1  0  0.032165  0  3.793263  0  0  0.048041  0  4.025862  0  0  0.04583  0  4.051233  0  0.011032  0  0.001563  0.049416  0  4.009173  0
C  C63  1  0.83906692  0.59854009  0.84209519  1  0  0.029603  0  3.795174  0  0  0.044458  0  4.02918  0  0  0.042198  0  4.054512  0  0.068466  0  0.001439  0.04586  0  4.01248  0
C  C64  1  0.59998630  0.84294761  0.34250480  1  0  0.031782  0  3.793288  0  0  0.047787  0  4.025755  0  0  0.045578  0  4.051122  0  0.011135  0  0.001464  0.049162  0  4.009068  0
C  C65  1  0.16093041  0.40145306  0.15791615  1  0  0.02976  0  3.794639  0  0  0.044611  0  4.028732  0  0  0.04235  0  4.054066  0  0.068584  0  0.001413  0.046015  0  4.012032  0
C  C66  1  0.41500652  0.20688286  0.56991446  1  0  -0.102491  0  3.762916  0  0  -0.12501  0  4.019827  0  0  -0.129695  0  4.044587  0  -0.106065  0  -0.084822  -0.122205  0  4.004351  0
C  C67  1  0.78892196  0.58290613  0.92970292  1  0  -0.101957  0  3.763738  0  0  -0.12441  0  4.020661  0  0  -0.129107  0  4.045468  0  0.032365  0  -0.084681  -0.121564  0  4.00503  0
C  C68  1  0.58499143  0.79312023  0.43008450  1  0  -0.102257  0  3.762817  0  0  -0.124794  0  4.019736  0  0  -0.129477  0  4.044494  0  -0.106366  0  -0.084799  -0.121989  0  4.004259  0
C  C69  1  0.21108701  0.41708800  0.07030557  1  0  -0.102007  0  3.763317  0  0  -0.124421  0  4.020213  0  0  -0.129116  0  4.045019  0  0.032837  0  -0.084617  -0.121575  0  4.004584  0
C  C70  1  0.38154427  0.12275665  0.49302637  1  0  -0.08621  0  3.699737  0  0  -0.110572  0  3.952365  0  0  -0.112966  0  3.974043  0  0.035436  0  -0.07875  -0.10892  0  3.938727  0
C  C71  1  0.87373936  0.61624736  0.00662528  1  0  -0.086913  0  3.701353  0  0  -0.110751  0  3.954447  0  0  -0.11322  0  3.976136  0  -0.058285  0  -0.078457  -0.109043  0  3.940686  0
C  C72  1  0.61845582  0.87724445  0.50696248  1  0  -0.085995  0  3.699884  0  0  -0.110387  0  3.952488  0  0  -0.112795  0  3.974176  0  0.035633  0  -0.07857  -0.108731  0  3.938843  0
C  C73  1  0.12627886  0.38375175  0.99337975  1  0  -0.086975  0  3.701337  0  0  -0.11077  0  3.954265  0  0  -0.113239  0  3.975957  0  -0.058666  0  -0.078475  -0.109056  0  3.940491  0
C  C74  1  0.32812698  0.98179961  0.49850207  1  0  0.031933  0  3.765242  0  0  0.047799  0  3.999777  0  0  0.045228  0  4.024147  0  -0.023387  0  0.003031  0.049093  0  3.984346  0
C  C75  1  0.01569666  0.67035961  0.00117155  1  0  0.03413  0  3.763417  0  0  0.048636  0  3.998891  0  0  0.046104  0  4.023356  0  -0.006146  0  0.003466  0.049924  0  3.983262  0
C  C76  1  0.67187379  0.01820348  0.50149633  1  0  0.03184  0  3.765782  0  0  0.04767  0  4.000208  0  0  0.045101  0  4.024588  0  -0.023207  0  0.002881  0.048963  0  3.984779  0
C  C77  1  0.98431651  0.32963851  0.99882851  1  0  0.034009  0  3.763689  0  0  0.048791  0  3.998758  0  0  0.046259  0  4.023221  0  -0.006105  0  0.003536  0.050077  0  3.983136  0
C  C78  1  0.28785994  0.89200333  0.42013041  1  0  -0.035944  0  3.664096  0  0  -0.061791  0  3.91357  0  0  -0.059332  0  3.931289  0  -0.123692  0  -0.058252  -0.063083  0  3.902246  0
C  C79  1  0.10617184  0.71103254  0.07952519  1  0  -0.035772  0  3.663182  0  0  -0.060732  0  3.911985  0  0  -0.058382  0  3.92965  0  -0.114276  0  -0.058301  -0.061941  0  3.900574  0
C  C80  1  0.71212473  0.10798584  0.57986204  1  0  -0.036019  0  3.664343  0  0  -0.061758  0  3.913749  0  0  -0.059342  0  3.931447  0  -0.126139  0  -0.058236  -0.063054  0  3.902428  0
C  C81  1  0.89385777  0.28896955  0.92047099  1  0  -0.035956  0  3.66327  0  0  -0.061073  0  3.91204  0  0  -0.058726  0  3.929703  0  -0.114167  0  -0.058452  -0.062279  0  3.900625  0
C  C82  1  0.23625092  0.75710407  0.42975909  1  0  -0.120544  0  3.760476  0  0  -0.133989  0  4.016615  0  0  -0.141421  0  4.039902  0  0.032612  0  -0.086055  -0.129425  0  4.00184  0
C  C83  1  0.24204577  0.76346027  0.06983216  1  0  -0.123327  0  3.763679  0  0  -0.136436  0  4.019302  0  0  -0.143851  0  4.042672  0  -0.022444  0  -0.086668  -0.131918  0  4.004494  0
C  C84  1  0.76373289  0.24288808  0.57023884  1  0  -0.120521  0  3.760031  0  0  -0.133969  0  4.016196  0  0  -0.141404  0  4.039496  0  0.034892  0  -0.086055  -0.129405  0  4.001423  0
C  C85  1  0.75797613  0.23653585  0.93016144  1  0  -0.12291  0  3.763126  0  0  -0.136053  0  4.018745  0  0  -0.143454  0  4.042101  0  -0.021851  0  -0.086393  -0.13152  0  4.003943  0
C  C86  1  0.22689787  0.71281749  0.51744075  1  0  0.133883  0  3.712818  0  0  0.102799  0  3.970974  0  0  0.110377  0  3.988332  0  0.542457  0  0.051339  0.097968  0  3.959237  0
C  C87  1  0.28653226  0.77309700  0.98212187  1  0  0.134058  0  3.716351  0  0  0.103049  0  3.974685  0  0  0.110606  0  3.992053  0  0.576534  0  0.050711  0.09818  0  3.962995  0
C  C88  1  0.77308954  0.28717963  0.48255282  1  0  0.133842  0  3.712965  0  0  0.102795  0  3.971122  0  0  0.110365  0  3.988488  0  0.542699  0  0.051308  0.097969  0  3.959379  0
C  C89  1  0.71348296  0.22689614  0.01786931  1  0  0.133734  0  3.716509  0  0  0.102754  0  3.974818  0  0  0.110307  0  3.992186  0  0.576168  0  0.050656  0.097888  0  3.963122  0
C  C90  1  0.31257728  0.92771123  0.58427987  1  0  0.135031  0  3.737726  0  0  0.12759  0  3.976375  0  0  0.13202  0  3.997855  0  0.5127  0  0.121364  0.124715  0  3.961989  0
C  C91  1  0.07010574  0.68636646  0.91535364  1  0  0.134209  0  3.738296  0  0  0.128245  0  3.975845  0  0  0.132517  0  3.997455  0  0.505694  0  0.12185  0.125491  0  3.961308  0
C  C92  1  0.68742512  0.07229385  0.41571935  1  0  0.134993  0  3.737927  0  0  0.127769  0  3.976297  0  0  0.132193  0  3.997782  0  0.512577  0  0.121469  0.124893  0  3.961914  0
C  C93  1  0.92990126  0.31362470  0.08464319  1  0  0.134314  0  3.738017  0  0  0.128315  0  3.975593  0  0  0.132589  0  3.997201  0  0.505288  0  0.121892  0.12556  0  3.961057  0
C  C94  1  0.35063395  0.01734233  0.66568941  1  0  0.143248  0  3.722159  0  0  0.136446  0  3.958485  0  0  0.141009  0  3.979724  0  0.495746  0  0.123951  0.133384  0  3.943993  0
C  C95  1  0.97980782  0.64818449  0.83393507  1  0  0.147134  0  3.723342  0  0  0.140379  0  3.959012  0  0  0.145088  0  3.980205  0  0.48122  0  0.124836  0.137209  0  3.944578  0
C  C96  1  0.64936880  0.98266374  0.33430515  1  0  0.14339  0  3.722324  0  0  0.136478  0  3.958599  0  0  0.141044  0  3.979837  0  0.495341  0  0.124015  0.133414  0  3.944112  0
C  C97  1  0.02019371  0.35181263  0.16607122  1  0  0.14715  0  3.72345  0  0  0.14022  0  3.959352  0  0  0.14493  0  3.980545  0  0.481549  0  0.12487  0.13705  0  3.944919  0
C  C98  1  0.57088783  0.82202444  0.79258365  1  0  0.620634  0  3.984873  0  0  0.574331  0  4.277463  0  0  0.608147  0  4.271095  0  1.586039  0  0.182447  0.551568  0  4.280497  0
C  C99  1  0.17495784  0.42758389  0.70610998  1  0  0.621368  0  3.982471  0  0  0.574999  0  4.275488  0  0  0.608796  0  4.269053  0  1.592565  0  0.183779  0.552249  0  4.278572  0
C  C100  1  0.42911774  0.17798163  0.20741575  1  0  0.620492  0  3.985302  0  0  0.574181  0  4.277886  0  0  0.607994  0  4.271523  0  1.586091  0  0.182355  0.551417  0  4.280923  0
C  C101  1  0.82504455  0.57241025  0.29389351  1  0  0.621052  0  3.982706  0  0  0.574749  0  4.275673  0  0  0.608546  0  4.269243  0  1.591945  0  0.183744  0.551996  0  4.278751  0
C  C102  1  0.69873597  0.87180310  0.85339960  1  0  -0.059237  0  3.771984  0  0  -0.034954  0  3.999562  0  0  -0.042589  0  4.023192  0  0.012213  0  -0.023482  -0.030128  0  3.983817  0
C  C103  1  0.12617443  0.30026196  0.64560283  1  0  -0.059056  0  3.770255  0  0  -0.034722  0  3.997837  0  0  -0.042202  0  4.021282  0  0.001388  0  -0.023777  -0.030042  0  3.982311  0
C  C104  1  0.30127355  0.12820894  0.14659751  1  0  -0.059315  0  3.772026  0  0  -0.035036  0  3.999622  0  0  -0.042667  0  4.023244  0  0.012317  0  -0.023469  -0.03021  0  3.983879  0
C  C105  1  0.87382197  0.69974213  0.35440218  1  0  -0.05898  0  3.770008  0  0  -0.034701  0  3.997628  0  0  -0.042181  0  4.021073  0  0.001963  0  -0.023867  -0.030018  0  3.982097  0
C  C106  1  0.69629000  0.86297183  0.94702470  1  0  -0.083532  0  3.790286  0  0  -0.10662  0  4.040949  0  0  -0.10675  0  4.061824  0  -0.025245  0  -0.093808  -0.106212  0  4.026912  0
C  C107  1  0.13414777  0.30216325  0.55184983  1  0  -0.084211  0  3.789999  0  0  -0.107019  0  4.040536  0  0  -0.107207  0  4.061413  0  -0.066763  0  -0.093526  -0.106578  0  4.02655  0
C  C108  1  0.30371187  0.13702628  0.05297085  1  0  -0.083608  0  3.790072  0  0  -0.106709  0  4.04077  0  0  -0.106844  0  4.061651  0  -0.025382  0  -0.093881  -0.106295  0  4.026728  0
C  C109  1  0.86584950  0.69784879  0.44815487  1  0  -0.084053  0  3.790027  0  0  -0.106847  0  4.040565  0  0  -0.107033  0  4.061443  0  -0.11498  0  -0.093414  -0.106407  0  4.026579  0
C  C110  1  0.81323753  0.91294837  0.00386636  1  0  -0.117575  0  3.76909  0  0  -0.137481  0  4.018236  0  0  -0.141275  0  4.040478  0  -0.021639  0  -0.096048  -0.135186  0  4.004027  0
C  C111  1  0.08491794  0.18563850  0.49539485  1  0  -0.117078  0  3.768722  0  0  -0.136693  0  4.017783  0  0  -0.14051  0  4.040042  0  -0.028013  0  -0.095885  -0.134425  0  4.003662  0
C  C112  1  0.18676818  0.08704179  0.99612970  1  0  -0.117246  0  3.769266  0  0  -0.137235  0  4.018349  0  0  -0.141036  0  4.040587  0  -0.021748  0  -0.096015  -0.13494  0  4.004137  0
C  C113  1  0.91507574  0.81436856  0.50460882  1  0  -0.117116  0  3.769299  0  0  -0.136704  0  4.018393  0  0  -0.140518  0  4.040647  0  0.019693  0  -0.095898  -0.134442  0  4.004282  0
C  C114  1  0.82241283  0.92906063  0.81795735  1  0  -0.076276  0  3.768649  0  0  -0.09941  0  4.017761  0  0  -0.099726  0  4.038751  0  -0.069558  0  -0.09116  -0.099079  0  4.003636  0
C  C115  1  0.07048100  0.17754310  0.68149087  1  0  -0.077006  0  3.771009  0  0  -0.100351  0  4.020291  0  0  -0.100676  0  4.041316  0  -0.049222  0  -0.091476  -0.100015  0  4.006134  0
C  C116  1  0.17759558  0.07095638  0.18204060  1  0  -0.076202  0  3.76847  0  0  -0.09936  0  4.017587  0  0  -0.099648  0  4.038599  0  -0.069508  0  -0.091204  -0.09903  0  4.003467  0
C  C117  1  0.92950779  0.82245800  0.31851101  1  0  -0.077041  0  3.77109  0  0  -0.100331  0  4.020388  0  0  -0.100657  0  4.041418  0  -0.049288  0  -0.091386  -0.099993  0  4.006221  0
C  C118  1  0.93993683  0.97677093  0.87465859  1  0  -0.112886  0  3.735454  0  0  -0.133185  0  3.98516  0  0  -0.136686  0  4.006131  0  -0.078871  0  -0.092842  -0.130755  0  3.971051  0
C  C119  1  0.02355908  0.06053607  0.62517314  1  0  -0.11217  0  3.73441  0  0  -0.132216  0  3.984408  0  0  -0.135719  0  4.005396  0  -0.079161  0  -0.092555  -0.129787  0  3.9703  0
C  C120  1  0.06007071  0.02323813  0.12533832  1  0  -0.112825  0  3.735408  0  0  -0.133242  0  3.985106  0  0  -0.136751  0  4.006065  0  -0.078763  0  -0.092876  -0.130821  0  3.970991  0
C  C121  1  0.97642542  0.93945807  0.37482827  1  0  -0.112284  0  3.734366  0  0  -0.132313  0  3.984351  0  0  -0.135817  0  4.005341  0  -0.078788  0  -0.092584  -0.129865  0  3.970253  0
C  C122  1  0.93812128  0.97253081  0.96941721  1  0  0.056624  0  3.769151  0  0  0.071334  0  3.998843  0  0  0.072605  0  4.022042  0  -0.058761  0  -0.007294  0.070311  0  3.984351  0
C  C123  1  0.02701469  0.06170946  0.53031259  1  0  0.055999  0  3.767841  0  0  0.070546  0  3.998181  0  0  0.07184  0  4.021332  0  -0.066646  0  -0.007166  0.0695  0  3.983826  0
C  C124  1  0.06188856  0.02747128  0.03058018  1  0  0.056526  0  3.769216  0  0  0.071423  0  3.998788  0  0  0.072727  0  4.02195  0  -0.023525  0  -0.007178  0.070397  0  3.984301  0
C  C125  1  0.97296869  0.93827871  0.46968853  1  0  0.05646  0  3.767963  0  0  0.070743  0  3.998541  0  0  0.072035  0  4.021697  0  -0.030423  0  -0.00703  0.0697  0  3.98418  0
N  N126  1  0.33768896  0.96599661  0.74747827  1  0  -0.333561  0  3.232042  0  0  -0.267334  0  3.494524  0  0  -0.285111  0  3.512379  0  -1.23313  0  -0.312121  -0.255273  0  3.482167  0
N  N127  1  0.03149605  0.66116638  0.75217060  1  0  -0.335628  0  3.236108  0  0  -0.269126  0  3.498922  0  0  -0.287049  0  3.516692  0  -1.221351  0  -0.313789  -0.256971  0  3.486649  0
N  N128  1  0.66230658  0.03399952  0.25251693  1  0  -0.333607  0  3.232324  0  0  -0.267389  0  3.494839  0  0  -0.285166  0  3.512694  0  -1.232582  0  -0.312178  -0.255327  0  3.482481  0
N  N129  1  0.96849983  0.33883074  0.24782736  1  0  -0.335691  0  3.236579  0  0  -0.269084  0  3.499423  0  0  -0.287008  0  3.517195  0  -1.221364  0  -0.3138  -0.256927  0  3.487131  0
N  N130  1  0.26339186  0.79510306  0.59242106  1  0  -0.334184  0  3.20195  0  0  -0.271011  0  3.466081  0  0  -0.288609  0  3.483596  0  -1.207615  0  -0.312437  -0.258764  0  3.453799  0
N  N131  1  0.20364227  0.73619980  0.90713106  1  0  -0.334911  0  3.200482  0  0  -0.272901  0  3.464326  0  0  -0.290324  0  3.481832  0  -1.252203  0  -0.312063  -0.260792  0  3.452088  0
N  N132  1  0.73660616  0.20489207  0.40757556  1  0  -0.334071  0  3.202482  0  0  -0.271011  0  3.466573  0  0  -0.288609  0  3.484105  0  -1.207853  0  -0.31241  -0.258764  0  3.454287  0
N  N133  1  0.79636379  0.26379135  0.09286032  1  0  -0.334776  0  3.200377  0  0  -0.272797  0  3.46425  0  0  -0.29022  0  3.481762  0  -1.251775  0  -0.312097  -0.260687  0  3.452008  0
O  O134  1  0.46692823  0.75235681  0.83073827  1  0  -0.660087  0  2.022947  0  0  -0.589798  0  2.271749  0  0  -0.619726  0  2.259876  0  -1.166243  0  -0.350925  -0.568562  0  2.278932  0
O  O135  1  0.24304127  0.53123713  0.66756865  1  0  -0.66121  0  2.022194  0  0  -0.59084  0  2.270637  0  0  -0.620816  0  2.258933  0  -1.171793  0  -0.351327  -0.569548  0  2.277691  0
O  O136  1  0.53307837  0.24765225  0.16925186  1  0  -0.660099  0  2.022783  0  0  -0.589779  0  2.27156  0  0  -0.619712  0  2.259692  0  -1.165933  0  -0.350922  -0.568532  0  2.278734  0
O  O137  1  0.75695496  0.46876099  0.33243678  1  0  -0.661079  0  2.022411  0  0  -0.590728  0  2.270822  0  0  -0.620713  0  2.259136  0  -1.171565  0  -0.351273  -0.569436  0  2.277876  0
O  O138  1  0.57216919  0.85241827  0.71199376  1  0  -0.630644  0  1.927574  0  0  -0.58952  0  2.152607  0  0  -0.612463  0  2.143983  0  -1.188847  0  -0.337831  -0.57316  0  2.157644  0
O  O139  1  0.14527191  0.42584469  0.78693675  1  0  -0.631311  0  1.924533  0  0  -0.590118  0  2.149254  0  0  -0.613019  0  2.140589  0  -1.190281  0  -0.338704  -0.573822  0  2.154393  0
O  O140  1  0.42784393  0.14759874  0.28799562  1  0  -0.630358  0  1.928089  0  0  -0.589268  0  2.153172  0  0  -0.612184  0  2.144509  0  -1.189237  0  -0.337622  -0.572906  0  2.158198  0
O  O141  1  0.85474939  0.57415243  0.21306698  1  0  -0.631139  0  1.924665  0  0  -0.589976  0  2.149333  0  0  -0.612876  0  2.140668  0  -1.189818  0  -0.33869  -0.573681  0  2.154471  0
