# generated using pymatgen
data_MnH12C12(NO3)2
_symmetry_space_group_name_H-M   'P 1'
_cell_length_a   7.03455795
_cell_length_b   8.46055412
_cell_length_c   9.95613685
_cell_angle_alpha   89.74871500
_cell_angle_beta   91.34602765
_cell_angle_gamma   99.13225483
_symmetry_Int_Tables_number   1
_chemical_formula_structural   MnH12C12(NO3)2
_chemical_formula_sum   'Mn2 H24 C24 N4 O12'
_cell_volume   584.87962169
_cell_formula_units_Z   2
loop_
 _symmetry_equiv_pos_site_id
 _symmetry_equiv_pos_as_xyz
  1  'x, y, z'
loop_
 _atom_site_type_symbol
 _atom_site_label
 _atom_site_symmetry_multiplicity
 _atom_site_fract_x
 _atom_site_fract_y
 _atom_site_fract_z
 _atom_site_occupancy
 _atom_site_hle17_ddec_charge
 _atom_site_hle17_ddec_spin_density
 _atom_site_hle17_ddec_sum_bond_order
 _atom_site_hle17_magmom
 _atom_site_hse06_10hf_ddec_charge
 _atom_site_hse06_10hf_ddec_spin_density
 _atom_site_hse06_10hf_ddec_sum_bond_order
 _atom_site_hse06_10hf_magmom
 _atom_site_hse06_ddec_charge
 _atom_site_hse06_ddec_spin_density
 _atom_site_hse06_ddec_sum_bond_order
 _atom_site_hse06_magmom
 _atom_site_pbe_cm5_charge
 _atom_site_pbe_ddec_charge
 _atom_site_pbe_ddec_spin_density
 _atom_site_pbe_ddec_sum_bond_order
 _atom_site_pbe_magmom
Mn  Mn0  1  0.99999649  0.49999725  0.99999643  1  1.171167  -4.819594  1.830923  -4.676  1.015054  -4.7035  2.333144  -4.524  1.065748  -4.776232  2.266129  -4.591  0.611374  0.975459  -4.641259  2.383874  -4.455
Mn  Mn1  1  0.49999805  0.49999915  0.50000103  1  0.898478  -1.213217  2.642784  -1.204  0.833593  -1.15559  3.165425  -1.124  0.863921  -1.047206  3.109709  -1.034  0.657781  0.813159  -1.212424  3.198146  -1.173
H  H2  1  0.20764150  0.28058573  0.11707969  1  0.415909  -9e-05  0.890068  -0.001  0.385389  -0.000757  0.954165  -0.002  0.395493  -0.000496  0.93957  -0.002  0.290599  0.378009  -0.00108  0.964803  -0.002
H  H3  1  0.28172589  0.68904945  0.61984212  1  0.412769  -0.000838  0.883314  -0.002  0.385618  -7.1e-05  0.952073  -0.001  0.394151  -0.000158  0.939921  -0.001  0.299032  0.379388  0.00017  0.96085  0.0
H  H4  1  0.79235792  0.71941494  0.88292240  1  0.415904  -9e-05  0.890058  -0.001  0.385402  -0.000756  0.954123  -0.002  0.395503  -0.000496  0.939534  -0.002  0.290625  0.378022  -0.00108  0.964758  -0.002
H  H5  1  0.71827709  0.31094760  0.38016202  1  0.412716  -0.000838  0.883348  -0.002  0.385584  -7e-05  0.952092  -0.001  0.394114  -0.000158  0.939939  -0.001  0.299052  0.379354  0.00017  0.960868  0.0
H  H6  1  0.03774851  0.29745538  0.22053473  1  0.421014  -0.00018  0.890943  -0.001  0.387259  -0.000843  0.958883  -0.002  0.399481  -0.00058  0.941252  -0.002  0.285784  0.378129  -0.001142  0.971923  -0.002
H  H7  1  0.46486122  0.68792977  0.72043097  1  0.417143  0.000322  0.875294  0.0  0.386562  -0.000234  0.949933  -0.001  0.396202  -0.000356  0.93603  -0.001  0.294526  0.378567  -0.000141  0.961507  -0.001
H  H8  1  0.96225187  0.70254289  0.77946938  1  0.42098  -0.00018  0.890996  -0.001  0.387226  -0.000842  0.958933  -0.002  0.399435  -0.00058  0.941314  -0.002  0.285803  0.378091  -0.001142  0.971979  -0.002
H  H9  1  0.53513805  0.31206970  0.27957715  1  0.417038  0.000323  0.875474  0.0  0.386505  -0.000234  0.950013  -0.001  0.396153  -0.000356  0.936098  -0.001  0.294517  0.378508  -0.000141  0.961592  -0.001
H  H10  1  0.37595073  0.50793743  0.20489317  1  0.087598  -0.000287  0.972495  -0.001  0.090095  0.000183  1.046708  0.0  0.094528  0.000219  1.040405  0.0  0.123808  0.086857  0.000178  1.051152  0.0
H  H11  1  0.15039788  0.48006267  0.71079594  1  0.081692  -0.000228  0.980222  -0.001  0.084425  -0.00051  1.055216  -0.001  0.089187  -0.000499  1.049449  -0.001  0.12178  0.080822  -0.000594  1.059176  -0.001
H  H12  1  0.62404374  0.49205968  0.79511089  1  0.087693  -0.000289  0.972443  -0.001  0.090073  0.000183  1.046749  0.0  0.094502  0.00022  1.040449  0.0  0.123762  0.086836  0.000178  1.051191  0.0
H  H13  1  0.84960805  0.51993556  0.28920019  1  0.081662  -0.000227  0.980283  -0.001  0.084383  -0.00051  1.05529  -0.001  0.089145  -0.0005  1.049521  -0.001  0.12177  0.080782  -0.000594  1.059245  -0.001
H  H14  1  0.72138809  0.04842368  0.29923640  1  0.113911  0.00062  0.963195  0.001  0.122526  0.000314  1.023433  0.0  0.126293  0.000381  1.022461  0.0  0.107399  0.120304  0.000214  1.023164  0.0
H  H15  1  0.74990821  0.95258541  0.75898119  1  0.118049  -0.000162  0.959114  0.0  0.126455  -0.000396  1.017603  0.0  0.130688  -0.000311  1.015874  0.0  0.109218  0.123351  -0.000652  1.018817  0.0
H  H16  1  0.27861382  0.95157577  0.70075969  1  0.113974  0.00062  0.963198  0.001  0.122599  0.000314  1.023419  0.0  0.126352  0.000381  1.022464  0.0  0.107398  0.120373  0.000214  1.023159  0.0
H  H17  1  0.25009114  0.04741526  0.24101689  1  0.118031  -0.000162  0.959091  0.0  0.126468  -0.000396  1.017559  0.0  0.130705  -0.000311  1.015818  0.0  0.109214  0.123368  -0.000652  1.018761  0.0
H  H18  1  0.65218149  0.96398413  0.05777092  1  0.095661  -0.000227  0.95346  -0.001  0.10568  0.000588  1.019199  0.0  0.108932  0.000251  1.014733  0.0  0.107236  0.104301  0.000504  1.020297  0.0
H  H19  1  0.84437165  0.05268577  0.52608656  1  0.091306  -8.8e-05  0.965119  0.0  0.101335  8.2e-05  1.032724  0.0  0.104042  2e-05  1.029929  0.0  0.106471  0.099184  0.000158  1.034771  0.0
H  H20  1  0.34781004  0.03601300  0.94222710  1  0.095663  -0.000228  0.953459  -0.001  0.105687  0.000588  1.019178  0.0  0.10894  0.000251  1.014714  0.0  0.107235  0.104308  0.000504  1.020282  0.0
H  H21  1  0.15562365  0.94731613  0.47390947  1  0.091295  -8.8e-05  0.96519  0.0  0.101262  8.3e-05  1.032861  0.0  0.103966  2.1e-05  1.030078  0.0  0.106471  0.09915  0.000158  1.034863  0.0
H  H22  1  0.62104304  0.84902568  0.48093865  1  0.081935  9.1e-05  0.959957  -0.001  0.090011  0.001099  1.02445  0.0  0.093667  0.000557  1.01873  0.0  0.117662  0.088698  0.001029  1.025749  0.0
H  H23  1  0.86156749  0.13287977  0.95506340  1  0.076213  -0.00013  0.95189  -0.001  0.085366  -0.000164  1.015882  0.0  0.088355  -8.8e-05  1.012161  0.0  0.116023  0.082783  -0.000199  1.019169  -0.001
H  H24  1  0.37894955  0.15097624  0.51906539  1  0.081924  9e-05  0.960002  -0.001  0.089979  0.001099  1.024514  0.0  0.093636  0.000558  1.018791  0.0  0.117654  0.088655  0.001029  1.025835  0.0
H  H25  1  0.13844793  0.86711598  0.04493482  1  0.07631  -0.00013  0.951805  -0.001  0.085317  -0.000163  1.015938  0.0  0.08829  -8.8e-05  1.01225  0.0  0.116042  0.08277  -0.000199  1.019185  -0.001
C  C26  1  0.45565723  0.62723642  0.22213741  1  0.127129  0.024291  3.616098  0.016  0.084304  0.009748  3.874505  0.005  0.097399  0.005874  3.886957  0.003  0.056913  0.077799  0.007946  3.864793  0.004
C  C27  1  0.06075098  0.36340533  0.71617995  1  0.139702  0.004053  3.667222  0.003  0.095243  -0.002734  3.924477  -0.002  0.10552  -0.00288  3.937304  -0.002  0.060102  0.088109  -0.004302  3.916119  -0.003
C  C28  1  0.54433792  0.37276428  0.77786465  1  0.126996  0.024303  3.616379  0.016  0.084318  0.009751  3.874694  0.005  0.097416  0.005873  3.887143  0.003  0.056909  0.077803  0.00795  3.864986  0.004
C  C29  1  0.93925639  0.63659288  0.28381719  1  0.139763  0.004052  3.667353  0.003  0.095317  -0.002734  3.924513  -0.002  0.105594  -0.002878  3.937336  -0.002  0.060129  0.088183  -0.004301  3.916149  -0.003
C  C30  1  0.64699083  0.92920319  0.27376915  1  -0.119006  -0.014412  3.746103  -0.014  -0.13015  -0.002142  4.004009  -0.003  -0.139381  -0.00157  4.022923  -0.002  -0.086518  -0.123798  -0.001448  3.989475  -0.003
C  C31  1  0.83824872  0.06848259  0.74308466  1  -0.117168  -0.004481  3.732639  -0.004  -0.127264  -0.00074  3.989266  -0.001  -0.135477  6.9e-05  4.008864  0.0  -0.084042  -0.12244  -0.001311  3.977319  -0.002
C  C32  1  0.35300289  0.07079753  0.72623189  1  -0.119212  -0.01442  3.746272  -0.014  -0.130369  -0.002144  4.004178  -0.003  -0.139587  -0.001571  4.023093  -0.002  -0.086553  -0.124018  -0.001449  3.989655  -0.003
C  C33  1  0.16175462  0.93151685  0.25691144  1  -0.117178  -0.004481  3.732556  -0.004  -0.127299  -0.00074  3.98913  -0.001  -0.13551  6.9e-05  4.008721  0.0  -0.084031  -0.122476  -0.001312  3.977208  -0.002
C  C34  1  0.44530945  0.68002256  0.97285650  1  0.675839  -0.005674  3.880082  -0.006  0.616262  -0.010228  4.181485  -0.01  0.650699  -0.007539  4.175264  -0.008  0.223593  0.591875  -0.01306  4.185759  -0.013
C  C35  1  0.07270598  0.32725243  0.46510476  1  0.647279  0.017052  3.850336  0.01  0.590185  0.01584  4.152776  0.009  0.629646  0.007276  4.143433  0.003  0.219662  0.561614  0.020444  4.160295  0.012
C  C36  1  0.55468614  0.31998053  0.02714254  1  0.675848  -0.005673  3.880069  -0.006  0.616214  -0.010228  4.181556  -0.01  0.650661  -0.007539  4.175328  -0.008  0.22361  0.591828  -0.013062  4.185834  -0.013
C  C37  1  0.92730164  0.67274698  0.53489338  1  0.6472  0.017052  3.850302  0.01  0.590037  0.015839  4.152793  0.009  0.629495  0.007277  4.143455  0.003  0.219661  0.561467  0.020441  4.160306  0.012
C  C38  1  0.60836772  0.88316272  0.14063432  1  -0.014029  0.036779  3.695643  0.024  -0.050584  0.017582  3.954982  0.01  -0.039498  0.008498  3.967056  0.005  -0.07059  -0.057432  0.019545  3.944889  0.011
C  C39  1  0.89028037  0.12349351  0.61540099  1  -0.011976  0.007663  3.691173  0.005  -0.047627  -0.000434  3.947841  0.0  -0.039431  -0.001819  3.961272  -0.001  -0.067592  -0.05465  0.000899  3.940212  0.0
C  C40  1  0.39162810  0.11683438  0.85936574  1  -0.014005  0.0368  3.695694  0.024  -0.050558  0.017591  3.955047  0.01  -0.03947  0.008502  3.967111  0.005  -0.070629  -0.05742  0.019557  3.944962  0.011
C  C41  1  0.10972154  0.87650594  0.38459510  1  -0.011895  0.007663  3.69116  0.005  -0.047527  -0.000433  3.947841  0.0  -0.03933  -0.001818  3.961265  -0.001  -0.067541  -0.054577  0.000901  3.94019  0.0
C  C42  1  0.50462321  0.73089342  0.11430443  1  -0.124325  -0.01009  3.754087  -0.011  -0.0988  -0.000519  3.995512  -0.002  -0.112279  -0.000738  4.017255  -0.002  -0.013061  -0.08996  -0.000186  3.980239  -0.002
C  C43  1  0.00957788  0.27155777  0.60102640  1  -0.124751  -0.00454  3.773462  -0.006  -0.09871  -0.00102  4.013657  -0.003  -0.109199  -0.001014  4.031276  -0.002  -0.016204  -0.092404  -0.000202  4.003708  -0.002
C  C44  1  0.49537284  0.26910488  0.88569462  1  -0.12422  -0.010097  3.754107  -0.011  -0.098715  -0.00052  3.995508  -0.002  -0.112191  -0.000738  4.017245  -0.002  -0.012998  -0.089857  -0.000186  3.980212  -0.002
C  C45  1  0.99042902  0.72843805  0.39897175  1  -0.124809  -0.00454  3.773363  -0.006  -0.098676  -0.00102  4.013441  -0.003  -0.109162  -0.001015  4.031056  -0.002  -0.016274  -0.092376  -0.000203  4.003504  -0.002
C  C46  1  0.59400570  0.81912987  0.37539230  1  0.104828  0.031408  3.691738  0.02  0.07306  0.013098  3.946917  0.006  0.084717  0.006616  3.96031  0.003  0.038806  0.064559  0.015047  3.937795  0.008
C  C47  1  0.89708720  0.16814053  0.85213205  1  0.131901  0.008536  3.700688  0.005  0.09736  -0.000471  3.955213  -0.001  0.106851  -0.002388  3.971412  -0.002  0.04877  0.090012  0.003255  3.946131  0.001
C  C48  1  0.40598232  0.18087088  0.62460769  1  0.104955  0.031427  3.691681  0.02  0.073207  0.013105  3.946842  0.006  0.084868  0.006618  3.960223  0.003  0.038848  0.064732  0.015056  3.937676  0.008
C  C49  1  0.10292157  0.83185767  0.14786410  1  0.131939  0.008539  3.700538  0.005  0.097523  -0.000469  3.955089  -0.001  0.107015  -0.002386  3.971286  -0.002  0.048781  0.090146  0.003257  3.946  0.001
N  N50  1  0.50767992  0.66619648  0.35097831  1  -0.284625  0.014344  3.308784  0.011  -0.226366  0.01463  3.587643  0.014  -0.245599  0.009244  3.604938  0.008  -0.342695  -0.213059  0.017812  3.574269  0.018
N  N51  1  0.00082722  0.31527784  0.83841574  1  -0.33483  -0.030199  3.241863  -0.018  -0.265352  -0.031146  3.519927  -0.015  -0.283659  -0.028017  3.532907  -0.013  -0.322993  -0.252598  -0.033984  3.511906  -0.018
N  N52  1  0.49231026  0.33380786  0.64902269  1  -0.284626  0.014345  3.308753  0.011  -0.226376  0.014634  3.587564  0.014  -0.24561  0.009247  3.60486  0.008  -0.342653  -0.213072  0.017819  3.574201  0.018
N  N53  1  0.99917967  0.68471798  0.16158141  1  -0.334933  -0.030199  3.241897  -0.018  -0.265471  -0.031146  3.519921  -0.015  -0.283776  -0.028017  3.532893  -0.013  -0.322979  -0.252716  -0.033983  3.51191  -0.018
O  O54  1  0.29457087  0.57807331  0.95400859  1  -0.646747  -0.031026  2.080376  -0.017  -0.579852  -0.03737  2.357397  -0.02  -0.609139  -0.034378  2.344614  -0.017  -0.307416  -0.558293  -0.041524  2.366452  -0.024
O  O55  1  0.23487362  0.41569890  0.44600692  1  -0.571393  -0.00852  2.188838  -0.005  -0.520207  -0.020606  2.47878  -0.018  -0.554907  -0.013665  2.470458  -0.01  -0.301993  -0.495932  -0.022801  2.483455  -0.02
O  O56  1  0.70542259  0.42193340  0.04598943  1  -0.646864  -0.031031  2.080487  -0.017  -0.579933  -0.037374  2.357516  -0.02  -0.609221  -0.034382  2.344727  -0.017  -0.307493  -0.558344  -0.041526  2.366498  -0.024
O  O57  1  0.76513070  0.58429813  0.55399221  1  -0.571399  -0.00852  2.188698  -0.005  -0.520165  -0.020606  2.478622  -0.018  -0.554871  -0.013666  2.470309  -0.01  -0.302023  -0.495888  -0.0228  2.483292  -0.02
O  O58  1  0.55026525  0.74319723  0.87724653  1  -0.649601  -0.003789  1.994992  -0.005  -0.57922  -0.006897  2.211344  -0.008  -0.605575  -0.005263  2.202244  -0.006  -0.309363  -0.560733  -0.009149  2.217982  -0.01
O  O59  1  0.95460631  0.28025820  0.36788209  1  -0.635462  0.00974  2.030041  0.008  -0.569025  0.008319  2.249441  0.006  -0.595688  0.004988  2.239168  0.003  -0.305287  -0.550014  0.010148  2.255972  0.008
O  O60  1  0.44972801  0.25680828  0.12275449  1  -0.6496  -0.00379  1.995035  -0.005  -0.579201  -0.006899  2.211383  -0.008  -0.605579  -0.005264  2.20229  -0.006  -0.309336  -0.560719  -0.009151  2.218025  -0.01
O  O61  1  0.04539450  0.71974246  0.63211800  1  -0.635457  0.009742  2.030083  0.008  -0.569025  0.008319  2.249532  0.006  -0.595688  0.004989  2.239256  0.003  -0.3053  -0.55001  0.010148  2.256064  0.008
O  O62  1  0.07489516  0.30536793  0.12321040  1  -0.853246  -0.032417  1.914314  -0.021  -0.795672  -0.041297  2.133694  -0.026  -0.82015  -0.037378  2.098334  -0.022  -0.57968  -0.776525  -0.044905  2.158581  -0.029
O  O63  1  0.41911213  0.67280388  0.62374834  1  -0.787511  0.008867  2.02935  0.012  -0.74261  0.006631  2.26837  0.008  -0.770687  0.006858  2.239083  0.008  -0.554521  -0.720827  0.00616  2.286025  0.008
O  O64  1  0.92511380  0.69464465  0.87679375  1  -0.853218  -0.032414  1.914334  -0.02  -0.795641  -0.041295  2.133703  -0.026  -0.82008  -0.037375  2.098334  -0.022  -0.579728  -0.776501  -0.044902  2.158617  -0.029
O  O65  1  0.58089088  0.32719316  0.37625781  1  -0.787328  0.008868  2.02949  0.012  -0.742491  0.006631  2.268489  0.008  -0.770565  0.006857  2.239207  0.008  -0.554528  -0.720712  0.00616  2.286153  0.008
