# generated using pymatgen
data_BiH10C5S2I2N
_symmetry_space_group_name_H-M   'P 1'
_cell_length_a   8.13668519
_cell_length_b   10.38079223
_cell_length_c   14.75442245
_cell_angle_alpha   90.00005346
_cell_angle_beta   90.00029228
_cell_angle_gamma   90.95541109
_symmetry_Int_Tables_number   1
_chemical_formula_structural   BiH10C5S2I2N
_chemical_formula_sum   'Bi4 H40 C20 S8 I8 N4'
_cell_volume   1246.06255146
_cell_formula_units_Z   4
loop_
 _symmetry_equiv_pos_site_id
 _symmetry_equiv_pos_as_xyz
  1  'x, y, z'
loop_
 _atom_site_type_symbol
 _atom_site_label
 _atom_site_symmetry_multiplicity
 _atom_site_fract_x
 _atom_site_fract_y
 _atom_site_fract_z
 _atom_site_occupancy
 _atom_site_hle17_bader_spin_density
 _atom_site_hle17_ddec_charge
 _atom_site_hle17_ddec_spin_density
 _atom_site_hle17_ddec_sum_bond_order
 _atom_site_hle17_magmom
 _atom_site_hse06_10hf_bader_spin_density
 _atom_site_hse06_10hf_ddec_charge
 _atom_site_hse06_10hf_ddec_spin_density
 _atom_site_hse06_10hf_ddec_sum_bond_order
 _atom_site_hse06_10hf_magmom
 _atom_site_hse06_bader_spin_density
 _atom_site_hse06_ddec_charge
 _atom_site_hse06_ddec_spin_density
 _atom_site_hse06_ddec_sum_bond_order
 _atom_site_hse06_magmom
 _atom_site_pbe_bader_spin_density
 _atom_site_pbe_cm5_charge
 _atom_site_pbe_ddec_charge
 _atom_site_pbe_ddec_spin_density
 _atom_site_pbe_ddec_sum_bond_order
 _atom_site_pbe_magmom
Bi  Bi0  1  0.77795349  0.21906894  0.21091421  1  0  0.824481  0  2.670272  0  0  0.686277  0  3.165604  0  0  0.741301  0  3.140121  0  0  0.393515  0.648892  0  3.181978  0
Bi  Bi1  1  0.72205179  0.78092745  0.71091491  1  0  0.824496  0  2.67024  0  0  0.686291  0  3.165567  0  0  0.741312  0  3.140088  0  0  0.393522  0.648914  0  3.181923  0
Bi  Bi2  1  0.22204256  0.78092795  0.78908670  1  0  0.82451  0  2.670233  0  0  0.686307  0  3.165567  0  0  0.741332  0  3.140084  0  0  0.393522  0.648917  0  3.181946  0
Bi  Bi3  1  0.27795655  0.21906944  0.28908464  1  0  0.824491  0  2.670246  0  0  0.686288  0  3.165574  0  0  0.741313  0  3.140094  0  0  0.393515  0.648909  0  3.181938  0
H  H4  1  0.18680395  0.31762822  0.02686892  1  0  0.093986  0  0.992048  0  0  0.108622  0  1.067425  0  0  0.110268  0  1.06751  0  0  0.066269  0.107248  0  1.067498  0
H  H5  1  0.31319775  0.68237362  0.52686982  1  0  0.093968  0  0.992075  0  0  0.108595  0  1.067462  0  0  0.110244  0  1.067546  0  0  0.066243  0.107224  0  1.067538  0
H  H6  1  0.81320201  0.68237253  0.97313130  1  0  0.093939  0  0.992108  0  0  0.108558  0  1.067499  0  0  0.110202  0  1.067587  0  0  0.066229  0.107187  0  1.067571  0
H  H7  1  0.68680226  0.31763676  0.47313041  1  0  0.093878  0  0.99217  0  0  0.108508  0  1.067569  0  0  0.110156  0  1.067655  0  0  0.066221  0.107136  0  1.067639  0
H  H8  1  0.19247945  0.36577952  0.91126751  1  0  0.094974  0  0.972723  0  0  0.112108  0  1.043965  0  0  0.113727  0  1.043551  0  0  0.074456  0.110696  0  1.044701  0
H  H9  1  0.30752080  0.63421901  0.41126852  1  0  0.094969  0  0.97274  0  0  0.112106  0  1.043977  0  0  0.113723  0  1.043567  0  0  0.074458  0.110696  0  1.044709  0
H  H10  1  0.80752399  0.63421833  0.08873339  1  0  0.094956  0  0.972736  0  0  0.112089  0  1.043984  0  0  0.113704  0  1.043575  0  0  0.074431  0.110677  0  1.044721  0
H  H11  1  0.69248157  0.36578655  0.58873238  1  0  0.095001  0  0.972673  0  0  0.11209  0  1.043983  0  0  0.113719  0  1.043565  0  0  0.074441  0.110679  0  1.044713  0
H  H12  1  0.06746687  0.23205605  0.94537435  1  0  0.10513  0  0.976152  0  0  0.122877  0  1.045682  0  0  0.124636  0  1.045427  0  0  0.074119  0.121275  0  1.04645  0
H  H13  1  0.43253133  0.76794735  0.44537377  1  0  0.105144  0  0.976122  0  0  0.122897  0  1.045648  0  0  0.124652  0  1.045399  0  0  0.074128  0.121301  0  1.046407  0
H  H14  1  0.93253421  0.76794662  0.05462859  1  0  0.105187  0  0.976  0  0  0.122931  0  1.045531  0  0  0.124686  0  1.045283  0  0  0.074155  0.121334  0  1.046291  0
H  H15  1  0.56746622  0.23206303  0.55462645  1  0  0.105072  0  0.97618  0  0  0.122853  0  1.045678  0  0  0.124594  0  1.04545  0  0  0.074109  0.121254  0  1.046441  0
H  H16  1  0.76279181  0.22686041  0.84707193  1  0  0.102652  0  0.970533  0  0  0.120777  0  1.037871  0  0  0.122526  0  1.037653  0  0  0.073099  0.119026  0  1.038697  0
H  H17  1  0.73721119  0.77314388  0.34707012  1  0  0.102695  0  0.970539  0  0  0.12077  0  1.037914  0  0  0.122515  0  1.037703  0  0  0.073105  0.11902  0  1.038738  0
H  H18  1  0.23721426  0.77314612  0.15292830  1  0  0.102655  0  0.970605  0  0  0.120775  0  1.037928  0  0  0.122522  0  1.037716  0  0  0.073111  0.119026  0  1.038753  0
H  H19  1  0.26278733  0.22685397  0.65292875  1  0  0.10269  0  0.970566  0  0  0.120791  0  1.037907  0  0  0.122539  0  1.037692  0  0  0.073117  0.119043  0  1.038728  0
H  H20  1  0.58361039  0.17730965  0.78586153  1  0  0.096616  0  0.980912  0  0  0.112259  0  1.054894  0  0  0.114142  0  1.054486  0  0  0.071317  0.110511  0  1.055591  0
H  H21  1  0.91639312  0.82268684  0.28586230  1  0  0.09662  0  0.980895  0  0  0.112224  0  1.054916  0  0  0.114102  0  1.05451  0  0  0.071289  0.110475  0  1.055617  0
H  H22  1  0.41639929  0.82269302  0.21413666  1  0  0.09658  0  0.980909  0  0  0.11223  0  1.05488  0  0  0.114101  0  1.054481  0  0  0.071277  0.110482  0  1.055579  0
H  H23  1  0.08360412  0.17730812  0.71413589  1  0  0.096613  0  0.980888  0  0  0.112224  0  1.05489  0  0  0.114101  0  1.054484  0  0  0.07129  0.110476  0  1.055589  0
H  H24  1  0.68613776  0.32472180  0.75799483  1  0  0.102076  0  0.969128  0  0  0.124602  0  1.031263  0  0  0.125941  0  1.031486  0  0  0.077791  0.123424  0  1.031405  0
H  H25  1  0.81386565  0.67528236  0.25799250  1  0  0.10208  0  0.969148  0  0  0.124596  0  1.031294  0  0  0.125936  0  1.031513  0  0  0.077777  0.123419  0  1.031436  0
H  H26  1  0.31386336  0.67528279  0.24200743  1  0  0.102122  0  0.969104  0  0  0.124633  0  1.031272  0  0  0.125974  0  1.031492  0  0  0.077803  0.123455  0  1.031415  0
H  H27  1  0.18613531  0.32471453  0.74200637  1  0  0.102069  0  0.969081  0  0  0.1246  0  1.031229  0  0  0.12594  0  1.031449  0  0  0.077789  0.123425  0  1.031371  0
H  H28  1  0.32410572  0.15184220  0.87110611  1  0  0.066503  0  0.927398  0  0  0.08391  0  0.991526  0  0  0.084114  0  0.992079  0  0  0.099958  0.083715  0  0.991134  0
H  H29  1  0.17588918  0.84815338  0.37110350  1  0  0.0665  0  0.927399  0  0  0.083897  0  0.991514  0  0  0.084101  0  0.992067  0  0  0.099965  0.08371  0  0.99112  0
H  H30  1  0.67589151  0.84815276  0.12889615  1  0  0.06651  0  0.927362  0  0  0.083922  0  0.991486  0  0  0.084124  0  0.992042  0  0  0.099969  0.083733  0  0.991094  0
H  H31  1  0.82410696  0.15184832  0.62889266  1  0  0.066544  0  0.927445  0  0  0.083945  0  0.991558  0  0  0.084145  0  0.992114  0  0  0.099984  0.083757  0  0.991168  0
H  H32  1  0.31514115  0.10591080  0.98646742  1  0  0.071499  0  0.961623  0  0  0.083612  0  1.033357  0  0  0.085065  0  1.032172  0  0  0.089461  0.082427  0  1.034444  0
H  H33  1  0.18485242  0.89408783  0.48646555  1  0  0.071466  0  0.961625  0  0  0.083575  0  1.033333  0  0  0.085028  0  1.032147  0  0  0.089436  0.082395  0  1.034423  0
H  H34  1  0.68485614  0.89408705  0.01353484  1  0  0.071433  0  0.961631  0  0  0.083596  0  1.033311  0  0  0.085048  0  1.032129  0  0  0.089428  0.082418  0  1.034392  0
H  H35  1  0.81514016  0.10591965  0.51353129  1  0  0.071472  0  0.961652  0  0  0.083587  0  1.033361  0  0  0.085038  0  1.032179  0  0  0.089472  0.082411  0  1.034444  0
H  H36  1  0.43561590  0.37295032  0.84693122  1  0  0.061836  0  0.967339  0  0  0.077788  0  1.033811  0  0  0.078926  0  1.033077  0  0  0.09434  0.076755  0  1.034799  0
H  H37  1  0.06437993  0.62704138  0.34693289  1  0  0.061816  0  0.96735  0  0  0.077739  0  1.033829  0  0  0.078864  0  1.033118  0  0  0.094321  0.076707  0  1.03482  0
H  H38  1  0.56438133  0.62704465  0.15306833  1  0  0.061794  0  0.967346  0  0  0.077699  0  1.033842  0  0  0.078829  0  1.033136  0  0  0.09431  0.076669  0  1.034835  0
H  H39  1  0.93561976  0.37295359  0.65306869  1  0  0.061818  0  0.967324  0  0  0.077755  0  1.033806  0  0  0.07889  0  1.033089  0  0  0.094329  0.076726  0  1.034792  0
H  H40  1  0.61255379  0.41791789  0.90913114  1  0  0.070066  0  0.945396  0  0  0.084259  0  1.011566  0  0  0.085498  0  1.010467  0  0  0.094346  0.083335  0  1.012364  0
H  H41  1  0.88743617  0.58208166  0.40913031  1  0  0.070143  0  0.945374  0  0  0.084322  0  1.011535  0  0  0.085565  0  1.010432  0  0  0.094397  0.083403  0  1.01233  0
H  H42  1  0.38743986  0.58208188  0.09087045  1  0  0.070057  0  0.945392  0  0  0.08425  0  1.011545  0  0  0.085495  0  1.010447  0  0  0.094348  0.08333  0  1.012336  0
H  H43  1  0.11255871  0.41791812  0.59087195  1  0  0.07014  0  0.945402  0  0  0.084323  0  1.011563  0  0  0.085571  0  1.010462  0  0  0.094387  0.083402  0  1.012361  0
C  C44  1  0.57366106  0.23880387  0.03055444  1  0  0.238827  0  3.731817  0  0  0.207014  0  4.035111  0  0  0.231317  0  4.044419  0  0  0.134619  0.190605  0  4.028193  0
C  C45  1  0.92633762  0.76119130  0.53055571  1  0  0.238883  0  3.731798  0  0  0.207088  0  4.03514  0  0  0.231394  0  4.044445  0  0  0.134619  0.190673  0  4.028244  0
C  C46  1  0.42633982  0.76118917  0.96944443  1  0  0.238814  0  3.731967  0  0  0.207013  0  4.03529  0  0  0.231318  0  4.044596  0  0  0.134586  0.190608  0  4.028378  0
C  C47  1  0.07366588  0.23880945  0.46944113  1  0  0.23893  0  3.731462  0  0  0.20712  0  4.034831  0  0  0.231429  0  4.04413  0  0  0.13467  0.190712  0  4.027921  0
C  C48  1  0.32512865  0.18911252  0.94086419  1  0  0.042577  0  3.639554  0  0  -0.014418  0  3.897305  0  0  -0.009914  0  3.909426  0  0  -0.068443  -0.017244  0  3.888862  0
C  C49  1  0.17486817  0.81088508  0.44086427  1  0  0.042585  0  3.639725  0  0  -0.014294  0  3.897353  0  0  -0.009786  0  3.909472  0  0  -0.068425  -0.017138  0  3.888943  0
C  C50  1  0.67487107  0.81088340  0.05913672  1  0  0.042622  0  3.639521  0  0  -0.014385  0  3.897271  0  0  -0.009881  0  3.909395  0  0  -0.068436  -0.017223  0  3.88884  0
C  C51  1  0.82512555  0.18911855  0.55913393  1  0  0.042532  0  3.639734  0  0  -0.014416  0  3.897462  0  0  -0.009905  0  3.909589  0  0  -0.068479  -0.017258  0  3.889032  0
C  C52  1  0.18547578  0.28208880  0.95682669  1  0  -0.316091  0  3.704874  0  0  -0.390675  0  3.94727  0  0  -0.394206  0  3.956928  0  0  -0.260081  -0.387814  0  3.940726  0
C  C53  1  0.31452369  0.71791075  0.45682711  1  0  -0.316058  0  3.704965  0  0  -0.390672  0  3.947321  0  0  -0.394189  0  3.956966  0  0  -0.260056  -0.38781  0  3.940775  0
C  C54  1  0.81452766  0.71790905  0.04317421  1  0  -0.316068  0  3.70473  0  0  -0.390634  0  3.947139  0  0  -0.39414  0  3.956781  0  0  -0.260023  -0.387773  0  3.940597  0
C  C55  1  0.68547623  0.28209481  0.54317312  1  0  -0.315938  0  3.70497  0  0  -0.390519  0  3.947336  0  0  -0.394014  0  3.956944  0  0  -0.260001  -0.387662  0  3.940813  0
C  C56  1  0.54462076  0.33500505  0.88065142  1  0  0.039222  0  3.64492  0  0  -0.015384  0  3.897406  0  0  -0.010844  0  3.908713  0  0  -0.069745  -0.018371  0  3.889651  0
C  C57  1  0.95537624  0.66499061  0.38065219  1  0  0.039191  0  3.644943  0  0  -0.015316  0  3.897407  0  0  -0.010767  0  3.908692  0  0  -0.069762  -0.018304  0  3.889659  0
C  C58  1  0.45537900  0.66499280  0.11934949  1  0  0.039241  0  3.644963  0  0  -0.015271  0  3.897422  0  0  -0.010745  0  3.908732  0  0  -0.069761  -0.018267  0  3.889682  0
C  C59  1  0.04462475  0.33500724  0.61934804  1  0  0.039199  0  3.645008  0  0  -0.015332  0  3.897465  0  0  -0.010815  0  3.908799  0  0  -0.069786  -0.018328  0  3.889723  0
C  C60  1  0.65051498  0.26083284  0.81421248  1  0  -0.311255  0  3.690878  0  0  -0.384705  0  3.929396  0  0  -0.388165  0  3.938952  0  0  -0.257942  -0.382046  0  3.923185  0
C  C61  1  0.84948514  0.73916563  0.31421368  1  0  -0.311335  0  3.69094  0  0  -0.384705  0  3.929455  0  0  -0.388158  0  3.939013  0  0  -0.257923  -0.382045  0  3.923244  0
C  C62  1  0.34949101  0.73916984  0.18578775  1  0  -0.311289  0  3.690961  0  0  -0.384732  0  3.929456  0  0  -0.38817  0  3.939018  0  0  -0.257914  -0.382073  0  3.923247  0
C  C63  1  0.15051086  0.26082934  0.68578655  1  0  -0.311316  0  3.690873  0  0  -0.384709  0  3.929379  0  0  -0.38816  0  3.938952  0  0  -0.257934  -0.382052  0  3.923167  0
S  S64  1  0.51262112  0.13194123  0.11547666  1  0  -0.338405  0  2.213873  0  0  -0.299261  0  2.5559  0  0  -0.318276  0  2.55579  0  0  -0.124599  -0.286038  0  2.555366  0
S  S65  1  0.98737590  0.86805502  0.61547681  1  0  -0.338374  0  2.213939  0  0  -0.299207  0  2.555933  0  0  -0.318235  0  2.55585  0  0  -0.124575  -0.28598  0  2.555397  0
S  S66  1  0.48738103  0.86805374  0.88452222  1  0  -0.338407  0  2.213936  0  0  -0.299234  0  2.555908  0  0  -0.318274  0  2.555847  0  0  -0.124589  -0.286012  0  2.555376  0
S  S67  1  0.01262153  0.13194957  0.38452206  1  0  -0.338396  0  2.214084  0  0  -0.2992  0  2.556046  0  0  -0.318253  0  2.556008  0  0  -0.124567  -0.285985  0  2.555522  0
S  S68  1  0.75443965  0.32536597  0.04637100  1  0  -0.269268  0  2.127114  0  0  -0.239095  0  2.452573  0  0  -0.25367  0  2.451152  0  0  -0.103298  -0.228906  0  2.453382  0
S  S69  1  0.74555802  0.67463307  0.54637170  1  0  -0.269306  0  2.12723  0  0  -0.239126  0  2.452693  0  0  -0.253704  0  2.451273  0  0  -0.103303  -0.228928  0  2.453483  0
S  S70  1  0.24555883  0.67462996  0.95362923  1  0  -0.269294  0  2.127168  0  0  -0.23914  0  2.452661  0  0  -0.253715  0  2.451238  0  0  -0.103308  -0.228942  0  2.453451  0
S  S71  1  0.25443699  0.32537345  0.45362785  1  0  -0.269267  0  2.127209  0  0  -0.239092  0  2.452674  0  0  -0.253667  0  2.451251  0  0  -0.103289  -0.228898  0  2.453467  0
I  I72  1  0.06969112  0.43412217  0.20173298  1  0  -0.333474  0  1.208101  0  0  -0.286035  0  1.522929  0  0  -0.308439  0  1.510236  0  0  -0.092795  -0.270272  0  1.531986  0
I  I73  1  0.43030970  0.56587799  0.70173413  1  0  -0.333488  0  1.208118  0  0  -0.286044  0  1.522942  0  0  -0.308454  0  1.510252  0  0  -0.092796  -0.270284  0  1.532004  0
I  I74  1  0.93031113  0.56587761  0.79826454  1  0  -0.333445  0  1.208155  0  0  -0.285998  0  1.522979  0  0  -0.308403  0  1.510285  0  0  -0.092767  -0.270238  0  1.532039  0
I  I75  1  0.56969132  0.43412179  0.29826339  1  0  -0.333452  0  1.208137  0  0  -0.286011  0  1.522974  0  0  -0.308421  0  1.510286  0  0  -0.092784  -0.27025  0  1.532032  0
I  I76  1  0.04398887  0.03000491  0.14971654  1  0  -0.346802  0  1.107651  0  0  -0.298899  0  1.413157  0  0  -0.321022  0  1.399874  0  0  -0.118839  -0.283026  0  1.422086  0
I  I77  1  0.45601271  0.96999614  0.64971600  1  0  -0.346813  0  1.107564  0  0  -0.298909  0  1.413068  0  0  -0.321035  0  1.399787  0  0  -0.118853  -0.283037  0  1.421993  0
I  I78  1  0.95601336  0.96999391  0.85028437  1  0  -0.346784  0  1.107626  0  0  -0.298868  0  1.41312  0  0  -0.320989  0  1.399837  0  0  -0.118828  -0.282996  0  1.422045  0
I  I79  1  0.54398837  0.03000653  0.35028491  1  0  -0.346762  0  1.107616  0  0  -0.298852  0  1.413122  0  0  -0.320976  0  1.399835  0  0  -0.118819  -0.282981  0  1.422054  0
N  N80  1  0.48601208  0.25260437  0.95538822  1  0  -0.095153  0  3.391973  0  0  0.004343  0  3.609317  0  0  -0.012938  0  3.632121  0  0  -0.247562  0.015771  0  3.593854  0
N  N81  1  0.01398979  0.74739326  0.45538712  1  0  -0.095202  0  3.391903  0  0  0.004153  0  3.609354  0  0  -0.013134  0  3.632154  0  0  -0.247576  0.01558  0  3.593906  0
N  N82  1  0.51399009  0.74739155  0.04461133  1  0  -0.09511  0  3.391994  0  0  0.004297  0  3.609407  0  0  -0.012981  0  3.632213  0  0  -0.247524  0.015724  0  3.593955  0
N  N83  1  0.98600519  0.25261134  0.54461446  1  0  -0.095324  0  3.391548  0  0  0.004055  0  3.609035  0  0  -0.013223  0  3.631836  0  0  -0.247663  0.01549  0  3.59358  0
