# generated using pymatgen
data_ZnH8C14N2O5
_symmetry_space_group_name_H-M   'P 1'
_cell_length_a   13.80159274
_cell_length_b   13.92888331
_cell_length_c   14.04821798
_cell_angle_alpha   110.46754930
_cell_angle_beta   90.00004424
_cell_angle_gamma   89.99971799
_symmetry_Int_Tables_number   1
_chemical_formula_structural   ZnH8C14N2O5
_chemical_formula_sum   'Zn4 H32 C56 N8 O20'
_cell_volume   2530.14992997
_cell_formula_units_Z   4
loop_
 _symmetry_equiv_pos_site_id
 _symmetry_equiv_pos_as_xyz
  1  'x, y, z'
loop_
 _atom_site_type_symbol
 _atom_site_label
 _atom_site_symmetry_multiplicity
 _atom_site_fract_x
 _atom_site_fract_y
 _atom_site_fract_z
 _atom_site_occupancy
 _atom_site_pbe_bader_charge
 _atom_site_pbe_bader_spin_density
 _atom_site_pbe_cm5_charge
 _atom_site_pbe_ddec_charge
 _atom_site_pbe_ddec_spin_density
 _atom_site_pbe_ddec_sum_bond_order
 _atom_site_pbe_magmom
Zn  Zn0  1  0.05575980  0.90819383  0.95909767  1  1.298293  0  0.669791  0.826757  0  2.419824  0
Zn  Zn1  1  0.55576048  0.09180555  0.54090345  1  1.298292  0  0.669839  0.826804  0  2.419797  0
Zn  Zn2  1  0.94424081  0.09180829  0.04090346  1  1.298413  0  0.669861  0.826772  0  2.419818  0
Zn  Zn3  1  0.44423940  0.90819197  0.45909750  1  1.298345  0  0.66983  0.826784  0  2.41981  0
H  H4  1  0.89335562  0.59303243  0.15101425  1  0.435099  0  0.32102  0.268911  0  0.944384  0
H  H5  1  0.92523273  0.73734199  0.11366751  1  0.078221  0  0.103551  0.114076  0  1.016557  0
H  H6  1  0.76738977  0.01314406  0.26874194  1  0.097594  0  0.109903  0.122347  0  0.9958  0
H  H7  1  0.69336828  0.73417139  0.31961264  1  0.118089  0  0.106847  0.125372  0  1.038593  0
H  H8  1  0.02984804  0.29802990  0.12026458  1  0.164797  0  0.129468  0.108414  0  0.985506  0
H  H9  1  0.97616737  0.48002396  0.18639255  1  0.075071  0  0.114364  0.120167  0  0.995998  0
H  H10  1  0.68057132  0.37068542  0.15807845  1  0.128871  0  0.117717  0.12631  0  0.987048  0
H  H11  1  0.74811322  0.19005486  0.08934631  1  0.098326  0  0.134946  0.110508  0  0.955478  0
H  H12  1  0.39335228  0.40696349  0.34898232  1  0.435191  0  0.32105  0.268921  0  0.944421  0
H  H13  1  0.42523231  0.26265990  0.38633044  1  0.078201  0  0.103533  0.114025  0  1.016628  0
H  H14  1  0.26739141  0.98685788  0.23126018  1  0.097495  0  0.109905  0.122354  0  0.995769  0
H  H15  1  0.19336332  0.26582635  0.18038939  1  0.118131  0  0.106828  0.125308  0  1.038645  0
H  H16  1  0.52984667  0.70196640  0.37973468  1  0.164841  0  0.12947  0.108433  0  0.985504  0
H  H17  1  0.47616924  0.51997231  0.31360277  1  0.075049  0  0.114398  0.120222  0  0.996006  0
H  H18  1  0.18057048  0.62931622  0.34192208  1  0.128855  0  0.117721  0.126317  0  0.98701  0
H  H19  1  0.24811227  0.80994642  0.41065628  1  0.098457  0  0.134938  0.110489  0  0.955508  0
H  H20  1  0.10664933  0.40696509  0.84898456  1  0.435181  0  0.321008  0.268876  0  0.94447  0
H  H21  1  0.07476788  0.26266242  0.88633512  1  0.078168  0  0.103517  0.114013  0  1.016554  0
H  H22  1  0.23260939  0.98685882  0.73126300  1  0.097486  0  0.109914  0.122396  0  0.995707  0
H  H23  1  0.30663523  0.26582843  0.68038982  1  0.118129  0  0.106839  0.125342  0  1.038588  0
H  H24  1  0.97015257  0.70196839  0.87973378  1  0.164825  0  0.129461  0.108406  0  0.985551  0
H  H25  1  0.02383179  0.51997510  0.81360466  1  0.075112  0  0.114384  0.120198  0  0.99598  0
H  H26  1  0.31943147  0.62931517  0.84192214  1  0.128833  0  0.117702  0.126253  0  0.987037  0
H  H27  1  0.25188667  0.80994802  0.91065579  1  0.098447  0  0.13496  0.110513  0  0.955451  0
H  H28  1  0.60664181  0.59303632  0.65102370  1  0.434929  0  0.321071  0.268966  0  0.944381  0
H  H29  1  0.57476613  0.73734145  0.61367183  1  0.078199  0  0.103536  0.114045  0  1.016576  0
H  H30  1  0.73261282  0.01313657  0.76873828  1  0.097704  0  0.109922  0.122355  0  0.995827  0
H  H31  1  0.80663004  0.73416887  0.81961503  1  0.118045  0  0.106849  0.125316  0  1.038551  0
H  H32  1  0.47015321  0.29803036  0.62026386  1  0.164825  0  0.129471  0.108428  0  0.985522  0
H  H33  1  0.52383137  0.48002292  0.68639667  1  0.075121  0  0.114422  0.120188  0  0.995992  0
H  H34  1  0.81942795  0.37068436  0.65808064  1  0.128886  0  0.117742  0.126348  0  0.987022  0
H  H35  1  0.75188689  0.19005493  0.58934742  1  0.098324  0  0.134939  0.110515  0  0.955464  0
C  C36  1  0.81248495  0.72321071  0.21643561  1  0.309731  0  0.090062  0.238317  0  4.054989  0
C  C37  1  0.86832183  0.77584946  0.16741382  1  -0.075727  0  -0.091037  -0.200341  0  3.945189  0
C  C38  1  0.85117211  0.87939845  0.18481025  1  0.077025  0  -0.015515  -0.009712  0  3.98864  0
C  C39  1  0.77981720  0.93206387  0.25413163  1  -0.02643  0  -0.075232  -0.113892  0  3.919428  0
C  C40  1  0.72387671  0.87907566  0.30240549  1  -0.026694  0  -0.011015  -0.002877  0  3.97956  0
C  C41  1  0.73879697  0.77465876  0.28315901  1  0.045632  0  -0.084442  -0.181707  0  3.901198  0
C  C42  1  0.77886681  0.54554865  0.21419740  1  1.383454  0  0.239987  0.46864  0  4.129543  0
C  C43  1  0.95311317  0.31787234  0.12801188  1  0.478027  0  0.063194  0.114088  0  3.896885  0
C  C44  1  0.92181147  0.41928998  0.16423265  1  -0.052745  0  -0.079658  -0.171131  0  3.962555  0
C  C45  1  0.82213670  0.43958966  0.17460791  1  -0.022426  0  0.007729  0.01574  0  3.979281  0
C  C46  1  0.75817036  0.35644138  0.14899103  1  0.038966  0  -0.070909  -0.141864  0  3.944636  0
C  C47  1  0.79496273  0.25738112  0.11210653  1  0.455661  0  0.066055  0.105607  0  3.906644  0
C  C48  1  0.90837405  0.93059266  0.12501366  1  1.585799  0  0.214418  0.593493  0  4.171354  0
C  C49  1  0.64507700  0.93191531  0.37544129  1  1.598254  0  0.216672  0.598029  0  4.166069  0
C  C50  1  0.31248220  0.27679177  0.28356318  1  0.309712  0  0.089964  0.238064  0  4.055296  0
C  C51  1  0.36832301  0.22415273  0.33258348  1  -0.07565  0  -0.090993  -0.200183  0  3.945117  0
C  C52  1  0.35117306  0.12060689  0.31519240  1  0.076998  0  -0.015511  -0.009726  0  3.988638  0
C  C53  1  0.27981763  0.06793878  0.24587431  1  -0.02622  0  -0.075231  -0.113855  0  3.919384  0
C  C54  1  0.22387539  0.12092422  0.19759517  1  -0.026599  0  -0.011035  -0.002982  0  3.979542  0
C  C55  1  0.23879588  0.22534104  0.21684163  1  0.045549  0  -0.084397  -0.181489  0  3.901253  0
C  C56  1  0.27886100  0.45445324  0.28580044  1  1.38307  0  0.24004  0.468695  0  4.129263  0
C  C57  1  0.45311355  0.68212404  0.37198276  1  0.47802  0  0.063174  0.114012  0  3.896728  0
C  C58  1  0.42181015  0.58070733  0.33576371  1  -0.053012  0  -0.079655  -0.171201  0  3.962439  0
C  C59  1  0.32213547  0.56040894  0.32538953  1  -0.022168  0  0.007771  0.015863  0  3.979056  0
C  C60  1  0.25817019  0.64355986  0.35100657  1  0.006965  0  -0.070899  -0.141896  0  3.944539  0
C  C61  1  0.29496064  0.74261762  0.38789165  1  0.487405  0  0.066019  0.105565  0  3.906647  0
C  C62  1  0.40838038  0.06941928  0.37499346  1  1.586473  0  0.214397  0.59342  0  4.171458  0
C  C63  1  0.14507516  0.06808575  0.12456043  1  1.598187  0  0.216585  0.597837  0  4.166274  0
C  C64  1  0.18751856  0.27679448  0.78356516  1  0.30997  0  0.090003  0.238144  0  4.055218  0
C  C65  1  0.13168095  0.22415726  0.83259033  1  -0.076268  0  -0.090994  -0.200215  0  3.945063  0
C  C66  1  0.14882705  0.12060903  0.81519487  1  0.076967  0  -0.015506  -0.009783  0  3.988671  0
C  C67  1  0.22018196  0.06793978  0.74587501  1  -0.026166  0  -0.075252  -0.113926  0  3.919381  0
C  C68  1  0.27612608  0.12092492  0.69759937  1  -0.026716  0  -0.011014  -0.002977  0  3.979618  0
C  C69  1  0.26120581  0.22534259  0.71684540  1  0.045892  0  -0.084389  -0.181474  0  3.90113  0
C  C70  1  0.22114177  0.45445424  0.78579972  1  1.383293  0  0.239985  0.46856  0  4.129559  0
C  C71  1  0.04688672  0.68212595  0.87198720  1  0.478039  0  0.063209  0.114095  0  3.896872  0
C  C72  1  0.07819059  0.58070830  0.83576643  1  -0.052993  0  -0.079665  -0.171223  0  3.962409  0
C  C73  1  0.17786681  0.56041170  0.82539010  1  -0.022189  0  0.007724  0.015914  0  3.979155  0
C  C74  1  0.24183025  0.64356150  0.85101036  1  0.006921  0  -0.070813  -0.141819  0  3.944846  0
C  C75  1  0.20503861  0.74261870  0.88789308  1  0.487406  0  0.066034  0.10561  0  3.906596  0
C  C76  1  0.09161786  0.06942555  0.87499377  1  1.586481  0  0.214374  0.593424  0  4.171553  0
C  C77  1  0.35492288  0.06808451  0.62456259  1  1.598244  0  0.216619  0.597937  0  4.166091  0
C  C78  1  0.68751696  0.72320575  0.71643635  1  0.309667  0  0.089977  0.238116  0  4.055232  0
C  C79  1  0.63167760  0.77584556  0.66741559  1  -0.075628  0  -0.090986  -0.200178  0  3.94508  0
C  C80  1  0.64882972  0.87939292  0.68480934  1  0.058316  0  -0.015533  -0.009824  0  3.988709  0
C  C81  1  0.72018370  0.93205874  0.75412949  1  -0.00759  0  -0.075255  -0.113817  0  3.919604  0
C  C82  1  0.77612160  0.87907100  0.80240853  1  -0.026804  0  -0.01103  -0.003069  0  3.979853  0
C  C83  1  0.76120111  0.77465571  0.78315834  1  0.045738  0  -0.084398  -0.181454  0  3.901261  0
C  C84  1  0.72113236  0.54554734  0.71420228  1  1.383492  0  0.240024  0.468834  0  4.129124  0
C  C85  1  0.54688634  0.31787425  0.62801561  1  0.477806  0  0.063206  0.114111  0  3.896858  0
C  C86  1  0.57818901  0.41928943  0.66423484  1  -0.052841  0  -0.079698  -0.171174  0  3.962578  0
C  C87  1  0.67786224  0.43958858  0.67461070  1  -0.022415  0  0.007712  0.015751  0  3.979104  0
C  C88  1  0.74182897  0.35644073  0.64899615  1  0.039102  0  -0.070901  -0.141911  0  3.944598  0
C  C89  1  0.70503562  0.25738219  0.61211081  1  0.455424  0  0.066031  0.105599  0  3.906641  0
C  C90  1  0.59162458  0.93058284  0.62500979  1  1.586517  0  0.214517  0.593566  0  4.171177  0
C  C91  1  0.85492255  0.93191253  0.87544078  1  1.598371  0  0.216702  0.598061  0  4.166087  0
N  N92  1  0.83357987  0.61864568  0.19473519  1  -1.236336  0  -0.391835  -0.364516  0  3.58227  0
N  N93  1  0.89077200  0.23864986  0.10182465  1  -1.207553  0  -0.312811  -0.192936  0  3.506092  0
N  N94  1  0.33357661  0.38135516  0.30526091  1  -1.236281  0  -0.391817  -0.364476  0  3.582157  0
N  N95  1  0.39076983  0.76134761  0.39817388  1  -1.207377  0  -0.312796  -0.19282  0  3.505895  0
N  N96  1  0.16642364  0.38135797  0.80526433  1  -1.236394  0  -0.391823  -0.364493  0  3.582155  0
N  N97  1  0.10922861  0.76134919  0.89817470  1  -1.207384  0  -0.312831  -0.192895  0  3.505909  0
N  N98  1  0.66641675  0.61864466  0.69474226  1  -1.236359  0  -0.391892  -0.364665  0  3.582261  0
N  N99  1  0.60922788  0.23864991  0.60182636  1  -1.207251  0  -0.312833  -0.192991  0  3.506015  0
O  O100  1  0.69977446  0.56121578  0.25853571  1  -1.128159  0  -0.298291  -0.477705  0  2.07032  0
O  O101  1  0.97615112  0.87767724  0.06994170  1  -1.186097  0  -0.321694  -0.559159  0  2.354616  0
O  O102  1  0.88361686  0.02102126  0.13241716  1  -1.163596  0  -0.317556  -0.540151  0  2.295093  0
O  O103  1  0.65901245  0.02468445  0.43170965  1  -1.166395  0  -0.318541  -0.540974  0  2.284402  0
O  O104  1  0.57064152  0.87782418  0.37521374  1  -1.174792  0  -0.317215  -0.559853  0  2.349353  0
O  O105  1  0.19977160  0.43878577  0.24145982  1  -1.128009  0  -0.298384  -0.47779  0  2.070281  0
O  O106  1  0.47615361  0.12232515  0.43006002  1  -1.186293  0  -0.321724  -0.559084  0  2.354917  0
O  O107  1  0.38362083  0.97898238  0.36758564  1  -1.164119  0  -0.317543  -0.540192  0  2.294834  0
O  O108  1  0.15901331  0.97530964  0.06828966  1  -1.166397  0  -0.31848  -0.540864  0  2.284201  0
O  O109  1  0.07064377  0.12217344  0.12478601  1  -1.17477  0  -0.317161  -0.55972  0  2.349606  0
O  O110  1  0.30023049  0.43878175  0.74145955  1  -1.128062  0  -0.298329  -0.47771  0  2.070605  0
O  O111  1  0.02384586  0.12232794  0.93006049  1  -1.186341  0  -0.321698  -0.559022  0  2.355092  0
O  O112  1  0.11638013  0.97898469  0.86758458  1  -1.164088  0  -0.317544  -0.540194  0  2.294669  0
O  O113  1  0.34098743  0.97531077  0.56829192  1  -1.166386  0  -0.318503  -0.54093  0  2.284128  0
O  O114  1  0.42935691  0.12217334  0.62478791  1  -1.174732  0  -0.317195  -0.559767  0  2.349427  0
O  O115  1  0.80022321  0.56121405  0.75853979  1  -1.128081  0  -0.298321  -0.477773  0  2.070151  0
O  O116  1  0.52384990  0.87767467  0.56994172  1  -1.186233  0  -0.321756  -0.559125  0  2.35478  0
O  O117  1  0.61638123  0.02101821  0.63241780  1  -1.164295  0  -0.31761  -0.540252  0  2.294763  0
O  O118  1  0.84099382  0.02468022  0.93170435  1  -1.166539  0  -0.318509  -0.54089  0  2.28461  0
O  O119  1  0.92935974  0.87781489  0.87520747  1  -1.174817  0  -0.317246  -0.559895  0  2.349184  0
