# generated using pymatgen
data_Cu2H12C18BrN5
_symmetry_space_group_name_H-M   'P 1'
_cell_length_a   8.09167826
_cell_length_b   10.90409302
_cell_length_c   11.41075949
_cell_angle_alpha   61.55011456
_cell_angle_beta   76.94971776
_cell_angle_gamma   66.99058609
_symmetry_Int_Tables_number   1
_chemical_formula_structural   Cu2H12C18BrN5
_chemical_formula_sum   'Cu4 H24 C36 Br2 N10'
_cell_volume   813.80929372
_cell_formula_units_Z   2
loop_
 _symmetry_equiv_pos_site_id
 _symmetry_equiv_pos_as_xyz
  1  'x, y, z'
loop_
 _atom_site_type_symbol
 _atom_site_label
 _atom_site_symmetry_multiplicity
 _atom_site_fract_x
 _atom_site_fract_y
 _atom_site_fract_z
 _atom_site_occupancy
 _atom_site_hle17_bader_spin_density
 _atom_site_hle17_ddec_charge
 _atom_site_hle17_ddec_spin_density
 _atom_site_hle17_ddec_sum_bond_order
 _atom_site_hle17_magmom
 _atom_site_hse06_10hf_bader_spin_density
 _atom_site_hse06_10hf_ddec_charge
 _atom_site_hse06_10hf_ddec_spin_density
 _atom_site_hse06_10hf_ddec_sum_bond_order
 _atom_site_hse06_10hf_magmom
 _atom_site_hse06_bader_spin_density
 _atom_site_hse06_ddec_charge
 _atom_site_hse06_ddec_spin_density
 _atom_site_hse06_ddec_sum_bond_order
 _atom_site_hse06_magmom
 _atom_site_pbe_bader_spin_density
 _atom_site_pbe_cm5_charge
 _atom_site_pbe_ddec_charge
 _atom_site_pbe_ddec_spin_density
 _atom_site_pbe_ddec_sum_bond_order
 _atom_site_pbe_magmom
Cu  Cu0  1  0.22401876  0.45300885  0.31645508  1  0  0.398482  0  1.983036  0  0  0.283  0  2.466003  0  0  0.278395  0  2.424626  0  0  0.492699  0.290129  0  2.490313  0
Cu  Cu1  1  0.77598097  0.54699077  0.68354521  1  0  0.398509  0  1.983081  0  0  0.283031  0  2.46604  0  0  0.278418  0  2.424663  0  0  0.492723  0.290151  0  2.490368  0
Cu  Cu2  1  0.61738539  0.33334872  0.34913664  1  0  0.376021  0  1.892425  0  0  0.242678  0  2.399752  0  0  0.26165  0  2.341889  0  0  0.386179  0.232812  0  2.437296  0
Cu  Cu3  1  0.38261520  0.66665199  0.65086390  1  0  0.376003  0  1.892436  0  0  0.242631  0  2.399757  0  0  0.261607  0  2.341893  0  0  0.386167  0.232762  0  2.437318  0
H  H4  1  0.14855409  0.15798766  0.38265307  1  0  0.06615  0  0.942481  0  0  0.077145  0  1.007426  0  0  0.079329  0  1.005372  0  0  0.107879  0.075559  0  1.009269  0
H  H5  1  0.85144820  0.84201193  0.61734769  1  0  0.066158  0  0.942455  0  0  0.077151  0  1.007404  0  0  0.079333  0  1.005352  0  0  0.107883  0.075563  0  1.00924  0
H  H6  1  0.07080847  0.95894580  0.81156298  1  0  0.083419  0  0.95694  0  0  0.097568  0  1.012807  0  0  0.099434  0  1.012285  0  0  0.098399  0.096417  0  1.012956  0
H  H7  1  0.92918999  0.04105383  0.18843751  1  0  0.08341  0  0.956975  0  0  0.09756  0  1.012838  0  0  0.099426  0  1.012314  0  0  0.098396  0.09641  0  1.012993  0
H  H8  1  0.47390533  0.95713810  0.40274902  1  0  0.077289  0  0.932214  0  0  0.084854  0  0.998671  0  0  0.087451  0  0.99713  0  0  0.11038  0.082682  0  1.000223  0
H  H9  1  0.52609312  0.04286483  0.59725085  1  0  0.077303  0  0.932212  0  0  0.084884  0  0.998658  0  0  0.087483  0  0.997115  0  0  0.110396  0.082711  0  1.000208  0
H  H10  1  0.09483726  0.94741897  0.59271225  1  0  0.090147  0  0.977841  0  0  0.098024  0  1.049868  0  0  0.102095  0  1.046593  0  0  0.095079  0.09483  0  1.052685  0
H  H11  1  0.90516034  0.05258288  0.40728650  1  0  0.090159  0  0.977841  0  0  0.098019  0  1.049887  0  0  0.102091  0  1.046612  0  0  0.095069  0.094826  0  1.052704  0
H  H12  1  0.48389725  0.05629409  0.15634002  1  0  0.096157  0  0.975681  0  0  0.104832  0  1.040491  0  0  0.107993  0  1.039574  0  0  0.094948  0.102254  0  1.042  0
H  H13  1  0.51610972  0.94370325  0.84366012  1  0  0.096161  0  0.975624  0  0  0.104827  0  1.040446  0  0  0.107987  0  1.039531  0  0  0.094935  0.102262  0  1.041934  0
H  H14  1  0.39614022  0.92832614  0.05590123  1  0  0.085819  0  0.950499  0  0  0.102066  0  1.003194  0  0  0.104361  0  1.001888  0  0  0.102744  0.100339  0  1.004405  0
H  H15  1  0.60386759  0.07167230  0.94409828  1  0  0.085812  0  0.950535  0  0  0.102053  0  1.003241  0  0  0.10435  0  1.001932  0  0  0.102743  0.100327  0  1.004455  0
H  H16  1  0.10850202  0.17567079  0.81073185  1  0  0.101986  0  0.959167  0  0  0.115091  0  1.013912  0  0  0.117417  0  1.014494  0  0  0.102132  0.113495  0  1.013706  0
H  H17  1  0.89149899  0.82432882  0.18926824  1  0  0.101977  0  0.959141  0  0  0.115071  0  1.013904  0  0  0.117402  0  1.01448  0  0  0.10212  0.113477  0  1.013696  0
H  H18  1  0.30980198  0.70183865  0.21145347  1  0  0.099271  0  0.965217  0  0  0.102105  0  1.043931  0  0  0.109385  0  1.036049  0  0  0.097653  0.096501  0  1.050621  0
H  H19  1  0.69020115  0.29816204  0.78854578  1  0  0.099244  0  0.965244  0  0  0.102065  0  1.043966  0  0  0.109343  0  1.036084  0  0  0.097631  0.096463  0  1.050666  0
H  H20  1  0.35845844  0.35260242  0.90316604  1  0  0.10522  0  0.955663  0  0  0.11431  0  1.021555  0  0  0.118246  0  1.019117  0  0  0.101926  0.110964  0  1.024219  0
H  H21  1  0.64153790  0.64739944  0.09683466  1  0  0.105213  0  0.955675  0  0  0.114299  0  1.021571  0  0  0.118234  0  1.019135  0  0  0.101911  0.110953  0  1.024226  0
H  H22  1  0.22395917  0.26820124  0.13707085  1  0  0.09132  0  0.980574  0  0  0.101709  0  1.044543  0  0  0.104831  0  1.042129  0  0  0.091637  0.098963  0  1.047171  0
H  H23  1  0.77603674  0.73179843  0.86292917  1  0  0.091303  0  0.980547  0  0  0.101708  0  1.044499  0  0  0.104818  0  1.042099  0  0  0.091635  0.098988  0  1.047089  0
H  H24  1  0.89671027  0.28185165  0.17128693  1  0  0.090522  0  0.976717  0  0  0.095548  0  1.053302  0  0  0.10099  0  1.04813  0  0  0.092393  0.090617  0  1.05888  0
H  H25  1  0.10328521  0.71814912  0.82871265  1  0  0.090579  0  0.976673  0  0  0.095559  0  1.053313  0  0  0.101007  0  1.048124  0  0  0.092401  0.09064  0  1.058874  0
H  H26  1  0.72249290  0.38955930  0.97345737  1  0  0.071457  0  0.979243  0  0  0.076052  0  1.052221  0  0  0.079435  0  1.049084  0  0  0.09427  0.073052  0  1.055225  0
H  H27  1  0.27750172  0.61044369  0.02654047  1  0  0.071477  0  0.979218  0  0  0.076062  0  1.052205  0  0  0.079446  0  1.049066  0  0  0.094271  0.073065  0  1.0552  0
C  C28  1  0.13784633  0.15763682  0.47989384  1  0  0.125053  0  3.725652  0  0  0.094689  0  3.980778  0  0  0.101351  0  3.99753  0  0  0.037121  0.089901  0  3.969778  0
C  C29  1  0.86215339  0.84236280  0.52010558  1  0  0.125034  0  3.725645  0  0  0.094678  0  3.980762  0  0  0.10134  0  3.997516  0  0  0.037119  0.089897  0  3.969744  0
C  C30  1  0.09422976  0.04823638  0.71786883  1  0  -0.012424  0  3.766042  0  0  -0.028974  0  4.009741  0  0  -0.024624  0  4.029348  0  0  -0.080364  -0.031123  0  3.995012  0
C  C31  1  0.90576954  0.95176434  0.28213103  1  0  -0.012432  0  3.766064  0  0  -0.028986  0  4.009764  0  0  -0.024633  0  4.029368  0  0  -0.080359  -0.031144  0  3.995056  0
C  C32  1  0.43749991  0.90410573  0.35658149  1  0  0.133479  0  3.720905  0  0  0.103616  0  3.974811  0  0  0.110059  0  3.992331  0  0  0.043426  0.099314  0  3.963672  0
C  C33  1  0.56249983  0.09589389  0.64341968  1  0  0.133403  0  3.720943  0  0  0.103521  0  3.974867  0  0  0.109963  0  3.992385  0  0  0.043405  0.09922  0  3.963722  0
C  C34  1  0.10637938  0.04161792  0.59665477  1  0  -0.135687  0  3.756748  0  0  -0.148247  0  4.008926  0  0  -0.155765  0  4.031066  0  0  -0.097462  -0.142825  0  3.993484  0
C  C35  1  0.89361866  0.95838282  0.40334529  1  0  -0.13569  0  3.756758  0  0  -0.148237  0  4.008935  0  0  -0.155756  0  4.031074  0  0  -0.097451  -0.142817  0  3.993501  0
C  C36  1  0.44299141  0.95915428  0.21813035  1  0  -0.145914  0  3.771716  0  0  -0.159908  0  4.029141  0  0  -0.166571  0  4.050966  0  0  -0.098765  -0.156381  0  4.015935  0
C  C37  1  0.55701298  0.04084640  0.78186782  1  0  -0.145832  0  3.771673  0  0  -0.159813  0  4.029109  0  0  -0.166476  0  4.050935  0  0  -0.098723  -0.156299  0  4.015885  0
C  C38  1  0.39606225  0.88706089  0.16372436  1  0  -0.023262  0  3.76233  0  0  -0.039042  0  4.005793  0  0  -0.035714  0  4.025441  0  0  -0.07931  -0.041113  0  3.993707  0
C  C39  1  0.60394429  0.11293755  0.83627623  1  0  -0.023263  0  3.762387  0  0  -0.039041  0  4.005837  0  0  -0.035713  0  4.025483  0  0  -0.079296  -0.041111  0  3.993752  0
C  C40  1  0.18586508  0.40632592  0.58406748  1  0  0.052029  0  3.758987  0  0  0.038779  0  4.014288  0  0  0.038792  0  4.034689  0  0  0.072986  0.039398  0  3.999807  0
C  C41  1  0.81413295  0.59367482  0.41593258  1  0  0.051948  0  3.759141  0  0  0.038729  0  4.014398  0  0  0.03874  0  4.034801  0  0  0.072947  0.03935  0  3.999919  0
C  C42  1  0.18916926  0.45416998  0.67823322  1  0  0.073673  0  3.7541  0  0  0.066642  0  4.008416  0  0  0.068993  0  4.030034  0  0  0.084345  0.066537  0  3.992563  0
C  C43  1  0.81082877  0.54583075  0.32176684  1  0  0.073651  0  3.754156  0  0  0.066622  0  4.008467  0  0  0.068974  0  4.030085  0  0  0.084356  0.06652  0  3.992617  0
C  C44  1  0.14840679  0.28125000  0.59585341  1  0  0.211494  0  3.76647  0  0  0.208031  0  4.005688  0  0  0.218258  0  4.022457  0  0  0.116013  0.201247  0  3.994297  0
C  C45  1  0.85159294  0.71874962  0.40414600  1  0  0.211469  0  3.766506  0  0  0.208002  0  4.005713  0  0  0.218229  0  4.022479  0  0  0.116012  0.20122  0  3.994311  0
C  C46  1  0.34520741  0.71379166  0.38680070  1  0  0.177838  0  3.747388  0  0  0.176744  0  3.978141  0  0  0.184878  0  3.997399  0  0  0.117171  0.170926  0  3.96597  0
C  C47  1  0.65479190  0.28620907  0.61319916  1  0  0.177853  0  3.747303  0  0  0.176752  0  3.978093  0  0  0.184884  0  3.997353  0  0  0.117176  0.170931  0  3.965923  0
C  C48  1  0.28828546  0.59003544  0.48441436  1  0  0.260008  0  3.791684  0  0  0.238257  0  4.045103  0  0  0.245981  0  4.065234  0  0  0.186099  0.233246  0  4.03177  0
C  C49  1  0.71171470  0.40996637  0.51558575  1  0  0.259977  0  3.791676  0  0  0.238196  0  4.045156  0  0  0.245921  0  4.065286  0  0  0.186054  0.233185  0  4.031833  0
C  C50  1  0.11452419  0.16892162  0.71766815  1  0  -0.155169  0  3.718184  0  0  -0.171949  0  3.965421  0  0  -0.179866  0  3.986077  0  0  -0.08817  -0.166932  0  3.951171  0
C  C51  1  0.88547682  0.83107798  0.28233281  1  0  -0.155116  0  3.718114  0  0  -0.171886  0  3.96535  0  0  -0.179805  0  3.986003  0  0  -0.088153  -0.166865  0  3.951097  0
C  C52  1  0.34794413  0.76213413  0.24867045  1  0  -0.135085  0  3.709863  0  0  -0.151  0  3.957769  0  0  -0.15774  0  3.97502  0  0  -0.084913  -0.148258  0  3.948546  0
C  C53  1  0.65205730  0.23786767  0.75132945  1  0  -0.13513  0  3.709904  0  0  -0.151026  0  3.957821  0  0  -0.157763  0  3.975072  0  0  -0.084919  -0.148286  0  3.948603  0
C  C54  1  0.11482233  0.40850726  0.81636089  1  0  0.197769  0  3.744099  0  0  0.194976  0  3.983788  0  0  0.203814  0  4.000752  0  0  0.111726  0.188356  0  3.972668  0
C  C55  1  0.88517741  0.59149235  0.18364028  1  0  0.197856  0  3.744094  0  0  0.195024  0  3.983824  0  0  0.203863  0  4.000786  0  0  0.11174  0.188398  0  3.972713  0
C  C56  1  0.21930454  0.35506978  0.92349472  1  0  -0.147047  0  3.713001  0  0  -0.164527  0  3.961289  0  0  -0.172115  0  3.981131  0  0  -0.085194  -0.158471  0  3.947784  0
C  C57  1  0.78069095  0.64493098  0.07650662  1  0  -0.14707  0  3.712915  0  0  -0.164542  0  3.961232  0  0  -0.172125  0  3.981063  0  0  -0.085189  -0.158487  0  3.947728  0
C  C58  1  0.14399864  0.30765566  0.05330545  1  0  -0.008455  0  3.733247  0  0  -0.02829  0  3.976477  0  0  -0.0233  0  3.995608  0  0  -0.078416  -0.031561  0  3.964197  0
C  C59  1  0.85600026  0.69234286  0.94669634  1  0  -0.008454  0  3.73316  0  0  -0.028294  0  3.976394  0  0  -0.023298  0  3.995531  0  0  -0.078432  -0.031584  0  3.964085  0
C  C60  1  0.96467342  0.31498629  0.07247592  1  0  -0.12191  0  3.756018  0  0  -0.127702  0  3.998109  0  0  -0.135921  0  4.019662  0  0  -0.093945  -0.123451  0  3.985427  0
C  C61  1  0.03532292  0.68501227  0.92752540  1  0  -0.121924  0  3.756011  0  0  -0.127695  0  3.998128  0  0  -0.13591  0  4.019682  0  0  -0.09392  -0.123456  0  3.985443  0
C  C62  1  0.86568625  0.37449221  0.96162908  1  0  0.11307  0  3.717657  0  0  0.085973  0  3.960601  0  0  0.092949  0  3.976394  0  0  0.028303  0.081217  0  3.951349  0
C  C63  1  0.13431348  0.62550741  0.03837121  1  0  0.11302  0  3.717636  0  0  0.085925  0  3.960566  0  0  0.092899  0  3.976361  0  0  0.028267  0.08115  0  3.95134  0
Br  Br64  1  0.49088757  0.30284163  0.20977879  1  0  -0.505804  0  1.379946  0  0  -0.42677  0  1.785836  0  0  -0.448242  0  1.747687  0  0  -0.250946  -0.410193  0  1.810211  0
Br  Br65  1  0.50911556  0.69715906  0.79022047  1  0  -0.505793  0  1.379966  0  0  -0.426745  0  1.785835  0  0  -0.448217  0  1.747686  0  0  -0.250936  -0.410171  0  1.810225  0
N  N66  1  0.24772626  0.49449559  0.46208205  1  0  -0.407505  0  3.340355  0  0  -0.343642  0  3.647237  0  0  -0.354434  0  3.653648  0  0  -0.38142  -0.337417  0  3.642485  0
N  N67  1  0.75227262  0.50550624  0.53791738  1  0  -0.40737  0  3.340335  0  0  -0.343513  0  3.647204  0  0  -0.354299  0  3.653609  0  0  -0.381356  -0.337289  0  3.64247  0
N  N68  1  0.25983434  0.56645963  0.61530493  1  0  -0.414038  0  3.328642  0  0  -0.348845  0  3.642715  0  0  -0.366569  0  3.652355  0  0  -0.393364  -0.337277  0  3.635105  0
N  N69  1  0.74016497  0.43354109  0.38469493  1  0  -0.414064  0  3.328674  0  0  -0.348864  0  3.642772  0  0  -0.366585  0  3.652407  0  0  -0.393363  -0.337294  0  3.635163  0
N  N70  1  0.38906613  0.78509332  0.43964441  1  0  -0.317083  0  3.25751  0  0  -0.249185  0  3.536514  0  0  -0.261697  0  3.54404  0  0  -0.343065  -0.24056  0  3.532097  0
N  N71  1  0.61093233  0.21490961  0.56035546  1  0  -0.317024  0  3.257473  0  0  -0.249136  0  3.536511  0  0  -0.261645  0  3.544033  0  0  -0.343084  -0.24051  0  3.532083  0
N  N72  1  0.15933794  0.27445471  0.47826111  1  0  -0.31825  0  3.26412  0  0  -0.254228  0  3.544561  0  0  -0.264107  0  3.551549  0  0  -0.346753  -0.247612  0  3.539377  0
N  N73  1  0.84066137  0.72554602  0.52173875  1  0  -0.318224  0  3.264113  0  0  -0.254216  0  3.544559  0  0  -0.264092  0  3.551545  0  0  -0.346757  -0.247599  0  3.539364  0
N  N74  1  0.93601250  0.42321392  0.83501892  1  0  -0.330098  0  3.347609  0  0  -0.260405  0  3.64083  0  0  -0.269458  0  3.645191  0  0  -0.363442  -0.255603  0  3.637902  0
N  N75  1  0.06398424  0.57678684  0.16497958  1  0  -0.33008  0  3.347599  0  0  -0.260346  0  3.640779  0  0  -0.269405  0  3.645154  0  0  -0.363402  -0.255538  0  3.637853  0
