# generated using pymatgen
data_Zn2H17C36I2N2ClO8
_symmetry_space_group_name_H-M   'P 1'
_cell_length_a   11.52638522
_cell_length_b   13.12201906
_cell_length_c   13.62981216
_cell_angle_alpha   79.94647464
_cell_angle_beta   55.17893432
_cell_angle_gamma   77.94535424
_symmetry_Int_Tables_number   1
_chemical_formula_structural   Zn2H17C36I2N2ClO8
_chemical_formula_sum   'Zn2 H17 C36 I2 N2 Cl1 O8'
_cell_volume   1651.11605058
_cell_formula_units_Z   1
loop_
 _symmetry_equiv_pos_site_id
 _symmetry_equiv_pos_as_xyz
  1  'x, y, z'
loop_
 _atom_site_type_symbol
 _atom_site_label
 _atom_site_symmetry_multiplicity
 _atom_site_fract_x
 _atom_site_fract_y
 _atom_site_fract_z
 _atom_site_occupancy
 _atom_site_pbe_bader_charge
 _atom_site_pbe_bader_spin_density
 _atom_site_pbe_cm5_charge
 _atom_site_pbe_ddec_charge
 _atom_site_pbe_ddec_spin_density
 _atom_site_pbe_ddec_sum_bond_order
 _atom_site_pbe_magmom
Zn  Zn0  1  0.64995201  0.48446456  0.44895003  1  1.294708  0  0.676198  0.840075  0  2.410545  0
Zn  Zn1  1  0.35467052  0.50668563  0.54242179  1  1.291569  0  0.670255  0.825542  0  2.402069  0
H  H2  1  0.23453639  0.35837586  0.90289813  1  0.089431  0  0.111398  0.120253  0  0.978903  0
H  H3  1  0.71972127  0.14078892  0.52157430  1  0.108923  0  0.106113  0.126714  0  1.000071  0
H  H4  1  0.27156499  0.04230907  0.47872939  1  0.059438  0  0.095848  0.094305  0  1.017375  0
H  H5  1  0.28181205  0.84968811  0.48289835  1  0.087861  0  0.10497  0.110984  0  0.992756  0
H  H6  1  0.64652743  0.79548877  0.50562151  1  0.112802  0  0.090501  0.097457  0  1.054014  0
H  H7  1  0.77210043  0.38835257  0.58553184  1  0.158573  0  0.13093  0.112322  0  0.967428  0
H  H8  1  0.89456321  0.60879010  0.29819457  1  0.123485  0  0.133682  0.113813  0  0.956365  0
H  H9  1  0.90411080  0.34962758  0.69364477  1  0.121323  0  0.122918  0.135483  0  0.961959  0
H  H10  1  0.08841994  0.65190307  0.31012421  1  0.102136  0  0.124329  0.1346  0  0.966037  0
H  H11  1  0.10399379  0.38813068  0.70048242  1  0.149124  0  0.13204  0.110772  0  0.96216  0
H  H12  1  0.22242570  0.61115758  0.41570967  1  0.144846  0  0.133237  0.114298  0  0.969441  0
H  H13  1  0.20146521  0.31114456  0.10158559  1  0.051856  0  0.091567  0.099016  0  1.046526  0
H  H14  1  0.82462986  0.55865790  0.07246837  1  0.103199  0  0.109692  0.115497  0  0.987899  0
H  H15  1  0.72899120  0.53075658  0.81704344  1  0.061367  0  0.079966  0.078539  0  1.093015  0
H  H16  1  0.89451001  0.56961191  0.86022664  1  0.063979  0  0.103819  0.106903  0  0.988658  0
H  H17  1  0.40009477  0.39977952  0.29698059  1  0.109575  0  0.104487  0.129695  0  1.020301  0
H  H18  1  0.36178574  0.19187979  0.48923811  1  0.081774  0  0.098261  0.102311  0  1.03313  0
C  C19  1  0.47625619  0.69729603  0.49105349  1  1.562398  0  0.214425  0.596645  0  4.167556  0
C  C20  1  0.56367609  0.49399640  0.00175108  1  -0.003671  0  -0.00982  0.028606  0  3.952787  0
C  C21  1  0.53271346  0.47587764  0.12036606  1  0.009788  0  -0.000283  0.077067  0  3.943657  0
C  C22  1  0.46432971  0.46959018  0.97797390  1  0.065611  0  -0.004106  0.00857  0  3.907559  0
C  C23  1  0.36137383  0.40097939  0.06392935  1  -0.017523  0  -0.013496  0.047221  0  3.998852  0
C  C24  1  0.34492568  0.37624134  0.17801307  1  -0.31272  0  -0.048261  0.01483  0  3.911957  0
C  C25  1  0.41909973  0.41700393  0.20837155  1  0.065266  0  -0.099723  -0.174064  0  3.996613  0
C  C26  1  0.46252684  0.50683360  0.87413886  1  -0.257399  0  -0.037169  -0.003782  0  3.789536  0
C  C27  1  0.29458867  0.39031623  0.92682428  1  -0.033714  0  -0.083149  -0.079152  0  3.989508  0
C  C28  1  0.62583225  0.50523998  0.14495163  1  -0.042469  0  -0.011569  -0.068129  0  3.908133  0
C  C29  1  0.53922897  0.17717805  0.50501281  1  -0.020223  0  -0.017922  -0.011026  0  3.985865  0
C  C30  1  0.58983779  0.50248692  0.26986333  1  1.579334  0  0.214857  0.597872  0  4.167677  0
C  C31  1  0.46633293  0.81244392  0.49360457  1  0.047377  0  -0.01432  -0.013109  0  3.966523  0
C  C32  1  0.35184340  0.98790410  0.48683276  1  -0.005981  0  -0.087756  -0.12606  0  3.990208  0
C  C33  1  0.35794032  0.88190509  0.48793380  1  -0.09081  0  -0.086615  -0.096278  0  3.990901  0
C  C34  1  0.56366941  0.85021774  0.50194447  1  -0.033478  0  -0.089079  -0.140188  0  3.953047  0
C  C35  1  0.55654253  0.95830312  0.50580241  1  0.017533  0  -0.009321  0.022869  0  3.974136  0
C  C36  1  0.44949737  0.02938193  0.49609305  1  -0.039909  0  -0.002838  0.091149  0  3.997581  0
C  C37  1  0.44285649  0.13807033  0.49666187  1  0.012986  0  -0.08274  -0.145558  0  3.938543  0
C  C38  1  0.64499549  0.10835445  0.51507976  1  0.015311  0  -0.094838  -0.17386  0  3.979926  0
C  C39  1  0.65146008  0.00217670  0.51704089  1  0.008508  0  0.012591  0.10906  0  4.021987  0
C  C40  1  0.97159370  0.40825381  0.63104378  1  -0.063365  0  -0.069039  -0.154283  0  3.962474  0
C  C41  1  0.53361396  0.29266844  0.50217693  1  1.554014  0  0.21444  0.596959  0  4.160337  0
C  C42  1  0.08022128  0.42905448  0.63592105  1  0.433818  0  0.051364  0.083157  0  3.921585  0
C  C43  1  0.14779411  0.55578321  0.47618074  1  0.570538  0  0.081386  0.082951  0  3.840381  0
C  C44  1  0.04022465  0.53965628  0.46271094  1  -0.048785  0  0.009396  0.049075  0  4.017368  0
C  C45  1  0.95047611  0.46297294  0.54222552  1  0.029832  0  0.005603  0.037338  0  4.040717  0
C  C46  1  0.84568334  0.44474383  0.52626488  1  0.525449  0  0.076023  0.072631  0  3.877796  0
C  C47  1  0.91617968  0.56934563  0.36445860  1  0.442893  0  0.05323  0.089629  0  3.91673  0
C  C48  1  0.02097893  0.59315563  0.37247574  1  0.050449  0  -0.066198  -0.151608  0  3.950102  0
C  C49  1  0.40570740  0.48160424  0.72415881  1  1.602379  0  0.208798  0.59593  0  4.182998  0
C  C50  1  0.27844981  0.36311444  0.03588165  1  0.046601  0  -0.097867  -0.129451  0  4.012698  0
C  C51  1  0.38621871  0.46305734  0.84457185  1  -0.004893  0  -0.021481  -0.05448  0  3.963708  0
C  C52  1  0.75377875  0.53944064  0.05163156  1  0.007258  0  -0.081402  -0.087409  0  3.980998  0
C  C53  1  0.79123605  0.54687479  0.93337895  1  -0.014764  0  -0.093596  -0.080718  0  4.031469  0
C  C54  1  0.69715607  0.52573066  0.90946766  1  -0.092941  0  -0.10044  -0.135846  0  4.034269  0
I  I55  1  0.20046030  0.27258587  0.30742573  1  0.078107  0  0.083998  -0.032437  0  1.457475  0
I  I56  1  0.53978523  0.65003879  0.77649933  1  0.122219  0  0.087672  -0.008437  0  1.5397  0
N  N57  1  0.83030689  0.49580471  0.44078636  1  -1.250184  0  -0.314442  -0.193175  0  3.540865  0
N  N58  1  0.16714295  0.50175125  0.55859661  1  -1.247931  0  -0.313958  -0.189738  0  3.521659  0
Cl  Cl59  1  0.77942275  0.91961528  0.53370449  1  -0.233682  0  -0.035045  -0.112695  0  1.440815  0
O  O60  1  0.59992112  0.64500882  0.44455490  1  -1.172288  0  -0.318123  -0.555696  0  2.346316  0
O  O61  1  0.35971623  0.66114305  0.53621331  1  -1.155  0  -0.319901  -0.54183  0  2.307847  0
O  O62  1  0.69366630  0.48114061  0.28301115  1  -1.155565  0  -0.321288  -0.538932  0  2.287492  0
O  O63  1  0.45934099  0.52460404  0.35290939  1  -1.188692  0  -0.313177  -0.565409  0  2.363078  0
O  O64  1  0.64309561  0.32564360  0.48025389  1  -1.160473  0  -0.318757  -0.536704  0  2.287628  0
O  O65  1  0.41910585  0.34920628  0.52111574  1  -1.173337  0  -0.320817  -0.561943  0  2.35033  0
O  O66  1  0.53314436  0.48634633  0.63525593  1  -1.189637  0  -0.316646  -0.573746  0  2.44877  0
O  O67  1  0.29845233  0.48443544  0.71873922  1  -1.154203  0  -0.318809  -0.534395  0  2.243253  0
