# generated using pymatgen
data_CdH15C16S(NO)5
_symmetry_space_group_name_H-M   'P 1'
_cell_length_a   8.61206177
_cell_length_b   11.32343175
_cell_length_c   11.22160892
_cell_angle_alpha   67.50081868
_cell_angle_beta   67.54307103
_cell_angle_gamma   71.15596958
_symmetry_Int_Tables_number   1
_chemical_formula_structural   CdH15C16S(NO)5
_chemical_formula_sum   'Cd2 H30 C32 S2 N10 O10'
_cell_volume   914.09339874
_cell_formula_units_Z   2
loop_
 _symmetry_equiv_pos_site_id
 _symmetry_equiv_pos_as_xyz
  1  'x, y, z'
loop_
 _atom_site_type_symbol
 _atom_site_label
 _atom_site_symmetry_multiplicity
 _atom_site_fract_x
 _atom_site_fract_y
 _atom_site_fract_z
 _atom_site_occupancy
 _atom_site_hle17_bader_spin_density
 _atom_site_hle17_ddec_charge
 _atom_site_hle17_ddec_spin_density
 _atom_site_hle17_ddec_sum_bond_order
 _atom_site_hle17_magmom
 _atom_site_hse06_10hf_bader_spin_density
 _atom_site_hse06_10hf_ddec_charge
 _atom_site_hse06_10hf_ddec_spin_density
 _atom_site_hse06_10hf_ddec_sum_bond_order
 _atom_site_hse06_10hf_magmom
 _atom_site_hse06_bader_spin_density
 _atom_site_hse06_ddec_charge
 _atom_site_hse06_ddec_spin_density
 _atom_site_hse06_ddec_sum_bond_order
 _atom_site_hse06_magmom
 _atom_site_pbe_bader_spin_density
 _atom_site_pbe_cm5_charge
 _atom_site_pbe_ddec_charge
 _atom_site_pbe_ddec_spin_density
 _atom_site_pbe_ddec_sum_bond_order
 _atom_site_pbe_magmom
Cd  Cd0  1  0.00000001  0.49999915  0.50000064  1  0  1.064394  0  1.78933  0  0  0.864494  0  2.238266  0  0  0.916782  0  2.195335  0  0  0.780327  0.8273  0  2.267266  0
Cd  Cd1  1  0.99999858  0.49999982  0.99999873  1  0  1.17888  0  1.658427  0  0  0.991138  0  2.116724  0  0  1.04556  0  2.063372  0  0  0.779095  0.953971  0  2.151892  0
H  H2  1  0.23445789  0.59992047  0.08991240  1  0  0.44912  0  0.844311  0  0  0.417086  0  0.908935  0  0  0.427607  0  0.893359  0  0  0.295798  0.41015  0  0.919122  0
H  H3  1  0.76553722  0.40007327  0.91009537  1  0  0.449098  0  0.844329  0  0  0.417062  0  0.908957  0  0  0.427584  0  0.893379  0  0  0.295777  0.410125  0  0.919144  0
H  H4  1  0.30005247  0.60149655  0.93603298  1  0  0.427527  0  0.818099  0  0  0.411825  0  0.869354  0  0  0.420489  0  0.859202  0  0  0.319549  0.405643  0  0.876607  0
H  H5  1  0.69994124  0.39850697  0.06396968  1  0  0.427497  0  0.818089  0  0  0.411796  0  0.869342  0  0  0.420459  0  0.859196  0  0  0.31954  0.405614  0  0.876596  0
H  H6  1  0.22004749  0.73582840  0.53922622  1  0  0.069327  0  0.952666  0  0  0.079967  0  1.027962  0  0  0.080779  0  1.026916  0  0  0.096227  0.079496  0  1.028567  0
H  H7  1  0.77994673  0.26417807  0.46076981  1  0  0.069212  0  0.952923  0  0  0.079879  0  1.028111  0  0  0.080685  0  1.027067  0  0  0.096158  0.079407  0  1.028718  0
H  H8  1  0.38296987  0.59343383  0.55082549  1  0  0.096483  0  0.911553  0  0  0.113292  0  0.970056  0  0  0.114569  0  0.969098  0  0  0.107289  0.112288  0  0.970851  0
H  H9  1  0.61702431  0.40657262  0.44917502  1  0  0.096535  0  0.911587  0  0  0.113285  0  0.970086  0  0  0.114559  0  0.969126  0  0  0.107267  0.112283  0  0.970881  0
H  H10  1  0.06260553  0.80830832  0.13388852  1  0  0.093046  0  0.957524  0  0  0.099118  0  1.02335  0  0  0.102704  0  1.020407  0  0  0.118109  0.096369  0  1.025808  0
H  H11  1  0.93738728  0.19168934  0.86611574  1  0  0.093025  0  0.957525  0  0  0.099133  0  1.023336  0  0  0.102715  0  1.020405  0  0  0.11809  0.096369  0  1.025808  0
H  H12  1  0.83417035  0.15952881  0.22730582  1  0  0.093141  0  0.929585  0  0  0.099331  0  0.992874  0  0  0.103744  0  0.988811  0  0  0.116369  0.095946  0  0.996211  0
H  H13  1  0.16583294  0.84047178  0.77269700  1  0  0.093123  0  0.929623  0  0  0.099292  0  0.992942  0  0  0.103703  0  0.988887  0  0  0.116352  0.095909  0  0.996276  0
H  H14  1  0.03071782  0.10295337  0.36594987  1  0  0.077029  0  0.957088  0  0  0.083298  0  1.025182  0  0  0.086139  0  1.023665  0  0  0.112413  0.081249  0  1.026341  0
H  H15  1  0.96928756  0.89704430  0.63404988  1  0  0.076988  0  0.957143  0  0  0.083284  0  1.025201  0  0  0.086124  0  1.023685  0  0  0.112411  0.081233  0  1.026362  0
H  H16  1  0.11553010  0.26566030  0.36764399  1  0  0.070071  0  0.963683  0  0  0.08021  0  1.028897  0  0  0.081945  0  1.027475  0  0  0.112835  0.078799  0  1.030211  0
H  H17  1  0.88447807  0.73433640  0.63235444  1  0  0.070022  0  0.963696  0  0  0.080196  0  1.028854  0  0  0.081931  0  1.027431  0  0  0.112815  0.07879  0  1.030157  0
H  H18  1  0.31208908  0.04965616  0.37122417  1  0  0.10126  0  0.99912  0  0  0.106076  0  1.071904  0  0  0.10922  0  1.070871  0  0  0.10293  0.103499  0  1.073453  0
H  H19  1  0.68791755  0.95034151  0.62877612  1  0  0.101247  0  0.99912  0  0  0.106092  0  1.071845  0  0  0.109239  0  1.07081  0  0  0.102958  0.103514  0  1.073399  0
H  H20  1  0.53290392  0.12278188  0.61945044  1  0  0.114345  0  0.972069  0  0  0.118624  0  1.043091  0  0  0.122826  0  1.040308  0  0  0.106947  0.115519  0  1.045428  0
H  H21  1  0.46710191  0.87721871  0.38054896  1  0  0.114324  0  0.97199  0  0  0.11863  0  1.042982  0  0  0.122831  0  1.040199  0  0  0.106962  0.115525  0  1.045317  0
H  H22  1  0.32385788  0.32961942  0.60911512  1  0  0.097929  0  0.946234  0  0  0.104639  0  1.010673  0  0  0.107478  0  1.008373  0  0  0.119101  0.102319  0  1.012882  0
H  H23  1  0.67614094  0.67037921  0.39088793  1  0  0.097899  0  0.946277  0  0  0.10461  0  1.010717  0  0  0.10745  0  1.00842  0  0  0.119105  0.102287  0  1.012937  0
H  H24  1  0.09355355  0.26309378  0.89793624  1  0  0.074564  0  0.965945  0  0  0.083799  0  1.031242  0  0  0.085931  0  1.029076  0  0  0.114481  0.082163  0  1.033035  0
H  H25  1  0.90644260  0.73690095  0.10206549  1  0  0.074572  0  0.965973  0  0  0.08381  0  1.031248  0  0  0.085933  0  1.029106  0  0  0.114489  0.082174  0  1.033042  0
H  H26  1  0.28094307  0.04719558  0.89680240  1  0  0.09941  0  0.99556  0  0  0.100933  0  1.072353  0  0  0.10466  0  1.07042  0  0  0.10183  0.098143  0  1.074239  0
H  H27  1  0.71905581  0.95279816  0.10320428  1  0  0.099398  0  0.995504  0  0  0.100924  0  1.072313  0  0  0.104652  0  1.07038  0  0  0.10184  0.098135  0  1.074197  0
H  H28  1  0.55355318  0.12185039  0.10761580  1  0  0.104825  0  0.947999  0  0  0.119645  0  1.001435  0  0  0.122542  0  1.000637  0  0  0.108576  0.11753  0  1.002252  0
H  H29  1  0.44644830  0.87815706  0.89237868  1  0  0.104814  0  0.947985  0  0  0.119659  0  1.001401  0  0  0.122551  0  1.000612  0  0  0.108578  0.117563  0  1.002196  0
H  H30  1  0.34357952  0.33172932  0.10607668  1  0  0.074327  0  0.932984  0  0  0.085027  0  0.992745  0  0  0.087864  0  0.989992  0  0  0.114968  0.082777  0  0.995162  0
H  H31  1  0.65641978  0.66827718  0.89391344  1  0  0.074369  0  0.932955  0  0  0.085091  0  0.992695  0  0  0.087905  0  0.989967  0  0  0.114994  0.082841  0  0.995113  0
C  C32  1  0.13906988  0.56536417  0.68900068  1  0  0.668272  0  3.882094  0  0  0.619549  0  4.186449  0  0  0.653499  0  4.179041  0  0  0.194589  0.596469  0  4.190614  0
C  C33  1  0.86092504  0.43464425  0.31099709  1  0  0.66847  0  3.881942  0  0  0.619733  0  4.186229  0  0  0.653677  0  4.178823  0  0  0.194702  0.596657  0  4.190394  0
C  C34  1  0.24816819  0.63070087  0.54920350  1  0  -0.09124  0  3.760304  0  0  -0.14697  0  4.023393  0  0  -0.144872  0  4.032412  0  0  -0.080002  -0.148429  0  4.016424  0
C  C35  1  0.75182600  0.36930559  0.45079612  1  0  -0.091306  0  3.760697  0  0  -0.146861  0  4.023484  0  0  -0.144748  0  4.032493  0  0  -0.079904  -0.148324  0  4.016519  0
C  C36  1  0.16404714  0.84361850  0.26371968  1  0  -0.002372  0  3.690355  0  0  0.010754  0  3.953451  0  0  0.009686  0  3.971197  0  0  0.108101  0.01083  0  3.942158  0
C  C37  1  0.83595371  0.15638211  0.73627758  1  0  -0.00247  0  3.690486  0  0  0.010702  0  3.953568  0  0  0.009645  0  3.971296  0  0  0.108093  0.010778  0  3.942271  0
C  C38  1  0.05292683  0.87472316  0.18666101  1  0  0.071757  0  3.685249  0  0  0.039899  0  3.942742  0  0  0.04273  0  3.958719  0  0  0.052355  0.038054  0  3.932369  0
C  C39  1  0.94707200  0.12527548  0.81334115  1  0  0.071855  0  3.685202  0  0  0.039916  0  3.942727  0  0  0.042746  0  3.958688  0  0  0.052404  0.038083  0  3.932357  0
C  C40  1  0.92771162  0.06705130  0.23781736  1  0  0.063294  0  3.707544  0  0  0.036883  0  3.97061  0  0  0.040874  0  3.984549  0  0  0.043514  0.033742  0  3.962029  0
C  C41  1  0.07229196  0.93294831  0.76218395  1  0  0.063341  0  3.707631  0  0  0.036934  0  3.970709  0  0  0.040921  0  3.98465  0  0  0.043526  0.033793  0  3.962129  0
C  C42  1  0.03912885  0.03620983  0.31372220  1  0  0.071109  0  3.709242  0  0  0.049511  0  3.970622  0  0  0.050538  0  3.987718  0  0  0.047369  0.048658  0  3.959322  0
C  C43  1  0.96087374  0.96378881  0.68627888  1  0  0.071161  0  3.709321  0  0  0.049557  0  3.970673  0  0  0.050585  0  3.987771  0  0  0.047382  0.048704  0  3.959375  0
C  C44  1  0.20894732  0.22833205  0.42384213  1  0  0.12551  0  3.737487  0  0  0.096102  0  3.986998  0  0  0.102267  0  4.007135  0  0  0.042321  0.092176  0  3.973601  0
C  C45  1  0.79105458  0.77166465  0.57615721  1  0  0.125555  0  3.737652  0  0  0.096153  0  3.987119  0  0  0.102318  0  4.007254  0  0  0.042369  0.092229  0  3.973721  0
C  C46  1  0.32069172  0.10844115  0.42492757  1  0  -0.173764  0  3.726883  0  0  -0.190246  0  3.972  0  0  -0.198699  0  3.995443  0  0  -0.089013  -0.184663  0  3.956679  0
C  C47  1  0.67931391  0.89155553  0.57507427  1  0  -0.173718  0  3.726821  0  0  -0.190232  0  3.971964  0  0  -0.198687  0  3.995407  0  0  -0.089037  -0.18465  0  3.956644  0
C  C48  1  0.44079384  0.06423488  0.49712976  1  0  0.091532  0  3.763676  0  0  0.105169  0  3.98693  0  0  0.108272  0  4.009838  0  0  0.010801  0.103303  0  3.970804  0
C  C49  1  0.55921055  0.93576181  0.50287065  1  0  0.091557  0  3.763524  0  0  0.105197  0  3.986782  0  0  0.1083  0  4.009689  0  0  0.010773  0.103333  0  3.970656  0
C  C50  1  0.44260368  0.14680289  0.56310223  1  0  -0.144747  0  3.664297  0  0  -0.162148  0  3.908789  0  0  -0.169534  0  3.929064  0  0  -0.078149  -0.157152  0  3.895326  0
C  C51  1  0.55739943  0.85319380  0.43690033  1  0  -0.144836  0  3.664321  0  0  -0.162227  0  3.908792  0  0  -0.169614  0  3.929068  0  0  -0.078203  -0.157231  0  3.895327  0
C  C52  1  0.32527985  0.26529364  0.55710416  1  0  0.138881  0  3.681234  0  0  0.107615  0  3.9334  0  0  0.114892  0  3.950372  0  0  0.050436  0.102802  0  3.92232  0
C  C53  1  0.67472150  0.73470500  0.44289638  1  0  0.138996  0  3.681283  0  0  0.107695  0  3.933504  0  0  0.114972  0  3.950475  0  0  0.050457  0.102882  0  3.922422  0
C  C54  1  0.19547265  0.22574061  0.94572326  1  0  0.145982  0  3.697064  0  0  0.113667  0  3.949766  0  0  0.120628  0  3.968336  0  0  0.050138  0.109316  0  3.937099  0
C  C55  1  0.80452575  0.77425511  0.05427746  1  0  0.145904  0  3.697216  0  0  0.113622  0  3.949902  0  0  0.120578  0  3.968471  0  0  0.050116  0.109269  0  3.937238  0
C  C56  1  0.30436125  0.10508922  0.94412343  1  0  -0.133561  0  3.67848  0  0  -0.151837  0  3.92818  0  0  -0.159401  0  3.949556  0  0  -0.078388  -0.146824  0  3.913987  0
C  C57  1  0.69563812  0.89490747  0.05587932  1  0  -0.133559  0  3.678323  0  0  -0.151865  0  3.928043  0  0  -0.159428  0  3.949419  0  0  -0.078443  -0.146849  0  3.913847  0
C  C58  1  0.43867249  0.06295731  0.00176965  1  0  0.094271  0  3.739416  0  0  0.103862  0  3.972676  0  0  0.107527  0  3.994475  0  0  0.010976  0.101585  0  3.957427  0
C  C59  1  0.56132681  0.93704427  0.99822947  1  0  0.094306  0  3.739382  0  0  0.103926  0  3.972639  0  0  0.10759  0  3.994437  0  0  0.010995  0.10165  0  3.957394  0
C  C60  1  0.45232001  0.14677624  0.06125913  1  0  -0.149056  0  3.694176  0  0  -0.169458  0  3.94523  0  0  -0.176614  0  3.966334  0  0  -0.080257  -0.164467  0  3.930892  0
C  C61  1  0.54768002  0.85322730  0.93873815  1  0  -0.149116  0  3.694174  0  0  -0.169563  0  3.945291  0  0  -0.176712  0  3.966389  0  0  -0.080281  -0.164585  0  3.930949  0
C  C62  1  0.33586935  0.26513781  0.06031781  1  0  0.129603  0  3.734915  0  0  0.098149  0  3.992094  0  0  0.105017  0  4.010416  0  0  0.045718  0.093763  0  3.979777  0
C  C63  1  0.66412895  0.73486770  0.93967476  1  0  0.129689  0  3.734751  0  0  0.098215  0  3.991963  0  0  0.105104  0  4.010282  0  0  0.045777  0.093828  0  3.979651  0
S  S64  1  0.30761948  0.68498945  0.29417162  1  0  1.178352  0  5.609463  0  0  1.079743  0  6.12535  0  0  1.12594  0  6.109567  0  0  0.533005  1.04812  0  6.134782  0
S  S65  1  0.69238260  0.31501115  0.70582708  1  0  1.178516  0  5.609454  0  0  1.079887  0  6.125379  0  0  1.126076  0  6.109609  0  0  0.533071  1.048262  0  6.134816  0
N  N66  1  0.21949965  0.60649584  0.44147587  1  0  -0.669347  0  3.144979  0  0  -0.590911  0  3.458789  0  0  -0.623112  0  3.46945  0  0  -0.446859  -0.567611  0  3.449503  0
N  N67  1  0.78049937  0.39350671  0.55852385  1  0  -0.669342  0  3.145106  0  0  -0.590971  0  3.458868  0  0  -0.623162  0  3.469491  0  0  -0.446873  -0.567669  0  3.449583  0
N  N68  1  0.15832863  0.92511897  0.32696832  1  0  -0.274146  0  3.09561  0  0  -0.246717  0  3.364678  0  0  -0.252243  0  3.379178  0  0  -0.3007  -0.242683  0  3.355229  0
N  N69  1  0.84167624  0.07488067  0.67302905  1  0  -0.274143  0  3.095785  0  0  -0.246742  0  3.364863  0  0  -0.252271  0  3.379363  0  0  -0.300693  -0.24271  0  3.355422  0
N  N70  1  0.93424522  0.98598945  0.17383634  1  0  -0.252993  0  3.060468  0  0  -0.217559  0  3.331842  0  0  -0.225046  0  3.346311  0  0  -0.297074  -0.212437  0  3.322142  0
N  N71  1  0.06575207  0.01401016  0.82616678  1  0  -0.253052  0  3.060541  0  0  -0.217596  0  3.33193  0  0  -0.22508  0  3.3464  0  0  -0.297094  -0.212472  0  3.322224  0
N  N72  1  0.20912726  0.30531482  0.48970801  1  0  -0.317432  0  3.251859  0  0  -0.243526  0  3.516598  0  0  -0.261467  0  3.534423  0  0  -0.326559  -0.231275  0  3.504231  0
N  N73  1  0.79087363  0.69468089  0.51029378  1  0  -0.317501  0  3.251942  0  0  -0.243596  0  3.516691  0  0  -0.261537  0  3.534514  0  0  -0.326598  -0.231345  0  3.504324  0
N  N74  1  0.20889741  0.30480425  0.00335211  1  0  -0.332908  0  3.253888  0  0  -0.257091  0  3.518384  0  0  -0.276267  0  3.536942  0  0  -0.324496  -0.243801  0  3.505143  0
N  N75  1  0.79110094  0.69519636  0.99664408  1  0  -0.332881  0  3.253986  0  0  -0.257068  0  3.518473  0  0  -0.276242  0  3.537023  0  0  -0.324473  -0.243777  0  3.50523  0
O  O76  1  0.04722317  0.48978294  0.70459471  1  0  -0.63046  0  1.947147  0  0  -0.561964  0  2.187091  0  0  -0.589426  0  2.176693  0  0  -0.327885  -0.542842  0  2.193809  0
O  O77  1  0.95277530  0.51022156  0.29540621  1  0  -0.630526  0  1.947199  0  0  -0.562048  0  2.187149  0  0  -0.589507  0  2.176745  0  0  -0.327886  -0.542926  0  2.193866  0
O  O78  1  0.14942757  0.59526760  0.78408868  1  0  -0.663613  0  1.997787  0  0  -0.602154  0  2.256356  0  0  -0.633017  0  2.245872  0  0  -0.34355  -0.580848  0  2.262564  0
O  O79  1  0.85056986  0.40474082  0.21590838  1  0  -0.663661  0  1.997562  0  0  -0.602237  0  2.25616  0  0  -0.633099  0  2.24568  0  0  -0.343674  -0.580929  0  2.262365  0
O  O80  1  0.30382141  0.62666931  0.19990107  1  0  -0.657439  0  2.018925  0  0  -0.605652  0  2.269062  0  0  -0.625721  0  2.253241  0  0  -0.341321  -0.591561  0  2.279022  0
O  O81  1  0.69618023  0.37332837  0.80009708  1  0  -0.657417  0  2.018954  0  0  -0.605633  0  2.269104  0  0  -0.625697  0  2.253288  0  0  -0.341284  -0.591537  0  2.279059  0
O  O82  1  0.47129562  0.70935564  0.27797261  1  0  -0.606914  0  1.981375  0  0  -0.55392  0  2.229758  0  0  -0.575789  0  2.221673  0  0  -0.31928  -0.538357  0  2.234972  0
O  O83  1  0.52870853  0.29064204  0.72202571  1  0  -0.607033  0  1.981377  0  0  -0.554025  0  2.229772  0  0  -0.575903  0  2.221706  0  0  -0.319377  -0.538458  0  2.234975  0
O  O84  1  0.20017498  0.59985845  0.01521301  1  0  -0.842602  0  1.843267  0  0  -0.791455  0  2.040466  0  0  -0.810342  0  2.009548  0  0  -0.582919  -0.778422  0  2.061183  0
O  O85  1  0.79982218  0.40013235  0.98479528  1  0  -0.842562  0  1.843271  0  0  -0.791415  0  2.040487  0  0  -0.810303  0  2.009568  0  0  -0.582897  -0.778383  0  2.061203  0
