# generated using pymatgen
data_AlH15(C9O2)3
_symmetry_space_group_name_H-M   'P 1'
_cell_length_a   3.98960484
_cell_length_b   16.02898547
_cell_length_c   16.02966105
_cell_angle_alpha   119.87150881
_cell_angle_beta   90.98852191
_cell_angle_gamma   90.98942615
_symmetry_Int_Tables_number   1
_chemical_formula_structural   AlH15(C9O2)3
_chemical_formula_sum   'Al1 H15 C27 O6'
_cell_volume   888.36989070
_cell_formula_units_Z   1
loop_
 _symmetry_equiv_pos_site_id
 _symmetry_equiv_pos_as_xyz
  1  'x, y, z'
loop_
 _atom_site_type_symbol
 _atom_site_label
 _atom_site_symmetry_multiplicity
 _atom_site_fract_x
 _atom_site_fract_y
 _atom_site_fract_z
 _atom_site_occupancy
 _atom_site_pbe_bader_charge
 _atom_site_pbe_bader_spin_density
 _atom_site_pbe_cm5_charge
 _atom_site_pbe_ddec_charge
 _atom_site_pbe_ddec_spin_density
 _atom_site_pbe_ddec_sum_bond_order
 _atom_site_pbe_magmom
Al  Al0  1  0.00003372  0.50016604  0.49974298  1  2.503133  0  0.427619  1.598384  0  2.570974  0
H  H1  1  0.50006755  0.92260185  0.07727788  1  0.067566  0  0.097963  0.093082  0  1.034652  0
H  H2  1  0.47596558  0.65468501  0.07733984  1  0.060662  0  0.09705  0.092602  0  1.034312  0
H  H3  1  0.52386434  0.92254103  0.34517229  1  0.062389  0  0.09722  0.092989  0  1.033796  0
H  H4  1  0.75141561  0.23603983  0.25151415  1  0.07426  0  0.107054  0.111708  0  0.984232  0
H  H5  1  0.76697512  0.05861196  0.16379414  1  0.04059  0  0.099461  0.097896  0  1.008578  0
H  H6  1  0.22447611  0.05110447  0.39021829  1  0.031194  0  0.09849  0.096409  0  1.009792  0
H  H7  1  0.21984755  0.22879099  0.47963297  1  0.079516  0  0.107246  0.111136  0  0.98366  0
H  H8  1  0.23309857  0.83610424  0.94127547  1  0.041988  0  0.099672  0.098248  0  1.008318  0
H  H9  1  0.24882824  0.74838229  0.76387012  1  0.076051  0  0.106921  0.111537  0  0.984041  0
H  H10  1  0.77993588  0.52018364  0.77112361  1  0.077941  0  0.107064  0.110827  0  0.98409  0
H  H11  1  0.77528143  0.60961794  0.94878985  1  0.061137  0  0.098427  0.096267  0  1.010217  0
H  H12  1  0.76271487  0.60748310  0.16250435  1  0.035839  0  0.09999  0.099154  0  1.009339  0
H  H13  1  0.76741200  0.51920613  0.25295192  1  0.088947  0  0.108048  0.11132  0  0.988518  0
H  H14  1  0.23251488  0.74701196  0.48073291  1  0.088611  0  0.107897  0.111217  0  0.988423  0
H  H15  1  0.23709556  0.83746718  0.39245197  1  0.036606  0  0.10001  0.099162  0  1.00901  0
C  C16  1  0.51389437  0.57414428  0.64837037  1  1.631229  0  0.283571  0.671599  0  4.044078  0
C  C17  1  0.50000394  0.57407987  0.42586857  1  1.592677  0  0.275615  0.653793  0  4.064539  0
C  C18  1  0.48619243  0.35154766  0.42574830  1  1.632668  0  0.283845  0.672179  0  4.043715  0
C  C19  1  0.49952108  0.78248446  0.06496497  1  -0.015678  0  -0.0058  0.082517  0  4.01979  0
C  C20  1  0.50007245  0.88332282  0.11655764  1  -0.172593  0  -0.088069  -0.17179  0  3.92394  0
C  C21  1  0.50047502  0.93492182  0.21738246  1  -0.01769  0  -0.005773  0.082008  0  4.019753  0
C  C22  1  0.50582247  0.88328823  0.26676807  1  0.054571  0  -0.089822  -0.177995  0  3.935641  0
C  C23  1  0.49988501  0.78237615  0.21750155  1  -0.188312  0  -0.00793  0.076732  0  4.023637  0
C  C24  1  0.49400949  0.73309209  0.11659859  1  0.052129  0  -0.089788  -0.177501  0  3.935234  0
C  C25  1  0.63304523  0.19529414  0.28141089  1  -0.067294  0  -0.085515  -0.104674  0  3.99336  0
C  C26  1  0.63934203  0.09524507  0.23195624  1  0.028067  0  -0.089198  -0.12663  0  3.994714  0
C  C27  1  0.49685479  0.04123377  0.27028212  1  0.004963  0  -0.010204  0.061216  0  4.00258  0
C  C28  1  0.34740613  0.09128061  0.36032862  1  0.015056  0  -0.089729  -0.127345  0  3.994803  0
C  C29  1  0.34194004  0.19133752  0.41061467  1  -0.033575  0  -0.085333  -0.102953  0  3.992915  0
C  C30  1  0.48489800  0.24388296  0.37126733  1  -0.095025  0  -0.007962  -0.022194  0  3.95505  0
C  C31  1  0.36077135  0.76793805  0.90465669  1  0.0012  0  -0.089303  -0.126413  0  3.995214  0
C  C32  1  0.36713427  0.71847872  0.80462835  1  -0.067142  0  -0.085681  -0.10463  0  3.992729  0
C  C33  1  0.51515226  0.62860128  0.75602350  1  -0.095992  0  -0.007775  -0.021967  0  3.955055  0
C  C34  1  0.65794468  0.58923448  0.80857011  1  -0.033828  0  -0.085376  -0.103032  0  3.993223  0
C  C35  1  0.65250495  0.63952010  0.90861402  1  -0.016387  0  -0.089473  -0.126059  0  3.994928  0
C  C36  1  0.50313277  0.72959228  0.95866425  1  0.03247  0  -0.009948  0.059295  0  4.004401  0
C  C37  1  0.64319805  0.63809774  0.23187568  1  -0.009165  0  -0.090402  -0.13439  0  3.986785  0
C  C38  1  0.64817631  0.58853271  0.28241235  1  -0.03801  0  -0.079351  -0.079945  0  3.981533  0
C  C39  1  0.50003412  0.62753633  0.37243747  1  -0.026775  0  -0.01421  -0.051291  0  3.975396  0
C  C40  1  0.35177399  0.71755924  0.41142438  1  -0.0386  0  -0.079118  -0.079856  0  3.981068  0
C  C41  1  0.35669351  0.76808480  0.36184226  1  -0.009839  0  -0.090366  -0.134214  0  3.987456  0
C  C42  1  0.49989204  0.72917557  0.27077164  1  -0.001179  0  -0.000663  0.078225  0  3.985721  0
O  O43  1  0.24923207  0.39287714  0.40764341  1  -1.257595  0  -0.234365  -0.593039  0  2.346081  0
O  O44  1  0.27321520  0.51322127  0.60551007  1  -1.246421  0  -0.237184  -0.598788  0  2.348657  0
O  O45  1  0.27139900  0.59234900  0.48712547  1  -1.267943  0  -0.241593  -0.606433  0  2.366604  0
O  O46  1  0.72687306  0.39437745  0.48664975  1  -1.245884  0  -0.237254  -0.599143  0  2.349463  0
O  O47  1  0.72861950  0.51278538  0.40756436  1  -1.268459  0  -0.241707  -0.606452  0  2.365678  0
O  O48  1  0.75086016  0.59226365  0.60704952  1  -1.258075  0  -0.234271  -0.592768  0  2.346087  0
