# generated using pymatgen
data_MnH12C8(N5O)2
_symmetry_space_group_name_H-M   'P 1'
_cell_length_a   8.58444595
_cell_length_b   9.61178971
_cell_length_c   10.22025271
_cell_angle_alpha   106.15550057
_cell_angle_beta   101.83422380
_cell_angle_gamma   117.18892630
_symmetry_Int_Tables_number   1
_chemical_formula_structural   MnH12C8(N5O)2
_chemical_formula_sum   'Mn2 H24 C16 N20 O4'
_cell_volume   663.79121601
_cell_formula_units_Z   2
loop_
 _symmetry_equiv_pos_site_id
 _symmetry_equiv_pos_as_xyz
  1  'x, y, z'
loop_
 _atom_site_type_symbol
 _atom_site_label
 _atom_site_symmetry_multiplicity
 _atom_site_fract_x
 _atom_site_fract_y
 _atom_site_fract_z
 _atom_site_occupancy
 _atom_site_hle17_ddec_charge
 _atom_site_hle17_ddec_spin_density
 _atom_site_hle17_ddec_sum_bond_order
 _atom_site_hle17_magmom
 _atom_site_hse06_10hf_ddec_charge
 _atom_site_hse06_10hf_ddec_spin_density
 _atom_site_hse06_10hf_ddec_sum_bond_order
 _atom_site_hse06_10hf_magmom
 _atom_site_hse06_ddec_charge
 _atom_site_hse06_ddec_spin_density
 _atom_site_hse06_ddec_sum_bond_order
 _atom_site_hse06_magmom
 _atom_site_pbe_cm5_charge
 _atom_site_pbe_ddec_charge
 _atom_site_pbe_ddec_spin_density
 _atom_site_pbe_ddec_sum_bond_order
 _atom_site_pbe_magmom
Mn  Mn0  1  0.92053843  0.50928190  0.73731975  1  1.027521  4.799441  1.902359  4.666  0.834349  4.722889  2.424808  4.517  0.89135  4.767108  2.359224  4.581  0.635215  0.790002  4.677241  2.473645  4.453
Mn  Mn1  1  0.68275382  0.77175480  0.26259310  1  1.025608  4.794353  1.905263  4.667  0.831934  4.71811  2.427687  4.517  0.888946  4.762114  2.362207  4.581  0.634183  0.78796  4.672081  2.476388  4.453
H  H2  1  0.52815008  0.03714810  0.28842943  1  0.286427  0.000153  0.978281  0.0  0.248894  0.000452  1.072058  0.0  0.25831  0.000338  1.065077  0.0  0.305501  0.242293  0.000575  1.07694  0.0
H  H3  1  0.73925682  0.74835868  0.71139297  1  0.286047  0.000137  0.978981  0.0  0.248444  0.000444  1.072251  0.0  0.257774  0.000336  1.065389  0.0  0.305673  0.24143  0.00057  1.077668  0.0
H  H4  1  0.95520512  0.61147605  0.21200853  1  0.289586  5.1e-05  0.970722  0.0  0.253256  0.000309  1.062281  0.0  0.262724  0.000217  1.055102  0.0  0.306924  0.246125  0.000438  1.068016  0.0
H  H5  1  0.24317064  0.39943957  0.78799835  1  0.288938  9.6e-05  0.972629  0.0  0.253252  0.00034  1.063279  0.0  0.262826  0.000239  1.055952  0.0  0.307339  0.246681  0.000439  1.068125  0.0
H  H6  1  0.23780751  0.09099883  0.42718505  1  0.106613  -5.4e-05  0.952208  0.0  0.110515  0.000234  1.029677  0.0  0.11384  0.000125  1.027173  0.0  0.10278  0.108179  0.00034  1.031428  0.0
H  H7  1  0.31021354  0.66400095  0.57283571  1  0.106899  -7.4e-05  0.95361  0.0  0.110395  0.000213  1.031294  0.0  0.113773  0.000107  1.028769  0.0  0.102864  0.108065  0.000341  1.033016  0.0
H  H8  1  0.27862715  0.03904417  0.26215231  1  0.095593  0.000118  0.939978  0.0  0.108075  0.000258  1.00024  0.0  0.11012  0.000155  0.999831  0.0  0.098705  0.106661  0.000374  1.000478  0.0
H  H9  1  0.51602691  0.77650804  0.73782704  1  0.095062  0.000121  0.941136  0.0  0.107288  0.000278  1.001728  0.0  0.109327  0.000175  1.001364  0.0  0.098306  0.105811  0.000371  1.002159  0.0
H  H10  1  0.16033479  0.23471161  0.28282617  1  0.10195  -2e-06  0.957625  0.0  0.125225  4.9e-05  1.016725  0.0  0.125989  1.7e-05  1.017973  0.0  0.090269  0.124616  7.5e-05  1.015966  0.0
H  H11  1  0.37810908  0.95244003  0.71741391  1  0.100836  -3e-06  0.957464  0.0  0.124306  3.6e-05  1.016533  0.0  0.125052  8e-06  1.017802  0.0  0.089537  0.123771  7.7e-05  1.015707  0.0
H  H12  1  0.39583423  0.34630070  0.28949873  1  0.103714  -0.000304  0.953755  0.0  0.123387  -0.000365  1.016199  0.0  0.125165  -0.000366  1.016155  0.0  0.085084  0.122059  -0.000338  1.016359  0.0
H  H13  1  0.60687455  0.05670923  0.71058720  1  0.103306  -0.000296  0.954285  0.0  0.123688  -0.000359  1.015687  0.0  0.125495  -0.00036  1.015617  0.0  0.08539  0.122299  -0.000337  1.015908  0.0
H  H14  1  0.35241650  0.39035949  0.45518504  1  0.0972  -0.000126  0.960248  0.0  0.115561  -0.000122  1.026198  0.0  0.117011  -0.000143  1.026433  0.0  0.084852  0.114609  -9.2e-05  1.025859  0.0
H  H15  1  0.39775906  0.93550516  0.54501293  1  0.097353  -0.000128  0.959724  0.0  0.115685  -0.000138  1.025842  0.0  0.117153  -0.000154  1.026028  0.0  0.084782  0.114638  -9.3e-05  1.025684  0.0
H  H16  1  0.08376739  0.45210798  0.23062627  1  0.107743  0.000307  0.919475  0.0  0.122811  0.000615  0.975321  0.001  0.125284  0.000423  0.974197  0.0  0.106089  0.120885  0.000818  0.976404  0.001
H  H17  1  0.35288758  0.22125414  0.76968303  1  0.107526  0.000305  0.919405  0.0  0.122614  0.000581  0.975452  0.001  0.125077  0.000399  0.974372  0.0  0.106459  0.120649  0.000823  0.976464  0.001
H  H18  1  0.04389232  0.28928688  0.06760513  1  0.105885  -0.00017  0.927251  0.0  0.122288  -0.000121  0.982918  0.0  0.123967  -0.000126  0.982995  0.0  0.104568  0.121349  -8.3e-05  0.98262  0.0
H  H19  1  0.47566823  0.22142488  0.93287952  1  0.104946  -0.000165  0.928018  0.0  0.121392  -0.000103  0.984117  0.0  0.123089  -0.000113  0.98419  0.0  0.103761  0.120391  -8.3e-05  0.983829  0.0
H  H20  1  0.83014061  0.15423592  0.18892785  1  0.100754  -0.000167  0.973798  0.0  0.113601  -9e-06  1.05106  0.0  0.115373  -8e-05  1.05087  0.0  0.087131  0.112317  3.7e-05  1.051371  0.0
H  H21  1  0.14072796  0.96504845  0.81108715  1  0.101124  -0.000175  0.974298  0.0  0.113949  -2.2e-05  1.051484  0.0  0.115664  -9.2e-05  1.051333  0.0  0.086912  0.112592  3.7e-05  1.051947  0.0
H  H22  1  0.69321392  0.11949332  0.01497887  1  0.101308  -4.5e-05  0.950678  0.0  0.122243  -2.7e-05  1.012579  0.0  0.1235  -4.1e-05  1.012932  0.0  0.088242  0.121278  -4e-06  1.012346  0.0
H  H23  1  0.17738828  0.10393835  0.98498055  1  0.101364  -4.4e-05  0.950274  0.0  0.122248  -2.8e-05  1.012147  0.0  0.123397  -4.2e-05  1.012608  0.0  0.088889  0.121319  -4e-06  1.011791  0.0
H  H24  1  0.73278958  0.28167506  0.17907723  1  0.096322  -9e-05  0.951316  0.0  0.113941  -0.000118  1.017363  0.0  0.115692  -0.000118  1.017291  0.0  0.08408  0.112658  -8.7e-05  1.017574  0.0
H  H25  1  0.05308545  0.10220975  0.82088459  1  0.097347  -9.5e-05  0.950841  0.0  0.114758  -0.000117  1.017158  0.0  0.116503  -0.000118  1.017073  0.0  0.083815  0.113423  -8.7e-05  1.017416  0.0
C  C26  1  0.78309305  0.16152588  0.46615675  1  0.505424  0.007233  3.791462  0.009  0.458637  0.010991  4.064514  0.012  0.478625  0.009338  4.078091  0.011  0.342215  0.44492  0.012458  4.055353  0.013
C  C27  1  0.81663081  0.69532383  0.53375678  1  0.507922  0.007106  3.788334  0.009  0.461254  0.010878  4.06053  0.012  0.481289  0.009221  4.07403  0.011  0.344816  0.447461  0.012471  4.051378  0.014
C  C28  1  0.52841427  0.21081629  0.46335947  1  0.629243  0.00268  3.710619  0.003  0.585603  0.006406  3.991455  0.006  0.616078  0.00466  3.990497  0.005  0.262406  0.564587  0.008435  3.991308  0.007
C  C29  1  0.56452095  0.74720576  0.53655962  1  0.626057  0.002538  3.715849  0.003  0.582915  0.006236  3.995308  0.006  0.613471  0.004519  3.99424  0.004  0.261429  0.56183  0.008427  3.995183  0.007
C  C30  1  0.32846811  0.14473081  0.36925797  1  -0.226825  0.001152  3.707932  0.001  -0.260738  0.001744  3.962612  0.002  -0.26611  0.001241  3.971212  0.001  -0.164952  -0.256889  0.002293  3.956513  0.002
C  C31  1  0.45890737  0.77535239  0.63081405  1  -0.224969  0.001099  3.710244  0.001  -0.258835  0.001635  3.964726  0.001  -0.26431  0.001154  3.973373  0.001  -0.164527  -0.255007  0.0023  3.9589  0.002
C  C32  1  0.30935802  0.28844858  0.34798191  1  -0.259252  -9.1e-05  3.681454  0.0  -0.334252  0.000101  3.924213  0.0  -0.336203  -2.2e-05  3.934719  0.0  -0.245457  -0.332781  0.000258  3.917121  0.0
C  C33  1  0.46177103  0.94064604  0.65218381  1  -0.258343  -0.000124  3.680914  0.0  -0.333796  8.3e-05  3.923225  0.0  -0.335754  -3.6e-05  3.933721  0.0  -0.244773  -0.332302  0.000258  3.916186  0.0
C  C34  1  0.87628289  0.66417248  0.03598385  1  0.501485  0.008133  3.802852  0.01  0.452371  0.012136  4.081259  0.013  0.472626  0.010191  4.094327  0.011  0.336227  0.438405  0.014255  4.072349  0.015
C  C35  1  0.34037421  0.62825650  0.96389589  1  0.503549  0.008185  3.799512  0.01  0.45394  0.012133  4.078081  0.013  0.474109  0.010207  4.091287  0.011  0.336672  0.440108  0.014345  4.069186  0.015
C  C36  1  0.93437031  0.43651072  0.02529850  1  0.627118  0.003464  3.710293  0.003  0.582152  0.007589  3.99548  0.007  0.6129  0.005433  3.9938  0.005  0.259778  0.560717  0.010734  3.996277  0.009
C  C37  1  0.40846942  0.41091382  0.97484569  1  0.626472  0.003825  3.712622  0.004  0.583287  0.008049  3.995479  0.007  0.614052  0.005766  3.993781  0.005  0.259282  0.56182  0.010791  3.996446  0.009
C  C38  1  0.97962271  0.35305448  0.11879285  1  -0.219585  0.000927  3.688819  0.001  -0.253114  0.001478  3.940653  0.001  -0.258192  0.001041  3.949226  0.001  -0.160641  -0.249853  0.002075  3.935005  0.002
C  C39  1  0.36028272  0.23396748  0.88145342  1  -0.216755  0.000982  3.686928  0.001  -0.251748  0.001579  3.940094  0.001  -0.256807  0.00111  3.948596  0.001  -0.159652  -0.248412  0.002077  3.934375  0.002
C  C40  1  0.79760050  0.21968864  0.12595139  1  -0.269911  -4.6e-05  3.700991  0.0  -0.350657  0.000296  3.958288  0.0  -0.352446  0.000137  3.967618  0.0  -0.245977  -0.349136  0.000477  3.952027  0.0
C  C41  1  0.17102350  0.09338748  0.87408891  1  -0.271729  -2.3e-05  3.69926  0.0  -0.351856  0.000319  3.957443  0.0  -0.353541  0.000152  3.966871  0.0  -0.246405  -0.350446  0.000479  3.951197  0.0
N  N42  1  0.92415407  0.29810321  0.59089870  1  -0.376768  0.026497  3.118518  0.012  -0.324671  0.030754  3.420255  0.011  -0.344348  0.027068  3.429437  0.009  -0.235373  -0.309947  0.034109  3.413412  0.014
N  N43  1  0.83278444  0.70703736  0.40892880  1  -0.377221  0.026755  3.117424  0.013  -0.325021  0.031039  3.418718  0.012  -0.3448  0.02733  3.428014  0.009  -0.235732  -0.310633  0.034125  3.412668  0.014
N  N44  1  0.06600402  0.26970224  0.61343487  1  -0.0737  0.003022  3.069567  0.005  -0.047098  0.006125  3.352727  0.007  -0.049133  0.004491  3.366037  0.006  -0.076537  -0.04573  0.007906  3.343247  0.009
N  N45  1  0.95231993  0.65633781  0.38646905  1  -0.074101  0.002864  3.07027  0.004  -0.04741  0.005856  3.353271  0.007  -0.049441  0.004303  3.366681  0.006  -0.076871  -0.045871  0.007932  3.344622  0.009
N  N46  1  0.01396958  0.12415838  0.50886639  1  -0.04874  0.005753  2.961066  0.007  -0.045022  0.009624  3.252657  0.01  -0.043447  0.007854  3.265584  0.009  -0.075067  -0.045852  0.011936  3.243729  0.012
N  N47  1  0.00510960  0.61559600  0.49115024  1  -0.051652  0.00566  2.96082  0.007  -0.047928  0.009527  3.252709  0.01  -0.046353  0.007789  3.265671  0.008  -0.076633  -0.048771  0.011986  3.243816  0.012
N  N48  1  0.83523466  0.05161845  0.41247040  1  -0.389673  0.027008  3.077152  0.012  -0.333314  0.033857  3.383349  0.013  -0.354075  0.029555  3.393354  0.01  -0.227484  -0.318365  0.037748  3.376256  0.016
N  N49  1  0.92274131  0.63936119  0.58754885  1  -0.387816  0.027318  3.072948  0.012  -0.331639  0.034051  3.37885  0.013  -0.352382  0.029751  3.388725  0.01  -0.227341  -0.316611  0.037707  3.372282  0.016
N  N50  1  0.60828775  0.13244752  0.39866497  1  -0.492235  0.001212  3.345326  0.002  -0.431552  0.002895  3.596076  0.003  -0.456286  0.001949  3.602241  0.002  -0.378246  -0.41444  0.003822  3.591674  0.004
N  N51  1  0.70913086  0.73351431  0.60116459  1  -0.492707  0.001344  3.348081  0.002  -0.431263  0.00308  3.597327  0.003  -0.455957  0.002089  3.603446  0.002  -0.379721  -0.413917  0.003806  3.593223  0.004
N  N52  1  0.85299330  0.65064879  0.89820439  1  -0.382124  0.026785  3.122231  0.013  -0.330135  0.031475  3.423353  0.012  -0.349883  0.027453  3.432634  0.009  -0.239972  -0.31544  0.03513  3.41672  0.015
N  N53  1  0.45465225  0.75241800  0.10169312  1  -0.382244  0.026663  3.122796  0.012  -0.328674  0.031353  3.422801  0.012  -0.348427  0.027332  3.432094  0.009  -0.238886  -0.314111  0.035026  3.41602  0.015
N  N54  1  0.80340502  0.76329232  0.88761752  1  -0.07411  0.003273  3.086672  0.005  -0.044332  0.00635  3.373428  0.007  -0.046229  0.004625  3.38649  0.006  -0.078481  -0.042686  0.00894  3.364444  0.01
N  N55  1  0.41590513  0.87581029  0.11209649  1  -0.074218  0.003797  3.08648  0.005  -0.045651  0.007084  3.374312  0.008  -0.047571  0.005201  3.38734  0.006  -0.078998  -0.044296  0.009022  3.365121  0.01
N  N56  1  0.93118516  0.57642688  0.09903505  1  -0.487806  0.000787  3.333921  0.001  -0.426756  0.002438  3.582967  0.003  -0.451448  0.001538  3.589094  0.002  -0.379664  -0.409639  0.003278  3.579114  0.003
N  N57  1  0.33196625  0.47729091  0.90097987  1  -0.488855  0.000647  3.334472  0.001  -0.428925  0.00228  3.583254  0.002  -0.453577  0.001415  3.589185  0.002  -0.380464  -0.412092  0.003282  3.579066  0.003
N  N58  1  0.79620197  0.84027351  0.01118762  1  -0.059545  0.006278  2.940202  0.007  -0.061353  0.010194  3.234985  0.011  -0.058937  0.008243  3.247472  0.009  -0.084029  -0.062571  0.012564  3.226046  0.013
N  N59  1  0.28545091  0.82934691  0.98837973  1  -0.056759  0.006365  2.940304  0.007  -0.058269  0.010387  3.235019  0.011  -0.055797  0.008364  3.247475  0.009  -0.083484  -0.0596  0.012629  3.226284  0.013
N  N60  1  0.84067371  0.78000091  0.10876969  1  -0.392805  0.024268  3.037176  0.011  -0.338887  0.032231  3.343805  0.013  -0.359021  0.027696  3.353212  0.01  -0.231715  -0.324675  0.036379  3.337846  0.016
N  N61  1  0.23230189  0.67145424  0.89089693  1  -0.396089  0.023851  3.039787  0.01  -0.341754  0.03167  3.34619  0.013  -0.361955  0.027226  3.355656  0.01  -0.23237  -0.327765  0.036334  3.340003  0.016
O  O62  1  0.89593865  0.37582149  0.88918009  1  -0.567191  0.026442  2.015284  0.02  -0.509696  0.034654  2.268787  0.026  -0.535295  0.030248  2.259108  0.022  -0.277549  -0.491262  0.038886  2.27512  0.03
O  O63  1  0.50594505  0.48628027  0.11098566  1  -0.567345  0.026115  2.016407  0.019  -0.509915  0.034403  2.268677  0.026  -0.535379  0.030006  2.258762  0.022  -0.277082  -0.491669  0.038905  2.27541  0.03
O  O64  1  0.61197496  0.32804052  0.59238927  1  -0.563057  0.028432  2.003015  0.022  -0.501183  0.036691  2.252389  0.028  -0.527426  0.032035  2.242534  0.024  -0.279025  -0.481823  0.041483  2.258698  0.033
O  O65  1  0.51914806  0.73571613  0.40761852  1  -0.56011  0.028675  2.004712  0.022  -0.498813  0.037042  2.254072  0.028  -0.525021  0.032315  2.244088  0.024  -0.277071  -0.479316  0.041493  2.260151  0.033
