# generated using pymatgen
data_H3W2C2(NO2)3
_symmetry_space_group_name_H-M   'P 1'
_cell_length_a   3.83319777
_cell_length_b   13.62463160
_cell_length_c   14.15060785
_cell_angle_alpha   90.00007928
_cell_angle_beta   89.99991457
_cell_angle_gamma   90.00001875
_symmetry_Int_Tables_number   1
_chemical_formula_structural   H3W2C2(NO2)3
_chemical_formula_sum   'H12 W8 C8 N12 O24'
_cell_volume   739.02833629
_cell_formula_units_Z   4
loop_
 _symmetry_equiv_pos_site_id
 _symmetry_equiv_pos_as_xyz
  1  'x, y, z'
loop_
 _atom_site_type_symbol
 _atom_site_label
 _atom_site_symmetry_multiplicity
 _atom_site_fract_x
 _atom_site_fract_y
 _atom_site_fract_z
 _atom_site_occupancy
 _atom_site_hle17_bader_spin_density
 _atom_site_hle17_ddec_charge
 _atom_site_hle17_ddec_spin_density
 _atom_site_hle17_ddec_sum_bond_order
 _atom_site_hle17_magmom
 _atom_site_hse06_10hf_bader_spin_density
 _atom_site_hse06_10hf_ddec_charge
 _atom_site_hse06_10hf_ddec_spin_density
 _atom_site_hse06_10hf_ddec_sum_bond_order
 _atom_site_hse06_10hf_magmom
 _atom_site_hse06_bader_spin_density
 _atom_site_hse06_ddec_charge
 _atom_site_hse06_ddec_spin_density
 _atom_site_hse06_ddec_sum_bond_order
 _atom_site_hse06_magmom
 _atom_site_pbe_bader_spin_density
 _atom_site_pbe_cm5_charge
 _atom_site_pbe_ddec_charge
 _atom_site_pbe_ddec_spin_density
 _atom_site_pbe_ddec_sum_bond_order
 _atom_site_pbe_magmom
H  H0  1  0.34013221  0.59541330  0.68131170  1  0  0.131219  0  0.946398  0  0  0.137641  0  1.011929  0  0  0.141408  0  1.006768  0  0  0.147547  0.134854  0  1.01566  0
H  H1  1  0.84012157  0.40458771  0.81868720  1  0  0.131237  0  0.946409  0  0  0.137687  0  1.011902  0  0  0.141454  0  1.00674  0  0  0.14754  0.134896  0  1.015633  0
H  H2  1  0.65988247  0.90458682  0.18131283  1  0  0.131218  0  0.94649  0  0  0.137672  0  1.011975  0  0  0.141438  0  1.006816  0  0  0.14754  0.134885  0  1.015707  0
H  H3  1  0.15987091  0.09541272  0.31868882  1  0  0.131188  0  0.946471  0  0  0.137637  0  1.011979  0  0  0.141406  0  1.006815  0  0  0.147513  0.13485  0  1.01571  0
H  H4  1  0.47306542  0.75124952  0.78015205  1  0  0.328164  0  0.905885  0  0  0.303813  0  0.975033  0  0  0.313873  0  0.966682  0  0  0.319238  0.296789  0  0.980906  0
H  H5  1  0.97306038  0.24875151  0.71984679  1  0  0.328178  0  0.905863  0  0  0.303827  0  0.975015  0  0  0.313887  0  0.966665  0  0  0.319253  0.296803  0  0.980884  0
H  H6  1  0.52694350  0.74875148  0.28015232  1  0  0.328147  0  0.90591  0  0  0.303806  0  0.975046  0  0  0.313865  0  0.966696  0  0  0.319254  0.296783  0  0.98092  0
H  H7  1  0.02694048  0.25124805  0.21984867  1  0  0.328209  0  0.905825  0  0  0.303854  0  0.974983  0  0  0.313911  0  0.966633  0  0  0.319272  0.296832  0  0.980853  0
H  H8  1  0.36024615  0.90683823  0.67944273  1  0  0.131409  0  0.950911  0  0  0.137783  0  1.016328  0  0  0.141576  0  1.01124  0  0  0.147231  0.134965  0  1.020057  0
H  H9  1  0.86025080  0.09316204  0.82055757  1  0  0.131452  0  0.950873  0  0  0.137817  0  1.016291  0  0  0.14161  0  1.011202  0  0  0.147218  0.134999  0  1.020022  0
H  H10  1  0.63975029  0.59316262  0.17944344  1  0  0.131457  0  0.950892  0  0  0.137814  0  1.016317  0  0  0.141607  0  1.011226  0  0  0.147221  0.134996  0  1.020049  0
H  H11  1  0.13975472  0.40683692  0.32055750  1  0  0.131396  0  0.950951  0  0  0.13779  0  1.016342  0  0  0.141584  0  1.01125  0  0  0.147215  0.134975  0  1.020072  0
W  W12  1  0.20392551  0.61395012  0.42368959  1  0  2.441527  0  4.271356  0  0  2.458546  0  4.79745  0  0  2.569282  0  4.738118  0  0  1.688118  2.384095  0  4.83624  0
W  W13  1  0.70392925  0.38605089  0.07630850  1  0  2.441482  0  4.271419  0  0  2.458498  0  4.797519  0  0  2.569231  0  4.738192  0  0  1.688095  2.384044  0  4.836308  0
W  W14  1  0.79607478  0.88604961  0.92368938  1  0  2.441536  0  4.271348  0  0  2.458554  0  4.797447  0  0  2.569284  0  4.73812  0  0  1.688128  2.384095  0  4.836243  0
W  W15  1  0.29606719  0.11394919  0.57630812  1  0  2.441509  0  4.271366  0  0  2.458528  0  4.797463  0  0  2.569258  0  4.738138  0  0  1.688108  2.384068  0  4.836249  0
W  W16  1  0.20643011  0.88566756  0.42190186  1  0  2.440891  0  4.272733  0  0  2.457938  0  4.79902  0  0  2.568667  0  4.739776  0  0  1.687347  2.383458  0  4.83774  0
W  W17  1  0.70642831  0.11432979  0.07809764  1  0  2.440932  0  4.272877  0  0  2.457986  0  4.79915  0  0  2.568716  0  4.739907  0  0  1.687384  2.383514  0  4.837874  0
W  W18  1  0.79357280  0.61433217  0.92190058  1  0  2.440872  0  4.272772  0  0  2.457922  0  4.799057  0  0  2.568657  0  4.739811  0  0  1.687335  2.383445  0  4.83778  0
W  W19  1  0.29356812  0.38567030  0.57809763  1  0  2.440977  0  4.272813  0  0  2.458024  0  4.799085  0  0  2.568753  0  4.739843  0  0  1.687405  2.383546  0  4.837795  0
C  C20  1  0.32441177  0.67087587  0.65654462  1  0  0.254208  0  3.56534  0  0  0.192673  0  3.837578  0  0  0.209712  0  3.844047  0  0  0.17634  0.181728  0  3.832942  0
C  C21  1  0.82440091  0.32912367  0.84345499  1  0  0.254151  0  3.565394  0  0  0.19262  0  3.837586  0  0  0.209659  0  3.844057  0  0  0.176381  0.181682  0  3.832946  0
C  C22  1  0.67559523  0.82912568  0.15654493  1  0  0.254199  0  3.56527  0  0  0.192654  0  3.837468  0  0  0.209693  0  3.843941  0  0  0.176371  0.181706  0  3.832834  0
C  C23  1  0.17559405  0.17087386  0.34345600  1  0  0.254329  0  3.565201  0  0  0.192758  0  3.837436  0  0  0.209797  0  3.843904  0  0  0.176421  0.181818  0  3.832798  0
C  C24  1  0.33479483  0.83125599  0.65547410  1  0  0.25345  0  3.565089  0  0  0.192058  0  3.836777  0  0  0.208971  0  3.843349  0  0  0.176472  0.181189  0  3.832085  0
C  C25  1  0.83479683  0.16874576  0.84452409  1  0  0.253315  0  3.565258  0  0  0.191977  0  3.836901  0  0  0.208886  0  3.843479  0  0  0.176482  0.181107  0  3.83221  0
C  C26  1  0.66520695  0.66874410  0.15547562  1  0  0.253283  0  3.565271  0  0  0.191954  0  3.836907  0  0  0.208865  0  3.84348  0  0  0.176461  0.18108  0  3.832221  0
C  C27  1  0.16520333  0.33125618  0.34452390  1  0  0.253442  0  3.565091  0  0  0.192056  0  3.836734  0  0  0.208968  0  3.84331  0  0  0.176482  0.181187  0  3.832044  0
N  N28  1  0.24642753  0.70035770  0.57007628  1  0  -0.28781  0  3.16273  0  0  -0.256924  0  3.455781  0  0  -0.27213  0  3.47296  0  0  -0.256326  -0.24697  0  3.44414  0
N  N29  1  0.74642659  0.29964330  0.92992336  1  0  -0.287833  0  3.162825  0  0  -0.256942  0  3.455886  0  0  -0.272144  0  3.473065  0  0  -0.256362  -0.246993  0  3.44425  0
N  N30  1  0.75357734  0.79964226  0.07007582  1  0  -0.287857  0  3.162749  0  0  -0.256944  0  3.455787  0  0  -0.272149  0  3.472967  0  0  -0.256338  -0.246992  0  3.444143  0
N  N31  1  0.25357049  0.20035803  0.42992437  1  0  -0.287888  0  3.162817  0  0  -0.256974  0  3.455862  0  0  -0.272178  0  3.473041  0  0  -0.256345  -0.247018  0  3.444216  0
N  N32  1  0.38113453  0.75117093  0.71123984  1  0  -0.2915  0  3.362315  0  0  -0.220204  0  3.59867  0  0  -0.238155  0  3.606392  0  0  -0.356071  -0.208383  0  3.593157  0
N  N33  1  0.88112911  0.24882788  0.78876045  1  0  -0.291454  0  3.362498  0  0  -0.220198  0  3.59886  0  0  -0.238148  0  3.606582  0  0  -0.356123  -0.20838  0  3.593343  0
N  N34  1  0.61887216  0.74882850  0.21124077  1  0  -0.291453  0  3.362411  0  0  -0.220209  0  3.598783  0  0  -0.238158  0  3.606503  0  0  -0.356134  -0.208391  0  3.593275  0
N  N35  1  0.11886354  0.25117104  0.28875735  1  0  -0.291559  0  3.36222  0  0  -0.220279  0  3.598602  0  0  -0.23823  0  3.606325  0  0  -0.356109  -0.208456  0  3.59309  0
N  N36  1  0.25254780  0.80138649  0.56943256  1  0  -0.288784  0  3.164661  0  0  -0.257518  0  3.457698  0  0  -0.272662  0  3.474894  0  0  -0.25684  -0.247605  0  3.446057  0
N  N37  1  0.75255196  0.19861451  0.93056707  1  0  -0.288686  0  3.164615  0  0  -0.257466  0  3.457665  0  0  -0.272611  0  3.474862  0  0  -0.25681  -0.247555  0  3.446025  0
N  N38  1  0.74744924  0.69861494  0.06943409  1  0  -0.288656  0  3.164672  0  0  -0.257439  0  3.4577  0  0  -0.272582  0  3.474897  0  0  -0.256801  -0.247527  0  3.446055  0
N  N39  1  0.24745033  0.30138535  0.43056964  1  0  -0.288769  0  3.164611  0  0  -0.257519  0  3.457636  0  0  -0.272665  0  3.474835  0  0  -0.256848  -0.247602  0  3.44599  0
O  O40  1  0.25261090  0.74931889  0.38311968  1  0  -0.960449  0  1.911178  0  0  -0.959553  0  2.214539  0  0  -1.001762  0  2.201948  0  0  -0.6086  -0.930483  0  2.221887  0
O  O41  1  0.75261426  0.25068139  0.11688051  1  0  -0.960446  0  1.911079  0  0  -0.959531  0  2.214415  0  0  -1.001736  0  2.201822  0  0  -0.608588  -0.930466  0  2.221774  0
O  O42  1  0.74738962  0.75068078  0.88312001  1  0  -0.960472  0  1.911246  0  0  -0.95957  0  2.214604  0  0  -1.001778  0  2.202017  0  0  -0.608599  -0.930488  0  2.221925  0
O  O43  1  0.24738196  0.24931875  0.61688033  1  0  -0.960456  0  1.911087  0  0  -0.95954  0  2.214428  0  0  -1.001749  0  2.201837  0  0  -0.608578  -0.930477  0  2.221788  0
O  O44  1  0.24906248  0.50018344  0.50161478  1  0  -0.932304  0  1.884341  0  0  -0.932943  0  2.188792  0  0  -0.976458  0  2.174612  0  0  -0.611556  -0.903256  0  2.197608  0
O  O45  1  0.74907182  0.49981316  0.99838274  1  0  -0.932288  0  1.884399  0  0  -0.932884  0  2.188775  0  0  -0.976415  0  2.174623  0  0  -0.611481  -0.903183  0  2.197564  0
O  O46  1  0.75093494  0.99981863  0.00161529  1  0  -0.932297  0  1.884318  0  0  -0.932937  0  2.188771  0  0  -0.976451  0  2.17459  0  0  -0.611549  -0.903245  0  2.197582  0
O  O47  1  0.25093270  0.00018606  0.49838773  1  0  -0.932265  0  1.884339  0  0  -0.93287  0  2.18874  0  0  -0.976392  0  2.174575  0  0  -0.611531  -0.90318  0  2.197552  0
O  O48  1  0.22734749  0.56264077  0.31145056  1  0  -0.693952  0  1.478203  0  0  -0.696856  0  1.721622  0  0  -0.724091  0  1.706985  0  0  -0.523235  -0.678496  0  1.731347  0
O  O49  1  0.72734805  0.43736099  0.18854823  1  0  -0.693925  0  1.478127  0  0  -0.69684  0  1.721562  0  0  -0.724074  0  1.706925  0  0  -0.523231  -0.678474  0  1.731284  0
O  O50  1  0.77265082  0.93735881  0.81145113  1  0  -0.693925  0  1.478219  0  0  -0.696832  0  1.721642  0  0  -0.724068  0  1.70701  0  0  -0.523219  -0.678474  0  1.73137  0
O  O51  1  0.27264515  0.06264073  0.68855062  1  0  -0.693929  0  1.47807  0  0  -0.696858  0  1.721515  0  0  -0.724091  0  1.706881  0  0  -0.523219  -0.678492  0  1.731235  0
O  O52  1  0.23047826  0.93553599  0.30910956  1  0  -0.693816  0  1.477285  0  0  -0.69706  0  1.721401  0  0  -0.724317  0  1.70687  0  0  -0.523327  -0.678686  0  1.731104  0
O  O53  1  0.73047838  0.06446357  0.19088993  1  0  -0.693813  0  1.477274  0  0  -0.697053  0  1.721382  0  0  -0.724322  0  1.706861  0  0  -0.523338  -0.678689  0  1.731098  0
O  O54  1  0.76952789  0.56446505  0.80910752  1  0  -0.693807  0  1.477194  0  0  -0.697044  0  1.721305  0  0  -0.724316  0  1.706789  0  0  -0.523339  -0.678687  0  1.731022  0
O  O55  1  0.26952003  0.43553522  0.69089070  1  0  -0.693804  0  1.477237  0  0  -0.697039  0  1.721351  0  0  -0.724295  0  1.706816  0  0  -0.523346  -0.678665  0  1.731047  0
O  O56  1  0.73440438  0.87625450  0.43817808  1  0  -0.916314  0  1.871655  0  0  -0.92988  0  2.179975  0  0  -0.972147  0  2.167537  0  0  -0.603111  -0.901763  0  2.188216  0
O  O57  1  0.23440732  0.12374505  0.06182212  1  0  -0.916352  0  1.87171  0  0  -0.929904  0  2.180005  0  0  -0.972171  0  2.167565  0  0  -0.603118  -0.901785  0  2.188245  0
O  O58  1  0.26559583  0.62374452  0.93817773  1  0  -0.916308  0  1.871698  0  0  -0.92988  0  2.18002  0  0  -0.972142  0  2.167576  0  0  -0.603132  -0.901768  0  2.188259  0
O  O59  1  0.76559181  0.37625501  0.56182190  1  0  -0.916355  0  1.871688  0  0  -0.929912  0  2.179994  0  0  -0.97218  0  2.167559  0  0  -0.603115  -0.901794  0  2.188233  0
O  O60  1  0.73214241  0.62264030  0.44039549  1  0  -0.915969  0  1.871437  0  0  -0.929569  0  2.179483  0  0  -0.971812  0  2.167055  0  0  -0.603258  -0.901487  0  2.187722  0
O  O61  1  0.23214565  0.37735998  0.05960401  1  0  -0.915953  0  1.871501  0  0  -0.92957  0  2.179572  0  0  -0.97181  0  2.167145  0  0  -0.603263  -0.901491  0  2.187812  0
O  O62  1  0.26786040  0.87735945  0.94039547  1  0  -0.915964  0  1.871434  0  0  -0.929568  0  2.17949  0  0  -0.971807  0  2.16706  0  0  -0.603268  -0.901489  0  2.187728  0
O  O63  1  0.76785349  0.12264008  0.55960486  1  0  -0.91597  0  1.871464  0  0  -0.92958  0  2.179528  0  0  -0.971821  0  2.167105  0  0  -0.603268  -0.901499  0  2.187767  0
