# generated using pymatgen
data_ErAgH8C12(N2O5)2
_symmetry_space_group_name_H-M   'P 1'
_cell_length_a   6.70841563
_cell_length_b   9.25493794
_cell_length_c   14.97930482
_cell_angle_alpha   95.08451042
_cell_angle_beta   108.00505710
_cell_angle_gamma   103.66674060
_symmetry_Int_Tables_number   1
_chemical_formula_structural   ErAgH8C12(N2O5)2
_chemical_formula_sum   'Er2 Ag2 H16 C24 N8 O20'
_cell_volume   846.16715768
_cell_formula_units_Z   2
loop_
 _symmetry_equiv_pos_site_id
 _symmetry_equiv_pos_as_xyz
  1  'x, y, z'
loop_
 _atom_site_type_symbol
 _atom_site_label
 _atom_site_symmetry_multiplicity
 _atom_site_fract_x
 _atom_site_fract_y
 _atom_site_fract_z
 _atom_site_occupancy
 _atom_site_hle17_bader_spin_density
 _atom_site_hle17_ddec_charge
 _atom_site_hle17_ddec_spin_density
 _atom_site_hle17_ddec_sum_bond_order
 _atom_site_hle17_magmom
 _atom_site_hse06_10hf_bader_spin_density
 _atom_site_hse06_10hf_ddec_charge
 _atom_site_hse06_10hf_ddec_spin_density
 _atom_site_hse06_10hf_ddec_sum_bond_order
 _atom_site_hse06_10hf_magmom
 _atom_site_hse06_bader_spin_density
 _atom_site_hse06_ddec_charge
 _atom_site_hse06_ddec_spin_density
 _atom_site_hse06_ddec_sum_bond_order
 _atom_site_hse06_magmom
 _atom_site_pbe_bader_spin_density
 _atom_site_pbe_cm5_charge
 _atom_site_pbe_ddec_charge
 _atom_site_pbe_ddec_spin_density
 _atom_site_pbe_ddec_sum_bond_order
 _atom_site_pbe_magmom
Er  Er0  1  0.09054722  0.50970124  0.27279740  1  0  2.211303  0  1.672838  0  0  2.060106  0  2.162348  0  0  2.109411  0  2.120963  0  0  1.499176  2.02121  0  2.196393  0
Er  Er1  1  0.90949654  0.49030779  0.72721442  1  0  2.211264  0  1.672936  0  0  2.060133  0  2.162389  0  0  2.109332  0  2.121148  0  0  1.499198  2.021212  0  2.196448  0
Ag  Ag2  1  0.40833920  0.17539152  0.19948138  1  0  0.618076  0  1.336482  0  0  0.487594  0  1.759315  0  0  0.515528  0  1.711393  0  0  0.487046  0.469393  0  1.792142  0
Ag  Ag3  1  0.59163359  0.82460793  0.80051413  1  0  0.618043  0  1.336487  0  0  0.487549  0  1.759307  0  0  0.515503  0  1.711373  0  0  0.487017  0.469334  0  1.792144  0
H  H4  1  0.67347446  0.72972993  0.16187857  1  0  0.102455  0  0.919674  0  0  0.109485  0  0.979078  0  0  0.11352  0  0.975444  0  0  0.127561  0.106481  0  0.981859  0
H  H5  1  0.32657693  0.27029121  0.83814048  1  0  0.102384  0  0.919602  0  0  0.109405  0  0.979049  0  0  0.113441  0  0.975408  0  0  0.127506  0.106392  0  0.981837  0
H  H6  1  0.59116054  0.65852283  0.98407667  1  0  0.100683  0  0.901147  0  0  0.1139  0  0.953264  0  0  0.117245  0  0.95051  0  0  0.13069  0.111259  0  0.955736  0
H  H7  1  0.40884836  0.34147094  0.01593056  1  0  0.100564  0  0.901147  0  0  0.11382  0  0.953204  0  0  0.117196  0  0.950412  0  0  0.130672  0.111144  0  0.955713  0
H  H8  1  0.57394263  0.04659760  0.38636270  1  0  0.095786  0  0.922413  0  0  0.105182  0  0.981826  0  0  0.108443  0  0.97852  0  0  0.130621  0.102675  0  0.984516  0
H  H9  1  0.42604553  0.95338663  0.61365875  1  0  0.095665  0  0.922394  0  0  0.105069  0  0.981816  0  0  0.108326  0  0.978512  0  0  0.130584  0.102558  0  0.984511  0
H  H10  1  0.73176815  0.13878119  0.56479832  1  0  0.105835  0  0.922219  0  0  0.115013  0  0.978327  0  0  0.118297  0  0.975533  0  0  0.134791  0.112474  0  0.980658  0
H  H11  1  0.26825651  0.86124202  0.43520979  1  0  0.105886  0  0.922141  0  0  0.115076  0  0.978228  0  0  0.118359  0  0.975433  0  0  0.134824  0.112529  0  0.980568  0
H  H12  1  0.04970763  0.61274901  0.08246915  1  0  0.43248  0  0.873534  0  0  0.398497  0  0.94145  0  0  0.410878  0  0.923389  0  0  0.292674  0.389741  0  0.954183  0
H  H13  1  0.95028462  0.38725646  0.91753779  1  0  0.432452  0  0.873543  0  0  0.398503  0  0.941434  0  0  0.410878  0  0.923379  0  0  0.29268  0.389734  0  0.954189  0
H  H14  1  0.90233846  0.44476240  0.06923783  1  0  0.44615  0  0.847296  0  0  0.417556  0  0.906379  0  0  0.428015  0  0.891019  0  0  0.304979  0.41014  0  0.917243  0
H  H15  1  0.09765711  0.55523408  0.93076475  1  0  0.446123  0  0.847332  0  0  0.417491  0  0.906464  0  0  0.427955  0  0.891101  0  0  0.304981  0.410075  0  0.917328  0
H  H16  1  0.40934904  0.76001330  0.29253457  1  0  0.437249  0  0.82592  0  0  0.418449  0  0.880908  0  0  0.427806  0  0.868006  0  0  0.320944  0.411781  0  0.888609  0
H  H17  1  0.59064745  0.23998072  0.70747125  1  0  0.4372  0  0.826038  0  0  0.418415  0  0.880998  0  0  0.427771  0  0.868058  0  0  0.320924  0.411743  0  0.888703  0
H  H18  1  0.22825864  0.81853199  0.22111467  1  0  0.445504  0  0.856324  0  0  0.413844  0  0.919322  0  0  0.426055  0  0.90178  0  0  0.29627  0.405222  0  0.931678  0
H  H19  1  0.77172009  0.18146204  0.77887305  1  0  0.445293  0  0.856633  0  0  0.41369  0  0.919525  0  0  0.425896  0  0.901991  0  0  0.296196  0.405075  0  0.931864  0
C  C20  1  0.69904723  0.81590046  0.11806046  1  0  0.10853  0  3.646536  0  0  0.081875  0  3.917368  0  0  0.086231  0  3.929116  0  0  0.067534  0.078986  0  3.909511  0
C  C21  1  0.30096120  0.18410031  0.88194394  1  0  0.108712  0  3.646688  0  0  0.082015  0  3.917564  0  0  0.086367  0  3.929329  0  0  0.067646  0.079134  0  3.909692  0
C  C22  1  0.65462382  0.77585901  0.02010474  1  0  0.100001  0  3.645313  0  0  0.063688  0  3.91266  0  0  0.06764  0  3.926624  0  0  0.061293  0.060781  0  3.903511  0
C  C23  1  0.34537107  0.22412965  0.97989443  1  0  0.099969  0  3.645395  0  0  0.063669  0  3.912706  0  0  0.067589  0  3.926681  0  0  0.061306  0.060797  0  3.903544  0
C  C24  1  0.76548282  0.02701454  0.00951709  1  0  0.021473  0  3.701523  0  0  0.017263  0  3.949487  0  0  0.013921  0  3.970874  0  0  0.110721  0.019003  0  3.935668  0
C  C25  1  0.23450460  0.97299788  0.99048920  1  0  0.02136  0  3.701816  0  0  0.017187  0  3.94977  0  0  0.013843  0  3.971157  0  0  0.110601  0.018926  0  3.935955  0
C  C26  1  0.81069598  0.06522592  0.10790237  1  0  0.080738  0  3.691555  0  0  0.080711  0  3.945792  0  0  0.081566  0  3.960018  0  0  0.132675  0.079661  0  3.937028  0
C  C27  1  0.18931374  0.93478715  0.89210721  1  0  0.08063  0  3.691677  0  0  0.080578  0  3.94591  0  0  0.081426  0  3.960125  0  0  0.132634  0.079527  0  3.937149  0
C  C28  1  0.90636961  0.22552429  0.16062102  1  0  0.656109  0  3.9035  0  0  0.60194  0  4.196236  0  0  0.638191  0  4.184368  0  0  0.205179  0.577173  0  4.203544  0
C  C29  1  0.09364614  0.77448944  0.83937325  1  0  0.655956  0  3.903678  0  0  0.6018  0  4.196392  0  0  0.638082  0  4.184463  0  0  0.205141  0.577035  0  4.203699  0
C  C30  1  0.80043496  0.14257356  0.94647888  1  0  0.636966  0  3.907754  0  0  0.574961  0  4.2152  0  0  0.607764  0  4.211636  0  0  0.213925  0.552804  0  4.216864  0
C  C31  1  0.19952872  0.85742259  0.05351665  1  0  0.636835  0  3.907846  0  0  0.574716  0  4.215443  0  0  0.607531  0  4.211877  0  0  0.213768  0.552552  0  4.217111  0
C  C32  1  0.62040757  0.16623533  0.41631323  1  0  0.111937  0  3.609914  0  0  0.081095  0  3.864005  0  0  0.086185  0  3.876406  0  0  0.075393  0.077422  0  3.856277  0
C  C33  1  0.37958892  0.83376755  0.58367526  1  0  0.111825  0  3.609716  0  0  0.080952  0  3.863811  0  0  0.086042  0  3.876216  0  0  0.075303  0.077288  0  3.856079  0
C  C34  1  0.70603848  0.21634477  0.51456862  1  0  0.129972  0  3.640851  0  0  0.099601  0  3.899582  0  0  0.104096  0  3.912743  0  0  0.075258  0.09628  0  3.891056  0
C  C35  1  0.29393274  0.78364389  0.48541445  1  0  0.130286  0  3.64058  0  0  0.099881  0  3.899308  0  0  0.104385  0  3.912466  0  0  0.075482  0.096562  0  3.890791  0
C  C36  1  0.73427233  0.46129839  0.49021146  1  0  0.040531  0  3.72084  0  0  0.03824  0  3.971055  0  0  0.036165  0  3.989682  0  0  0.120417  0.039073  0  3.959243  0
C  C37  1  0.26572018  0.53867980  0.50979193  1  0  0.040335  0  3.720691  0  0  0.03811  0  3.970823  0  0  0.03603  0  3.989457  0  0  0.120271  0.038952  0  3.959007  0
C  C38  1  0.65289176  0.41132740  0.39133648  1  0  0.062127  0  3.65026  0  0  0.057992  0  3.895461  0  0  0.05912  0  3.910183  0  0  0.141514  0.056739  0  3.886375  0
C  C39  1  0.34709531  0.58867501  0.60866427  1  0  0.062001  0  3.650473  0  0  0.057967  0  3.895459  0  0  0.059095  0  3.910184  0  0  0.141533  0.056706  0  3.886349  0
C  C40  1  0.63449887  0.52032276  0.32123082  1  0  0.739251  0  3.861997  0  0  0.682968  0  4.170105  0  0  0.722105  0  4.15106  0  0  0.247301  0.655659  0  4.182755  0
C  C41  1  0.36553508  0.47970433  0.67878871  1  0  0.739363  0  3.861944  0  0  0.682917  0  4.17025  0  0  0.722048  0  4.151214  0  0  0.247308  0.655674  0  4.182786  0
C  C42  1  0.79843794  0.62730875  0.53409665  1  0  0.623376  0  3.970471  0  0  0.573093  0  4.282767  0  0  0.604935  0  4.277585  0  0  0.196336  0.551703  0  4.285222  0
C  C43  1  0.20156476  0.37265596  0.46589878  1  0  0.623455  0  3.971152  0  0  0.573054  0  4.283579  0  0  0.6049  0  4.278395  0  0  0.196461  0.551655  0  4.286042  0
N  N44  1  0.77307937  0.96009613  0.16173836  1  0  -0.251567  0  2.979001  0  0  -0.232521  0  3.246686  0  0  -0.237155  0  3.255066  0  0  -0.290321  -0.229475  0  3.24146  0
N  N45  1  0.22694426  0.03991126  0.83826633  1  0  -0.251535  0  2.979134  0  0  -0.232449  0  3.246799  0  0  -0.237081  0  3.25518  0  0  -0.290304  -0.229406  0  3.241575  0
N  N46  1  0.68504819  0.88111699  0.96649032  1  0  -0.257453  0  3.257913  0  0  -0.200168  0  3.537573  0  0  -0.21103  0  3.552894  0  0  -0.307168  -0.192637  0  3.527441  0
N  N47  1  0.31491387  0.11888805  0.03351111  1  0  -0.257252  0  3.258157  0  0  -0.199986  0  3.537813  0  0  -0.210842  0  3.553144  0  0  -0.307173  -0.192455  0  3.527666  0
N  N48  1  0.59147916  0.26269120  0.35466039  1  0  -0.235963  0  3.229014  0  0  -0.174796  0  3.513149  0  0  -0.185025  0  3.522571  0  0  -0.297022  -0.168142  0  3.507246  0
N  N49  1  0.40853190  0.73731180  0.64532108  1  0  -0.235863  0  3.229389  0  0  -0.174649  0  3.513397  0  0  -0.18488  0  3.522819  0  0  -0.297051  -0.168003  0  3.507501  0
N  N50  1  0.75869590  0.36312546  0.55108757  1  0  -0.362053  0  3.245637  0  0  -0.318559  0  3.516141  0  0  -0.327419  0  3.533397  0  0  -0.343661  -0.312253  0  3.504717  0
N  N51  1  0.24130266  0.63686286  0.44891735  1  0  -0.362102  0  3.245934  0  0  -0.318602  0  3.516373  0  0  -0.32748  0  3.533645  0  0  -0.34372  -0.312293  0  3.504942  0
O  O52  1  0.10984285  0.28792677  0.18241088  1  0  -0.688489  0  2.122754  0  0  -0.630685  0  2.399759  0  0  -0.658773  0  2.38653  0  0  -0.368845  -0.610639  0  2.408015  0
O  O53  1  0.89016673  0.71210408  0.81756268  1  0  -0.688376  0  2.122674  0  0  -0.630617  0  2.399764  0  0  -0.658734  0  2.38659  0  0  -0.368807  -0.610569  0  2.408012  0
O  O54  1  0.78518607  0.29572765  0.18517616  1  0  -0.681422  0  2.084001  0  0  -0.630135  0  2.356978  0  0  -0.657725  0  2.345545  0  0  -0.362238  -0.61036  0  2.363916  0
O  O55  1  0.21483776  0.70428644  0.81483178  1  0  -0.681329  0  2.084353  0  0  -0.630056  0  2.35732  0  0  -0.657667  0  2.345914  0  0  -0.362186  -0.610258  0  2.3642  0
O  O56  1  0.83604642  0.28085456  0.97968765  1  0  -0.627035  0  2.026154  0  0  -0.55947  0  2.243696  0  0  -0.586822  0  2.236356  0  0  -0.298408  -0.540468  0  2.248268  0
O  O57  1  0.16388142  0.71914513  0.02029335  1  0  -0.626971  0  2.026287  0  0  -0.559328  0  2.243859  0  0  -0.58671  0  2.236547  0  0  -0.298314  -0.540322  0  2.248419  0
O  O58  1  0.79334697  0.09259443  0.86358295  1  0  -0.622216  0  2.101478  0  0  -0.553676  0  2.351897  0  0  -0.582277  0  2.342434  0  0  -0.305033  -0.533817  0  2.357893  0
O  O59  1  0.20665611  0.90740880  0.13641970  1  0  -0.622199  0  2.101559  0  0  -0.553599  0  2.352053  0  0  -0.582196  0  2.342581  0  0  -0.304924  -0.533746  0  2.358084  0
O  O60  1  0.45392883  0.55039435  0.28858948  1  0  -0.734215  0  2.074952  0  0  -0.682274  0  2.336441  0  0  -0.708962  0  2.320968  0  0  -0.381477  -0.662547  0  2.346505  0
O  O61  1  0.54608514  0.44961067  0.71141992  1  0  -0.734321  0  2.074982  0  0  -0.682378  0  2.336554  0  0  -0.709037  0  2.321084  0  0  -0.381477  -0.662672  0  2.346582  0
O  O62  1  0.79694505  0.56701839  0.29504630  1  0  -0.706399  0  2.01968  0  0  -0.655875  0  2.277636  0  0  -0.683719  0  2.26471  0  0  -0.386389  -0.635152  0  2.285827  0
O  O63  1  0.20306527  0.43299035  0.70495830  1  0  -0.706344  0  2.01957  0  0  -0.655779  0  2.277598  0  0  -0.68361  0  2.264685  0  0  -0.386409  -0.635076  0  2.285756  0
O  O64  1  0.76957551  0.72046540  0.47997196  1  0  -0.547607  0  1.863997  0  0  -0.510133  0  2.069463  0  0  -0.533076  0  2.064865  0  0  -0.30882  -0.493953  0  2.072003  0
O  O65  1  0.23039874  0.27948793  0.52000790  1  0  -0.547477  0  1.864661  0  0  -0.509925  0  2.070108  0  0  -0.53286  0  2.065503  0  0  -0.308719  -0.493752  0  2.072653  0
O  O66  1  0.87841878  0.65397116  0.62592733  1  0  -0.749588  0  2.058926  0  0  -0.703789  0  2.321975  0  0  -0.730072  0  2.313995  0  0  -0.433667  -0.684807  0  2.326667  0
O  O67  1  0.12162287  0.34600763  0.37407240  1  0  -0.749787  0  2.0593  0  0  -0.704014  0  2.322497  0  0  -0.730326  0  2.314518  0  0  -0.433834  -0.685028  0  2.327186  0
O  O68  1  0.96479619  0.54202183  0.11378527  1  0  -0.939339  0  1.856239  0  0  -0.886899  0  2.052547  0  0  -0.906929  0  2.019532  0  0  -0.656128  -0.87208  0  2.075476  0
O  O69  1  0.03518711  0.45797620  0.88621267  1  0  -0.939371  0  1.856335  0  0  -0.886968  0  2.052677  0  0  -0.906958  0  2.019638  0  0  -0.656216  -0.872143  0  2.075612  0
O  O70  1  0.26053371  0.76835233  0.27972300  1  0  -0.903063  0  1.828945  0  0  -0.853977  0  2.020617  0  0  -0.873995  0  1.989889  0  0  -0.633071  -0.839218  0  2.040534  0
O  O71  1  0.73946502  0.23164679  0.72027146  1  0  -0.902795  0  1.829299  0  0  -0.853747  0  2.020956  0  0  -0.873751  0  1.990192  0  0  -0.632952  -0.838991  0  2.040871  0
