# generated using pymatgen
data_H10Pt(C6S)2
_symmetry_space_group_name_H-M   'P 1'
_cell_length_a   7.12466399
_cell_length_b   13.65453707
_cell_length_c   13.65445979
_cell_angle_alpha   86.07856531
_cell_angle_beta   74.88020517
_cell_angle_gamma   74.87905967
_symmetry_Int_Tables_number   1
_chemical_formula_structural   H10Pt(C6S)2
_chemical_formula_sum   'H40 Pt4 C48 S8'
_cell_volume   1237.97656596
_cell_formula_units_Z   4
loop_
 _symmetry_equiv_pos_site_id
 _symmetry_equiv_pos_as_xyz
  1  'x, y, z'
loop_
 _atom_site_type_symbol
 _atom_site_label
 _atom_site_symmetry_multiplicity
 _atom_site_fract_x
 _atom_site_fract_y
 _atom_site_fract_z
 _atom_site_occupancy
 _atom_site_hle17_bader_spin_density
 _atom_site_hle17_ddec_charge
 _atom_site_hle17_ddec_spin_density
 _atom_site_hle17_ddec_sum_bond_order
 _atom_site_hle17_magmom
 _atom_site_hse06_10hf_bader_spin_density
 _atom_site_hse06_10hf_ddec_charge
 _atom_site_hse06_10hf_ddec_spin_density
 _atom_site_hse06_10hf_ddec_sum_bond_order
 _atom_site_hse06_10hf_magmom
 _atom_site_hse06_bader_spin_density
 _atom_site_hse06_ddec_charge
 _atom_site_hse06_ddec_spin_density
 _atom_site_hse06_ddec_sum_bond_order
 _atom_site_hse06_magmom
 _atom_site_pbe_bader_spin_density
 _atom_site_pbe_cm5_charge
 _atom_site_pbe_ddec_charge
 _atom_site_pbe_ddec_spin_density
 _atom_site_pbe_ddec_sum_bond_order
 _atom_site_pbe_magmom
H  H0  1  0.54213538  0.22527744  0.02483326  1  0  0.093937  0  0.963425  0  0  0.100497  0  1.03246  0  0  0.104065  0  1.029863  0  0  0.091402  0.097883  0  1.034414  0
H  H1  1  0.51959374  0.52475706  0.27433925  1  0  0.093356  0  0.962415  0  0  0.099397  0  1.032038  0  0  0.102915  0  1.029489  0  0  0.09033  0.096824  0  1.033972  0
H  H2  1  0.79350001  0.77390870  0.97534288  1  0  0.092118  0  0.962893  0  0  0.098452  0  1.032292  0  0  0.101917  0  1.029801  0  0  0.090201  0.095883  0  1.034225  0
H  H3  1  0.31825600  0.47498540  0.72557069  1  0  0.093819  0  0.963582  0  0  0.10044  0  1.032522  0  0  0.103949  0  1.029992  0  0  0.091433  0.097867  0  1.034423  0
H  H4  1  0.29348075  0.97534375  0.77391073  1  0  0.092128  0  0.962895  0  0  0.09846  0  1.032296  0  0  0.101926  0  1.029804  0  0  0.09019  0.095888  0  1.034234  0
H  H5  1  0.01960138  0.27433222  0.52475831  1  0  0.093295  0  0.96232  0  0  0.099355  0  1.031925  0  0  0.102872  0  1.029377  0  0  0.090299  0.096781  0  1.033858  0
H  H6  1  0.04213103  0.02483628  0.22527476  1  0  0.093913  0  0.963362  0  0  0.100464  0  1.032415  0  0  0.104033  0  1.029815  0  0  0.091391  0.097849  0  1.034368  0
H  H7  1  0.81825970  0.72558068  0.47498926  1  0  0.093693  0  0.963651  0  0  0.100363  0  1.032559  0  0  0.103869  0  1.030023  0  0  0.091466  0.09779  0  1.03446  0
H  H8  1  0.45924566  0.41194405  0.99789841  1  0  0.083713  0  0.952872  0  0  0.097236  0  1.008722  0  0  0.099655  0  1.008031  0  0  0.100296  0.095495  0  1.009302  0
H  H9  1  0.62260777  0.49728749  0.08777616  1  0  0.083908  0  0.952815  0  0  0.097659  0  1.008418  0  0  0.100004  0  1.007813  0  0  0.100234  0.095975  0  1.00893  0
H  H10  1  0.87031313  0.58733249  0.00286025  1  0  0.084329  0  0.953242  0  0  0.097432  0  1.009567  0  0  0.09986  0  1.008856  0  0  0.100142  0.095695  0  1.010135  0
H  H11  1  0.20711754  0.50254999  0.91213668  1  0  0.084283  0  0.952848  0  0  0.097955  0  1.008588  0  0  0.100298  0  1.007969  0  0  0.100398  0.096264  0  1.00911  0
H  H12  1  0.37030585  0.00286515  0.58733684  1  0  0.08429  0  0.953352  0  0  0.097437  0  1.009632  0  0  0.099867  0  1.008918  0  0  0.100139  0.095699  0  1.0102  0
H  H13  1  0.12262153  0.08776920  0.49728313  1  0  0.083982  0  0.952804  0  0  0.097688  0  1.008445  0  0  0.100032  0  1.007841  0  0  0.100233  0.096003  0  1.008956  0
H  H14  1  0.95925267  0.99789117  0.41194299  1  0  0.083735  0  0.952896  0  0  0.097225  0  1.008795  0  0  0.099647  0  1.008098  0  0  0.100321  0.095482  0  1.009378  0
H  H15  1  0.70712769  0.91214507  0.50255156  1  0  0.084363  0  0.952907  0  0  0.098019  0  1.008639  0  0  0.100365  0  1.008027  0  0  0.100461  0.096329  0  1.009161  0
H  H16  1  0.68143053  0.48914776  0.85925910  1  0  0.085451  0  0.978385  0  0  0.095914  0  1.039808  0  0  0.097643  0  1.040963  0  0  0.095922  0.094633  0  1.039133  0
H  H17  1  0.92097343  0.35799155  0.01090337  1  0  0.085546  0  0.979116  0  0  0.096068  0  1.040546  0  0  0.097775  0  1.041734  0  0  0.096024  0.094837  0  1.039798  0
H  H18  1  0.03012815  0.51068885  0.14201524  1  0  0.086061  0  0.978808  0  0  0.096435  0  1.040429  0  0  0.098159  0  1.04162  0  0  0.095898  0.095186  0  1.03971  0
H  H19  1  0.28945278  0.64181519  0.98904169  1  0  0.085754  0  0.978824  0  0  0.096121  0  1.040323  0  0  0.097906  0  1.041463  0  0  0.096322  0.094825  0  1.039651  0
H  H20  1  0.53012393  0.14201516  0.51068974  1  0  0.086022  0  0.978696  0  0  0.096408  0  1.040311  0  0  0.098132  0  1.041502  0  0  0.095896  0.095158  0  1.039593  0
H  H21  1  0.42098266  0.01089563  0.35798222  1  0  0.085447  0  0.979019  0  0  0.095988  0  1.040453  0  0  0.097695  0  1.041642  0  0  0.095992  0.094757  0  1.039706  0
H  H22  1  0.18144812  0.85924713  0.48914295  1  0  0.085352  0  0.978538  0  0  0.09584  0  1.039932  0  0  0.097555  0  1.041102  0  0  0.095907  0.094567  0  1.039249  0
H  H23  1  0.78946209  0.98905101  0.64181640  1  0  0.085693  0  0.978827  0  0  0.096014  0  1.040373  0  0  0.097797  0  1.041517  0  0  0.096238  0.094719  0  1.0397  0
H  H24  1  0.97949754  0.37857200  0.74407800  1  0  0.088223  0  0.95914  0  0  0.097141  0  1.023091  0  0  0.099931  0  1.021693  0  0  0.093686  0.095141  0  1.024143  0
H  H25  1  0.10847701  0.24307516  0.12168153  1  0  0.088619  0  0.958161  0  0  0.097992  0  1.021727  0  0  0.100825  0  1.020278  0  0  0.094668  0.095931  0  1.022849  0
H  H26  1  0.10145752  0.62180935  0.25707428  1  0  0.087802  0  0.958645  0  0  0.097195  0  1.022226  0  0  0.100006  0  1.020793  0  0  0.093757  0.095147  0  1.023332  0
H  H27  1  0.47317940  0.75658537  0.87823903  1  0  0.089391  0  0.957932  0  0  0.098171  0  1.021985  0  0  0.100938  0  1.020586  0  0  0.094537  0.096183  0  1.023047  0
H  H28  1  0.60145819  0.25707058  0.62181384  1  0  0.087819  0  0.958662  0  0  0.097206  0  1.022244  0  0  0.100019  0  1.020809  0  0  0.093789  0.09516  0  1.023345  0
H  H29  1  0.60845780  0.12168335  0.24306628  1  0  0.088624  0  0.958243  0  0  0.098024  0  1.02178  0  0  0.100863  0  1.020325  0  0  0.094648  0.095962  0  1.022906  0
H  H30  1  0.47951618  0.74407194  0.37856375  1  0  0.088287  0  0.95902  0  0  0.097164  0  1.023022  0  0  0.099949  0  1.021617  0  0  0.093711  0.095163  0  1.024084  0
H  H31  1  0.97318342  0.87824454  0.75659220  1  0  0.089459  0  0.957976  0  0  0.098188  0  1.0221  0  0  0.100955  0  1.020703  0  0  0.094531  0.0962  0  1.023162  0
H  H32  1  0.05262309  0.19122540  0.76587954  1  0  0.096058  0  0.981349  0  0  0.109448  0  1.036913  0  0  0.111194  0  1.038371  0  0  0.096329  0.108161  0  1.036007  0
H  H33  1  0.99493131  0.26546025  0.30899385  1  0  0.096436  0  0.980932  0  0  0.109012  0  1.037341  0  0  0.110751  0  1.038817  0  0  0.095851  0.107727  0  1.036432  0
H  H34  1  0.00907955  0.80909365  0.23465221  1  0  0.096601  0  0.980616  0  0  0.109402  0  1.036888  0  0  0.111151  0  1.038347  0  0  0.095894  0.108125  0  1.035966  0
H  H35  1  0.56964920  0.73405950  0.69096715  1  0  0.096727  0  0.981595  0  0  0.109897  0  1.037377  0  0  0.111565  0  1.038938  0  0  0.096216  0.108662  0  1.036401  0
H  H36  1  0.50907942  0.23464723  0.80909914  1  0  0.096578  0  0.980613  0  0  0.109413  0  1.036855  0  0  0.111164  0  1.03831  0  0  0.095894  0.108134  0  1.035933  0
H  H37  1  0.49491420  0.30899140  0.26546064  1  0  0.096447  0  0.980963  0  0  0.109031  0  1.037353  0  0  0.11077  0  1.03883  0  0  0.095901  0.107747  0  1.036445  0
H  H38  1  0.55262762  0.76587756  0.19121910  1  0  0.09601  0  0.981346  0  0  0.1094  0  1.036919  0  0  0.111142  0  1.038384  0  0  0.096318  0.108116  0  1.036012  0
H  H39  1  0.06964099  0.69097145  0.73406968  1  0  0.096597  0  0.981621  0  0  0.109802  0  1.037379  0  0  0.111469  0  1.038941  0  0  0.096193  0.108568  0  1.036405  0
Pt  Pt40  1  0.09545532  0.99982545  0.99979495  1  0  0.027417  0  3.348144  0  0  0.032156  0  3.975975  0  0  0.043078  0  3.942871  0  0  0.37051  0.026902  0  3.996926  0
Pt  Pt41  1  0.84642077  0.49984168  0.49991240  1  0  0.026457  0  3.348101  0  0  0.031287  0  3.975568  0  0  0.042154  0  3.94256  0  0  0.37033  0.026032  0  3.996512  0
Pt  Pt42  1  0.59545538  0.99979500  0.99982819  1  0  0.027401  0  3.348249  0  0  0.032139  0  3.976087  0  0  0.043065  0  3.94298  0  0  0.370516  0.026891  0  3.997034  0
Pt  Pt43  1  0.34641861  0.49991207  0.49984351  1  0  0.026424  0  3.348306  0  0  0.031272  0  3.97577  0  0  0.042135  0  3.942764  0  0  0.370338  0.026017  0  3.996714  0
C  C44  1  0.80420983  0.19731165  0.89800330  1  0  0.05606  0  3.767777  0  0  0.080709  0  4.018391  0  0  0.081422  0  4.043248  0  0  -0.022426  0.080154  0  4.001453  0
C  C45  1  0.75300776  0.39774266  0.30256979  1  0  0.055533  0  3.767648  0  0  0.080711  0  4.016951  0  0  0.081441  0  4.041775  0  0  -0.023258  0.080156  0  4.000025  0
C  C46  1  0.89989434  0.80241922  0.10228974  1  0  0.056782  0  3.768545  0  0  0.082454  0  4.017472  0  0  0.083194  0  4.042308  0  0  -0.021756  0.081834  0  4.000608  0
C  C47  1  0.45323655  0.60192608  0.69735779  1  0  0.058428  0  3.765649  0  0  0.084073  0  4.014599  0  0  0.084801  0  4.039416  0  0  -0.020829  0.083479  0  3.997708  0
C  C48  1  0.39988069  0.10229011  0.80242407  1  0  0.056601  0  3.768609  0  0  0.082286  0  4.01754  0  0  0.083017  0  4.042393  0  0  -0.021805  0.08167  0  4.000663  0
C  C49  1  0.25300421  0.30256636  0.39774558  1  0  0.055494  0  3.767675  0  0  0.080503  0  4.017223  0  0  0.081228  0  4.042055  0  0  -0.023298  0.079948  0  4.000296  0
C  C50  1  0.30422299  0.89800204  0.19730399  1  0  0.055914  0  3.767982  0  0  0.080575  0  4.01858  0  0  0.081281  0  4.043458  0  0  -0.022463  0.080022  0  4.00164  0
C  C51  1  0.95324150  0.69736391  0.60192932  1  0  0.058209  0  3.765563  0  0  0.083847  0  4.014578  0  0  0.084572  0  4.039391  0  0  -0.020799  0.083254  0  3.99769  0
C  C52  1  0.63673879  0.25937487  0.96350865  1  0  -0.118648  0  3.765729  0  0  -0.137667  0  4.009497  0  0  -0.140719  0  4.031248  0  0  -0.097956  -0.135536  0  3.994769  0
C  C53  1  0.64791230  0.46325079  0.24036183  1  0  -0.115751  0  3.763633  0  0  -0.134282  0  4.006914  0  0  -0.137256  0  4.028635  0  0  -0.09532  -0.132226  0  3.992259  0
C  C54  1  0.86046060  0.74007166  0.03688302  1  0  -0.116377  0  3.764679  0  0  -0.135507  0  4.008213  0  0  -0.138463  0  4.029964  0  0  -0.09728  -0.133414  0  3.993556  0
C  C55  1  0.35113071  0.53650051  0.75954520  1  0  -0.120472  0  3.766609  0  0  -0.139902  0  4.010495  0  0  -0.142892  0  4.032219  0  0  -0.098491  -0.1378  0  3.995799  0
C  C56  1  0.36043737  0.03688914  0.74007896  1  0  -0.116258  0  3.764453  0  0  -0.135389  0  4.007985  0  0  -0.138342  0  4.029736  0  0  -0.097217  -0.133298  0  3.993327  0
C  C57  1  0.14792543  0.24035520  0.46324759  1  0  -0.115737  0  3.763593  0  0  -0.13422  0  4.006853  0  0  -0.137191  0  4.028575  0  0  -0.09536  -0.132164  0  3.992194  0
C  C58  1  0.13674725  0.96350640  0.25936834  1  0  -0.118436  0  3.765848  0  0  -0.137437  0  4.00957  0  0  -0.140487  0  4.031318  0  0  -0.097855  -0.135307  0  3.994845  0
C  C59  1  0.85113093  0.75956213  0.53650162  1  0  -0.120267  0  3.766649  0  0  -0.139748  0  4.010576  0  0  -0.142727  0  4.032292  0  0  -0.098538  -0.137647  0  3.995882  0
C  C60  1  0.59148629  0.36394950  0.94782659  1  0  -0.066346  0  3.787763  0  0  -0.076566  0  4.033365  0  0  -0.078861  0  4.055536  0  0  -0.090907  -0.074862  0  4.018193  0
C  C61  1  0.70683055  0.44726152  0.13584019  1  0  -0.068267  0  3.788076  0  0  -0.078698  0  4.03371  0  0  -0.080944  0  4.055884  0  0  -0.090805  -0.077028  0  4.018555  0
C  C62  1  0.90409348  0.63554690  0.05286016  1  0  -0.066184  0  3.78613  0  0  -0.075928  0  4.031401  0  0  -0.078216  0  4.053563  0  0  -0.088623  -0.074223  0  4.016263  0
C  C63  1  0.28940441  0.55255936  0.86406754  1  0  -0.066859  0  3.787839  0  0  -0.077139  0  4.033755  0  0  -0.079365  0  4.055947  0  0  -0.090502  -0.075476  0  4.018601  0
C  C64  1  0.40408998  0.05286575  0.63554758  1  0  -0.066163  0  3.786419  0  0  -0.075953  0  4.031723  0  0  -0.078245  0  4.053889  0  0  -0.088581  -0.074243  0  4.016582  0
C  C65  1  0.20683440  0.13583000  0.44725634  1  0  -0.06831  0  3.787978  0  0  -0.078684  0  4.033574  0  0  -0.080932  0  4.055747  0  0  -0.090711  -0.077012  0  4.018416  0
C  C66  1  0.09149760  0.94781489  0.36394214  1  0  -0.066581  0  3.788287  0  0  -0.076804  0  4.03394  0  0  -0.079099  0  4.056109  0  0  -0.091058  -0.0751  0  4.018765  0
C  C67  1  0.78941089  0.86407794  0.55255731  1  0  -0.066964  0  3.787927  0  0  -0.07722  0  4.03382  0  0  -0.079456  0  4.056017  0  0  -0.090593  -0.075556  0  4.018668  0
C  C68  1  0.71590546  0.40728782  0.87022585  1  0  -0.076631  0  3.774986  0  0  -0.091367  0  4.020632  0  0  -0.093138  0  4.043043  0  0  -0.095816  -0.090113  0  4.005426  0
C  C69  1  0.87394054  0.36934618  0.09268764  1  0  -0.075922  0  3.775824  0  0  -0.090902  0  4.021905  0  0  -0.092671  0  4.044339  0  0  -0.095335  -0.089687  0  4.006629  0
C  C70  1  0.99372487  0.59250602  0.13074244  1  0  -0.078496  0  3.776238  0  0  -0.093558  0  4.022256  0  0  -0.095339  0  4.044697  0  0  -0.096398  -0.09234  0  4.00701  0
C  C71  1  0.33554648  0.63047592  0.90723768  1  0  -0.076532  0  3.775997  0  0  -0.091291  0  4.021645  0  0  -0.093132  0  4.044053  0  0  -0.095897  -0.09002  0  4.006461  0
C  C72  1  0.49371734  0.13073639  0.59251160  1  0  -0.078481  0  3.776167  0  0  -0.093553  0  4.022217  0  0  -0.095334  0  4.04466  0  0  -0.096474  -0.092334  0  4.006968  0
C  C73  1  0.37394168  0.09268876  0.36933567  1  0  -0.075742  0  3.775693  0  0  -0.090748  0  4.021797  0  0  -0.092518  0  4.044238  0  0  -0.095277  -0.089535  0  4.006519  0
C  C74  1  0.21591413  0.87021997  0.40728622  1  0  -0.076349  0  3.77506  0  0  -0.091069  0  4.020639  0  0  -0.092827  0  4.043051  0  0  -0.09566  -0.089822  0  4.005432  0
C  C75  1  0.83555085  0.90724397  0.63048267  1  0  -0.076558  0  3.775896  0  0  -0.091264  0  4.021511  0  0  -0.093104  0  4.043923  0  0  -0.095846  -0.089994  0  4.006327  0
C  C76  1  0.88387639  0.34521490  0.80574390  1  0  -0.068006  0  3.774222  0  0  -0.075453  0  4.015969  0  0  -0.077598  0  4.037105  0  0  -0.091525  -0.073937  0  4.001608  0
C  C77  1  0.97988333  0.30499712  0.15490754  1  0  -0.069478  0  3.773458  0  0  -0.077344  0  4.015329  0  0  -0.079545  0  4.036484  0  0  -0.093202  -0.075738  0  4.000946  0
C  C78  1  0.03457399  0.65487996  0.19516098  1  0  -0.067103  0  3.771871  0  0  -0.074799  0  4.013429  0  0  -0.076978  0  4.03464  0  0  -0.091627  -0.073208  0  3.99901  0
C  C79  1  0.43960180  0.69472017  0.84504065  1  0  -0.069043  0  3.774802  0  0  -0.076311  0  4.016832  0  0  -0.078445  0  4.037977  0  0  -0.092599  -0.074813  0  4.002467  0
C  C80  1  0.53456623  0.19516704  0.65488801  1  0  -0.067158  0  3.771714  0  0  -0.074855  0  4.013291  0  0  -0.077034  0  4.034497  0  0  -0.091651  -0.073267  0  3.998875  0
C  C81  1  0.47988090  0.15490514  0.30498755  1  0  -0.069613  0  3.773592  0  0  -0.077508  0  4.015446  0  0  -0.079716  0  4.0366  0  0  -0.093291  -0.075901  0  4.001064  0
C  C82  1  0.38389038  0.80573756  0.34520879  1  0  -0.068158  0  3.774126  0  0  -0.075594  0  4.015938  0  0  -0.077727  0  4.03706  0  0  -0.091623  -0.074082  0  4.001583  0
C  C83  1  0.93960632  0.84504827  0.69472693  1  0  -0.069166  0  3.774779  0  0  -0.076415  0  4.016802  0  0  -0.078551  0  4.037945  0  0  -0.092598  -0.074916  0  4.002439  0
C  C84  1  0.92640537  0.24019005  0.81830728  1  0  -0.105299  0  3.735551  0  0  -0.122859  0  3.969548  0  0  -0.125787  0  3.992345  0  0  -0.096054  -0.120743  0  3.954033  0
C  C85  1  0.91779418  0.31784276  0.25989928  1  0  -0.106087  0  3.73422  0  0  -0.123063  0  3.968089  0  0  -0.126007  0  3.990931  0  0  -0.096634  -0.120954  0  3.952521  0
C  C86  1  0.98463693  0.75988326  0.18230133  1  0  -0.107037  0  3.734025  0  0  -0.124614  0  3.967927  0  0  -0.127571  0  3.990766  0  0  -0.097676  -0.122476  0  3.952364  0
C  C87  1  0.49552312  0.68179178  0.74006097  1  0  -0.107421  0  3.735367  0  0  -0.125066  0  3.969048  0  0  -0.127945  0  3.991887  0  0  -0.097611  -0.122953  0  3.953481  0
C  C88  1  0.48462786  0.18230337  0.75988226  1  0  -0.106915  0  3.734102  0  0  -0.124523  0  3.968003  0  0  -0.12748  0  3.990843  0  0  -0.097654  -0.122385  0  3.95244  0
C  C89  1  0.41778914  0.25989253  0.31783870  1  0  -0.106031  0  3.734207  0  0  -0.122948  0  3.968087  0  0  -0.125889  0  3.99093  0  0  -0.096628  -0.120841  0  3.95252  0
C  C90  1  0.42641178  0.81830417  0.24018641  1  0  -0.105269  0  3.735665  0  0  -0.122823  0  3.969654  0  0  -0.125751  0  3.992448  0  0  -0.096091  -0.120708  0  3.954142  0
C  C91  1  0.99552121  0.74006497  0.68179527  1  0  -0.107009  0  3.735083  0  0  -0.12467  0  3.968735  0  0  -0.127544  0  3.991572  0  0  -0.097546  -0.12256  0  3.953171  0
S  S92  1  0.86101349  0.06265169  0.90478690  1  0  -0.082221  0  2.944764  0  0  -0.093161  0  3.433121  0  0  -0.099329  0  3.421233  0  0  -0.168733  -0.08981  0  3.440732  0
S  S93  1  0.67481395  0.40477888  0.43724444  1  0  -0.080747  0  2.942783  0  0  -0.091572  0  3.430432  0  0  -0.097778  0  3.418623  0  0  -0.167299  -0.088203  0  3.43801  0
S  S94  1  0.82886938  0.93706838  0.09492861  1  0  -0.081872  0  2.943567  0  0  -0.09289  0  3.43128  0  0  -0.099123  0  3.419466  0  0  -0.167211  -0.089491  0  3.438853  0
S  S95  1  0.51704103  0.59488276  0.56269810  1  0  -0.081988  0  2.942794  0  0  -0.09331  0  3.430843  0  0  -0.099488  0  3.418956  0  0  -0.168587  -0.089943  0  3.438451  0
S  S96  1  0.32886241  0.09493162  0.93707258  1  0  -0.081835  0  2.943549  0  0  -0.092857  0  3.431252  0  0  -0.099088  0  3.419442  0  0  -0.167207  -0.08946  0  3.438821  0
S  S97  1  0.17481937  0.43723670  0.40478084  1  0  -0.080722  0  2.942769  0  0  -0.091488  0  3.430462  0  0  -0.097692  0  3.418657  0  0  -0.167288  -0.08812  0  3.438041  0
S  S98  1  0.36102643  0.90478553  0.06264475  1  0  -0.082071  0  2.94481  0  0  -0.093017  0  3.433161  0  0  -0.09918  0  3.421277  0  0  -0.168693  -0.089665  0  3.440766  0
S  S99  1  0.01704297  0.56270248  0.59488277  1  0  -0.082009  0  2.942768  0  0  -0.093329  0  3.43082  0  0  -0.099508  0  3.418936  0  0  -0.168593  -0.089961  0  3.438427  0
