# generated using pymatgen
data_SnH17C11N5O3
_symmetry_space_group_name_H-M   'P 1'
_cell_length_a   10.84127747
_cell_length_b   12.12500000
_cell_length_c   11.89195029
_cell_angle_alpha   107.63875446
_cell_angle_beta   90.00000000
_cell_angle_gamma   90.00000000
_symmetry_Int_Tables_number   1
_chemical_formula_structural   SnH17C11N5O3
_chemical_formula_sum   'Sn4 H68 C44 N20 O12'
_cell_volume   1489.71016253
_cell_formula_units_Z   4
loop_
 _symmetry_equiv_pos_site_id
 _symmetry_equiv_pos_as_xyz
  1  'x, y, z'
loop_
 _atom_site_type_symbol
 _atom_site_label
 _atom_site_symmetry_multiplicity
 _atom_site_fract_x
 _atom_site_fract_y
 _atom_site_fract_z
 _atom_site_occupancy
 _atom_site_hle17_bader_spin_density
 _atom_site_hle17_ddec_charge
 _atom_site_hle17_ddec_spin_density
 _atom_site_hle17_ddec_sum_bond_order
 _atom_site_hle17_magmom
 _atom_site_hse06_10hf_bader_spin_density
 _atom_site_hse06_10hf_ddec_charge
 _atom_site_hse06_10hf_ddec_spin_density
 _atom_site_hse06_10hf_ddec_sum_bond_order
 _atom_site_hse06_10hf_magmom
 _atom_site_hse06_bader_spin_density
 _atom_site_hse06_ddec_charge
 _atom_site_hse06_ddec_spin_density
 _atom_site_hse06_ddec_sum_bond_order
 _atom_site_hse06_magmom
 _atom_site_pbe_bader_charge
 _atom_site_pbe_bader_spin_density
 _atom_site_pbe_cm5_charge
 _atom_site_pbe_ddec_charge
 _atom_site_pbe_ddec_spin_density
 _atom_site_pbe_ddec_sum_bond_order
 _atom_site_pbe_magmom
Sn  Sn0  1  0.08828111  0.69372473  0.95258644  1  0  1.358432  0  2.884526  0  0  1.229686  0  3.371401  0  0  1.267627  0  3.356599  0  1.67677  0  0.517149  1.20334  0  3.381467  0
Sn  Sn1  1  0.58827385  0.80627691  0.04741521  1  0  1.358515  0  2.884471  0  0  1.229744  0  3.37139  0  0  1.267682  0  3.356588  0  1.676797  0  0.517131  1.203392  0  3.381461  0
Sn  Sn2  1  0.91171728  0.30627249  0.04741697  1  0  1.358441  0  2.884588  0  0  1.229697  0  3.371441  0  0  1.267685  0  3.356564  0  1.676641  0  0.517129  1.20335  0  3.381507  0
Sn  Sn3  1  0.41172823  0.19371892  0.95258909  1  0  1.358601  0  2.88433  0  0  1.229857  0  3.371232  0  0  1.267795  0  3.356437  0  1.676716  0  0.517176  1.203511  0  3.381299  0
H  H4  1  0.89521922  0.73965034  0.48185713  1  0  0.299536  0  0.955362  0  0  0.268365  0  1.035648  0  0  0.279208  0  1.026705  0  0.537693  0  0.295583  0.260762  0  1.041874  0
H  H5  1  0.39521818  0.76034636  0.51814452  1  0  0.299414  0  0.955444  0  0  0.268278  0  1.035687  0  0  0.279122  0  1.026735  0  0.537792  0  0.29557  0.260677  0  1.041908  0
H  H6  1  0.10478470  0.26034939  0.51814364  1  0  0.299526  0  0.95537  0  0  0.268353  0  1.035668  0  0  0.279206  0  1.026703  0  0.537671  0  0.29559  0.26075  0  1.041894  0
H  H7  1  0.60478020  0.23964985  0.48185272  1  0  0.299346  0  0.955504  0  0  0.268254  0  1.035663  0  0  0.279098  0  1.026714  0  0.537716  0  0.295535  0.260658  0  1.041876  0
H  H8  1  0.79061439  0.93628481  0.33345507  1  0  0.32979  0  0.894947  0  0  0.317119  0  0.9517  0  0  0.323422  0  0.947224  0  0.466752  0  0.311082  0.312782  0  0.95472  0
H  H9  1  0.29061335  0.56371357  0.66654394  1  0  0.32978  0  0.894956  0  0  0.317105  0  0.951717  0  0  0.323408  0  0.947241  0  0.46679  0  0.311072  0.312767  0  0.954736  0
H  H10  1  0.20939045  0.06371387  0.66654217  1  0  0.329761  0  0.894978  0  0  0.317092  0  0.951743  0  0  0.323395  0  0.947267  0  0.467198  0  0.311055  0.312754  0  0.954764  0
H  H11  1  0.70938504  0.43628642  0.33345771  1  0  0.329785  0  0.894929  0  0  0.317127  0  0.951674  0  0  0.323431  0  0.947197  0  0.466805  0  0.311083  0.312789  0  0.954694  0
H  H12  1  0.74102061  0.83799270  0.40614633  1  0  0.351615  0  0.928363  0  0  0.329246  0  0.996016  0  0  0.338714  0  0.987288  0  0.546027  0  0.294977  0.32273  0  1.001936  0
H  H13  1  0.24102233  0.66200816  0.59385268  1  0  0.351605  0  0.928395  0  0  0.329246  0  0.996035  0  0  0.338715  0  0.987307  0  0.546011  0  0.294958  0.322727  0  1.001961  0
H  H14  1  0.25898147  0.16200681  0.59385091  1  0  0.351614  0  0.928396  0  0  0.32927  0  0.996004  0  0  0.338738  0  0.987275  0  0.54596  0  0.294981  0.322754  0  1.001924  0
H  H15  1  0.75897605  0.33799322  0.40614809  1  0  0.351605  0  0.928392  0  0  0.329233  0  0.996052  0  0  0.338702  0  0.987322  0  0.545995  0  0.294975  0.322717  0  1.001972  0
H  H16  1  0.11985396  0.93228104  0.14782498  1  0  0.106842  0  0.949567  0  0  0.121713  0  1.012089  0  0  0.123799  0  1.011537  0  0.070697  0  0.104878  0.120052  0  1.012913  0
H  H17  1  0.61985961  0.56772008  0.85217491  1  0  0.106844  0  0.94953  0  0  0.121655  0  1.012112  0  0  0.123743  0  1.011564  0  0.070558  0  0.104841  0.119997  0  1.012938  0
H  H18  1  0.88014443  0.06771952  0.85217579  1  0  0.106841  0  0.949578  0  0  0.121698  0  1.012125  0  0  0.123784  0  1.01158  0  0.070706  0  0.104858  0.12004  0  1.012952  0
H  H19  1  0.38013786  0.43228512  0.14782763  1  0  0.106901  0  0.949513  0  0  0.121675  0  1.012074  0  0  0.123761  0  1.011522  0  0.070623  0  0.104856  0.120018  0  1.0129  0
H  H20  1  0.20973266  0.03492740  0.10530086  1  0  0.120824  0  0.916175  0  0  0.142646  0  0.965106  0  0  0.144121  0  0.965807  0  0.050452  0  0.114319  0.14161  0  0.964661  0
H  H21  1  0.70973739  0.46507616  0.89470168  1  0  0.120789  0  0.916239  0  0  0.142591  0  0.96516  0  0  0.144064  0  0.965874  0  0.050494  0  0.114296  0.141556  0  0.964713  0
H  H22  1  0.79026111  0.96507294  0.89469638  1  0  0.120769  0  0.916317  0  0  0.142617  0  0.965192  0  0  0.144091  0  0.965905  0  0.050447  0  0.114304  0.141582  0  0.964746  0
H  H23  1  0.29025638  0.53493010  0.10530439  1  0  0.120782  0  0.916302  0  0  0.142522  0  0.965243  0  0  0.143989  0  0.965964  0  0.050419  0  0.11428  0.14149  0  0.96479  0
H  H24  1  0.33126170  0.07618218  0.29354193  1  0  0.084795  0  0.926864  0  0  0.097739  0  0.992149  0  0  0.098835  0  0.991574  0  0.093042  0  0.115942  0.096894  0  0.99263  0
H  H25  1  0.83126089  0.42381564  0.70645795  1  0  0.084742  0  0.926876  0  0  0.097696  0  0.99218  0  0  0.098792  0  0.991603  0  0.093147  0  0.11592  0.09685  0  0.992671  0
H  H26  1  0.66874038  0.92381897  0.70645531  1  0  0.084725  0  0.926902  0  0  0.097701  0  0.99217  0  0  0.09879  0  0.991599  0  0.093068  0  0.115942  0.096861  0  0.99264  0
H  H27  1  0.16873381  0.57618488  0.29354546  1  0  0.08474  0  0.926961  0  0  0.097751  0  0.992144  0  0  0.098847  0  0.991565  0  0.093116  0  0.115939  0.096905  0  0.992632  0
H  H28  1  0.17079629  0.10520670  0.31907653  1  0  0.087458  0  0.913  0  0  0.100945  0  0.976396  0  0  0.102012  0  0.975713  0  0.095533  0  0.114744  0.100124  0  0.976994  0
H  H29  1  0.67079825  0.39479026  0.68092601  1  0  0.087443  0  0.913034  0  0  0.100953  0  0.976425  0  0  0.10202  0  0.975741  0  0.095724  0  0.114756  0.10013  0  0.977033  0
H  H30  1  0.82920302  0.89479169  0.68092248  1  0  0.087475  0  0.91299  0  0  0.100968  0  0.976399  0  0  0.102033  0  0.975712  0  0.095511  0  0.114774  0.100145  0  0.977  0
H  H31  1  0.32919921  0.60520883  0.31908094  1  0  0.087555  0  0.912995  0  0  0.101017  0  0.976394  0  0  0.102082  0  0.975712  0  0.095274  0  0.114793  0.100194  0  0.977012  0
H  H32  1  0.42932487  0.93919321  0.39336580  1  0  0.105453  0  0.925859  0  0  0.111779  0  0.993701  0  0  0.115375  0  0.988988  0  0.145687  0  0.137455  0.109168  0  0.996938  0
H  H33  1  0.92932314  0.56080566  0.60663762  1  0  0.105329  0  0.925978  0  0  0.111686  0  0.993796  0  0  0.11527  0  0.989095  0  0.145704  0  0.137436  0.109074  0  0.99703  0
H  H34  1  0.57067813  0.06080221  0.60662880  1  0  0.105336  0  0.925892  0  0  0.111679  0  0.993727  0  0  0.115268  0  0.989029  0  0.145854  0  0.137423  0.109066  0  0.996967  0
H  H35  1  0.07067617  0.43919291  0.39336756  1  0  0.105369  0  0.925953  0  0  0.11172  0  0.99378  0  0  0.115306  0  0.989071  0  0.145709  0  0.137462  0.109111  0  0.997008  0
H  H36  1  0.01335267  0.90449649  0.94349165  1  0  0.144254  0  1.007776  0  0  0.161878  0  1.068158  0  0  0.164168  0  1.069214  0  0.035643  0  0.082379  0.160106  0  1.067708  0
H  H37  1  0.51335463  0.59550812  0.05651441  1  0  0.144222  0  1.007828  0  0  0.161898  0  1.068157  0  0  0.164187  0  1.069213  0  0.035732  0  0.082364  0.160126  0  1.067707  0
H  H38  1  0.98663834  0.09550276  0.05650471  1  0  0.144295  0  1.007738  0  0  0.161891  0  1.06816  0  0  0.164178  0  1.069222  0  0.035556  0  0.082376  0.160118  0  1.06771  0
H  H39  1  0.48664468  0.40449341  0.94349518  1  0  0.144284  0  1.007773  0  0  0.161907  0  1.068152  0  0  0.164196  0  1.069209  0  0.035628  0  0.08237  0.160133  0  1.067703  0
H  H40  1  0.97724092  0.79602542  0.80740157  1  0  0.160323  0  0.984101  0  0  0.177481  0  1.041319  0  0  0.180355  0  1.0416  0  0.05377  0  0.087303  0.175306  0  1.041378  0
H  H41  1  0.47724173  0.70397941  0.19260802  1  0  0.16028  0  0.984121  0  0  0.177429  0  1.041367  0  0  0.180301  0  1.04165  0  0.05368  0  0.087269  0.175253  0  1.041425  0
H  H42  1  0.02275193  0.20396771  0.19259920  1  0  0.160304  0  0.983996  0  0  0.177466  0  1.041211  0  0  0.180337  0  1.041495  0  0.053906  0  0.087315  0.175292  0  1.041266  0
H  H43  1  0.52276035  0.29602377  0.80740157  1  0  0.160302  0  0.984058  0  0  0.177447  0  1.0413  0  0  0.180318  0  1.041584  0  0.053776  0  0.087286  0.175266  0  1.041362  0
H  H44  1  0.13117181  0.85037913  0.83490830  1  0  0.162538  0  0.988614  0  0  0.181192  0  1.042785  0  0  0.184027  0  1.043347  0  0.048113  0  0.087367  0.179088  0  1.042601  0
H  H45  1  0.63117931  0.64963324  0.16509335  1  0  0.16251  0  0.988627  0  0  0.181202  0  1.042765  0  0  0.184038  0  1.043326  0  0.048153  0  0.087384  0.179098  0  1.042582  0
H  H46  1  0.86881735  0.14962124  0.16508629  1  0  0.162486  0  0.988691  0  0  0.181152  0  1.042858  0  0  0.183986  0  1.043424  0  0.047983  0  0.087374  0.179048  0  1.042673  0
H  H47  1  0.36882277  0.35037055  0.83491272  1  0  0.162528  0  0.988652  0  0  0.181228  0  1.042769  0  0  0.184064  0  1.043329  0  0.048149  0  0.087419  0.179124  0  1.042583  0
H  H48  1  0.00872406  0.60795164  0.12277835  1  0  0.160864  0  1.00254  0  0  0.17693  0  1.063065  0  0  0.180127  0  1.063328  0  0.046537  0  0.08518  0.17462  0  1.062961  0
H  H49  1  0.50872787  0.89205064  0.87721712  1  0  0.160966  0  1.002596  0  0  0.177048  0  1.063093  0  0  0.180245  0  1.063355  0  0.046465  0  0.085216  0.174737  0  1.06299  0
H  H50  1  0.99127525  0.39205540  0.87723036  1  0  0.16093  0  1.002652  0  0  0.177  0  1.063164  0  0  0.180195  0  1.063431  0  0.046433  0  0.085203  0.174688  0  1.06306  0
H  H51  1  0.49128159  0.10794744  0.12278364  1  0  0.160943  0  1.002529  0  0  0.177077  0  1.062971  0  0  0.180275  0  1.063233  0  0.046482  0  0.085278  0.174764  0  1.062869  0
H  H52  1  0.95692505  0.75472488  0.15654211  1  0  0.160501  0  1.002363  0  0  0.175635  0  1.062902  0  0  0.178647  0  1.063043  0  0.092504  0  0.084355  0.173443  0  1.062993  0
H  H53  1  0.45693047  0.74528100  0.84345160  1  0  0.160513  0  1.002241  0  0  0.175649  0  1.062779  0  0  0.178659  0  1.062921  0  0.092578  0  0.084329  0.173459  0  1.062868  0
H  H54  1  0.04307518  0.24528336  0.84345954  1  0  0.160506  0  1.002227  0  0  0.175642  0  1.062775  0  0  0.178651  0  1.062921  0  0.092579  0  0.084364  0.173452  0  1.062863  0
H  H55  1  0.54307714  0.25472072  0.15654476  1  0  0.160494  0  1.002359  0  0  0.175631  0  1.062899  0  0  0.178641  0  1.063043  0  0.0925  0  0.084325  0.17344  0  1.062989  0
H  H56  1  0.11291382  0.72407767  0.18706926  1  0  0.148028  0  1.003033  0  0  0.165333  0  1.061482  0  0  0.167224  0  1.063727  0  0.031067  0  0.081057  0.163918  0  1.060066  0
H  H57  1  0.61291762  0.77592727  0.81293239  1  0  0.148095  0  1.00299  0  0  0.165404  0  1.061429  0  0  0.167293  0  1.063675  0  0.031  0  0.081079  0.163988  0  1.060014  0
H  H58  1  0.88709011  0.27593170  0.81293062  1  0  0.14802  0  1.003117  0  0  0.165339  0  1.061539  0  0  0.167231  0  1.063786  0  0.031023  0  0.081067  0.163923  0  1.060123  0
H  H59  1  0.38709091  0.22407272  0.18706926  1  0  0.148033  0  1.003052  0  0  0.165342  0  1.061496  0  0  0.167245  0  1.063725  0  0.031056  0  0.081057  0.163927  0  1.060073  0
H  H60  1  0.29295902  0.57422757  0.85158194  1  0  0.158807  0  0.989496  0  0  0.177699  0  1.045141  0  0  0.180798  0  1.04466  0  0.065607  0  0.089242  0.175302  0  1.045922  0
H  H61  1  0.79295268  0.92576860  0.14841795  1  0  0.158729  0  0.989595  0  0  0.177617  0  1.045248  0  0  0.180715  0  1.044765  0  0.065676  0  0.089198  0.17522  0  1.046029  0
H  H62  1  0.70704029  0.42577456  0.14842412  1  0  0.158776  0  0.989532  0  0  0.177665  0  1.045182  0  0  0.180761  0  1.044702  0  0.065605  0  0.089225  0.175268  0  1.045963  0
H  H63  1  0.20704940  0.07422514  0.85157929  1  0  0.158718  0  0.989637  0  0  0.177623  0  1.045263  0  0  0.180722  0  1.04478  0  0.065701  0  0.089223  0.175227  0  1.046044  0
H  H64  1  0.15753679  0.50829385  0.76971382  1  0  0.156022  0  0.977343  0  0  0.176976  0  1.028244  0  0  0.179847  0  1.028049  0  -0.006542  0  0.088845  0.174873  0  1.028477  0
H  H65  1  0.65753506  0.99170967  0.23029136  1  0  0.156027  0  0.977264  0  0  0.176944  0  1.028219  0  0  0.179814  0  1.028024  0  -0.006636  0  0.088798  0.174841  0  1.028453  0
H  H66  1  0.84246437  0.49170745  0.23029224  1  0  0.155958  0  0.977365  0  0  0.176885  0  1.02831  0  0  0.179759  0  1.028112  0  -0.006637  0  0.088784  0.174781  0  1.028544  0
H  H67  1  0.34246979  0.00829224  0.76971118  1  0  0.156027  0  0.977298  0  0  0.176971  0  1.028218  0  0  0.179839  0  1.028027  0  -0.006576  0  0.088824  0.174869  0  1.02845  0
H  H68  1  0.19506281  0.48224337  0.90454297  1  0  0.150656  0  1.002703  0  0  0.170713  0  1.057892  0  0  0.172665  0  1.059678  0  0.020508  0  0.086152  0.169248  0  1.056714  0
H  H69  1  0.69506200  0.01776397  0.09546398  1  0  0.150689  0  1.002584  0  0  0.17072  0  1.057805  0  0  0.172672  0  1.059592  0  0.020465  0  0.086164  0.169258  0  1.056622  0
H  H70  1  0.80493743  0.51776258  0.09546486  1  0  0.150659  0  1.00266  0  0  0.170718  0  1.057841  0  0  0.172669  0  1.059631  0  0.02048  0  0.086163  0.169254  0  1.056663  0
H  H71  1  0.30493916  0.98223468  0.90453591  1  0  0.150701  0  1.002637  0  0  0.170733  0  1.057846  0  0  0.172684  0  1.059633  0  0.020394  0  0.086163  0.16927  0  1.056664  0
C  C72  1  0.13060546  0.90976728  0.38597578  1  0  0.302577  0  3.878829  0  0  0.265792  0  4.152452  0  0  0.282615  0  4.169299  0  0.916914  0  0.210984  0.254796  0  4.140821  0
C  C73  1  0.63060834  0.59022949  0.61402057  1  0  0.302713  0  3.878855  0  0  0.265737  0  4.152626  0  0  0.282564  0  4.169474  0  0.916981  0  0.210898  0.254747  0  4.140994  0
C  C74  1  0.86939754  0.09023171  0.61401969  1  0  0.302858  0  3.878641  0  0  0.265876  0  4.152443  0  0  0.282701  0  4.169291  0  0.916946  0  0.211084  0.254881  0  4.140812  0
C  C75  1  0.36939097  0.40976679  0.38597137  1  0  0.302365  0  3.878977  0  0  0.265545  0  4.152569  0  0  0.282372  0  4.169416  0  0.917028  0  0.210832  0.254551  0  4.140936  0
C  C76  1  0.17179156  0.83679888  0.44969226  1  0  -0.118848  0  3.872108  0  0  -0.121565  0  4.144075  0  0  -0.133575  0  4.167666  0  0.451768  0  0.05037  -0.1142  0  4.128708  0
C  C77  1  0.67179168  0.66319902  0.55030233  1  0  -0.119002  0  3.871931  0  0  -0.121601  0  4.14386  0  0  -0.133619  0  4.167453  0  0.451098  0  0.050371  -0.114255  0  4.128513  0
C  C78  1  0.82821420  0.16319981  0.55030498  1  0  -0.119032  0  3.872092  0  0  -0.121672  0  4.144093  0  0  -0.133685  0  4.167685  0  0.451719  0  0.050293  -0.114311  0  4.12873  0
C  C79  1  0.32820948  0.33680019  0.44969667  1  0  -0.118892  0  3.871938  0  0  -0.121502  0  4.143792  0  0  -0.13352  0  4.167387  0  0.451324  0  0.05037  -0.114143  0  4.128429  0
C  C80  1  0.93211432  0.86530372  0.39451467  1  0  0.664506  0  3.823248  0  0  0.610583  0  4.112264  0  0  0.639273  0  4.116421  0  1.601305  0  0.349544  0.591566  0  4.108608  0
C  C81  1  0.43211513  0.63469493  0.60548522  1  0  0.664654  0  3.822975  0  0  0.610669  0  4.112022  0  0  0.639358  0  4.116178  0  1.601348  0  0.3496  0.591648  0  4.108367  0
C  C82  1  0.06788868  0.13469411  0.60548522  1  0  0.664616  0  3.822962  0  0  0.610621  0  4.112018  0  0  0.63931  0  4.116176  0  1.601362  0  0.349556  0.591602  0  4.108366  0
C  C83  1  0.56788326  0.36530211  0.39451202  1  0  0.664581  0  3.82314  0  0  0.610672  0  4.112166  0  0  0.639361  0  4.116323  0  1.601327  0  0.349579  0.591651  0  4.108513  0
C  C84  1  0.21163742  0.97188648  0.15531117  1  0  -0.297455  0  3.660937  0  0  -0.34043  0  3.913622  0  0  -0.346858  0  3.920686  0  -0.015283  0  -0.157252  -0.335786  0  3.908548  0
C  C85  1  0.71164030  0.52811254  0.84468165  1  0  -0.297491  0  3.66113  0  0  -0.340349  0  3.913758  0  0  -0.346798  0  3.920847  0  -0.015049  0  -0.157181  -0.335711  0  3.908688  0
C  C86  1  0.78836281  0.02811337  0.84468165  1  0  -0.297482  0  3.661204  0  0  -0.34047  0  3.913873  0  0  -0.346924  0  3.920959  0  -0.015206  0  -0.15723  -0.335833  0  3.908808  0
C  C87  1  0.28835439  0.47188936  0.15532088  1  0  -0.297552  0  3.661414  0  0  -0.340261  0  3.91382  0  0  -0.346691  0  3.920878  0  -0.014973  0  -0.1572  -0.335622  0  3.908755  0
C  C88  1  0.08317470  0.76953154  0.48809827  1  0  0.533241  0  3.902786  0  0  0.486105  0  4.191362  0  0  0.516109  0  4.191077  0  1.292208  0  0.221375  0.465958  0  4.191097  0
C  C89  1  0.58317666  0.73047457  0.51189897  1  0  0.533375  0  3.902883  0  0  0.486173  0  4.191509  0  0  0.516183  0  4.191216  0  1.292948  0  0.221483  0.466034  0  4.191247  0
C  C90  1  0.91682738  0.23047232  0.51190250  1  0  0.533323  0  3.902907  0  0  0.486153  0  4.191494  0  0  0.516161  0  4.191211  0  1.292198  0  0.221513  0.466009  0  4.191228  0
C  C91  1  0.41682080  0.26952502  0.48809298  1  0  0.533279  0  3.902989  0  0  0.486094  0  4.191596  0  0  0.516101  0  4.191308  0  1.292587  0  0.221414  0.46595  0  4.19133  0
C  C92  1  0.23948654  0.03676564  0.28442685  1  0  0.046812  0  3.611831  0  0  -0.019298  0  3.875972  0  0  -0.012594  0  3.883736  0  0.308868  0  -0.048639  -0.023725  0  3.870572  0
C  C93  1  0.73948665  0.46322945  0.71557216  1  0  0.047057  0  3.611809  0  0  -0.019158  0  3.876074  0  0  -0.012433  0  3.883817  0  0.308421  0  -0.048634  -0.023595  0  3.87068  0
C  C94  1  0.76051462  0.96323248  0.71557127  1  0  0.046963  0  3.611824  0  0  -0.019198  0  3.87605  0  0  -0.012475  0  3.883799  0  0.308773  0  -0.048649  -0.023627  0  3.870659  0
C  C95  1  0.26051173  0.53676972  0.28442949  1  0  0.04673  0  3.61222  0  0  -0.019436  0  3.876269  0  0  -0.012717  0  3.884013  0  0.308871  0  -0.048725  -0.023881  0  3.870888  0
C  C96  1  0.33451593  0.91520642  0.40341180  1  0  0.186608  0  3.65114  0  0  0.116714  0  3.94356  0  0  0.13203  0  3.95167  0  0.976841  0  0.146896  0.106843  0  3.937357  0
C  C97  1  0.83451328  0.58479118  0.59658455  1  0  0.186827  0  3.651266  0  0  0.116906  0  3.943711  0  0  0.132232  0  3.951813  0  0.976768  0  0.146958  0.10704  0  3.937501  0
C  C98  1  0.66548892  0.08479339  0.59658367  1  0  0.186833  0  3.651192  0  0  0.116956  0  3.943636  0  0  0.132273  0  3.951746  0  0.976509  0  0.147002  0.107089  0  3.937428  0
C  C99  1  0.16548327  0.41520417  0.40341533  1  0  0.186853  0  3.651177  0  0  0.116908  0  3.943636  0  0  0.132236  0  3.951732  0  0.976686  0  0.146995  0.10704  0  3.937429  0
C  C100  1  0.04787628  0.82807742  0.87533411  1  0  -0.706793  0  3.519998  0  0  -0.746361  0  3.747494  0  0  -0.759747  0  3.753699  0  -0.434016  0  -0.331975  -0.737087  0  3.743633  0
C  C101  1  0.54787547  0.67192944  0.12466843  1  0  -0.706671  0  3.520192  0  0  -0.746322  0  3.747617  0  0  -0.759708  0  3.753826  0  -0.434011  0  -0.331903  -0.737044  0  3.743751  0
C  C102  1  0.95211750  0.17191992  0.12466137  1  0  -0.706749  0  3.520048  0  0  -0.746304  0  3.747541  0  0  -0.759696  0  3.75376  0  -0.433952  0  -0.331983  -0.73704  0  3.743703  0
C  C103  1  0.45212476  0.32807352  0.87533763  1  0  -0.706807  0  3.520018  0  0  -0.746408  0  3.747472  0  0  -0.759794  0  3.753678  0  -0.433964  0  -0.331989  -0.737138  0  3.743648  0
C  C104  1  0.03505768  0.69617630  0.12652586  1  0  -0.718146  0  3.516178  0  0  -0.759859  0  3.749501  0  0  -0.773803  0  3.75596  0  -0.46803  0  -0.342393  -0.750174  0  3.745197  0
C  C105  1  0.53505872  0.80382738  0.87346873  1  0  -0.718385  0  3.516066  0  0  -0.760121  0  3.749387  0  0  -0.774061  0  3.755851  0  -0.468008  0  -0.34245  -0.750435  0  3.745084  0
C  C106  1  0.96494163  0.30382921  0.87347491  1  0  -0.718194  0  3.516226  0  0  -0.759946  0  3.749577  0  0  -0.773895  0  3.756031  0  -0.467931  0  -0.342436  -0.750262  0  3.745276  0
C  C107  1  0.46494797  0.19617105  0.12652762  1  0  -0.718308  0  3.516239  0  0  -0.760089  0  3.749508  0  0  -0.774049  0  3.755949  0  -0.467973  0  -0.342485  -0.7504  0  3.745209  0
C  C108  1  0.19741493  0.54727785  0.85762190  1  0  -0.717756  0  3.514633  0  0  -0.756191  0  3.737643  0  0  -0.769423  0  3.743441  0  -0.403971  0  -0.33648  -0.746779  0  3.733802  0
C  C109  1  0.69740674  0.95272597  0.14238152  1  0  -0.717722  0  3.514463  0  0  -0.756082  0  3.737515  0  0  -0.769308  0  3.743314  0  -0.40382  0  -0.336388  -0.746669  0  3.733671  0
C  C110  1  0.80258715  0.45272593  0.14238417  1  0  -0.717667  0  3.514584  0  0  -0.756066  0  3.737596  0  0  -0.769306  0  3.743398  0  -0.403709  0  -0.336416  -0.746653  0  3.733756  0
C  C111  1  0.30259165  0.04727181  0.85762101  1  0  -0.717742  0  3.514595  0  0  -0.756158  0  3.737651  0  0  -0.769384  0  3.743452  0  -0.40386  0  -0.336446  -0.746748  0  3.733807  0
C  C112  1  0.30901801  0.88148998  0.09888235  1  0  0.707813  0  3.816848  0  0  0.654861  0  4.123014  0  0  0.689062  0  4.114587  0  1.548043  0  0.229791  0.631661  0  4.127904  0
C  C113  1  0.80901997  0.61851084  0.90111930  1  0  0.70788  0  3.816744  0  0  0.65496  0  4.122854  0  0  0.689166  0  4.114427  0  1.54809  0  0.229866  0.631765  0  4.127736  0
C  C114  1  0.69098130  0.11851061  0.90111577  1  0  0.707886  0  3.816848  0  0  0.655009  0  4.1229  0  0  0.689224  0  4.114462  0  1.548137  0  0.229847  0.631807  0  4.12779  0
C  C115  1  0.19097657  0.38148942  0.09888324  1  0  0.708019  0  3.816842  0  0  0.655044  0  4.122949  0  0  0.689252  0  4.114513  0  1.548114  0  0.229936  0.631842  0  4.127838  0
N  N116  1  0.01446232  0.92898113  0.35760784  1  0  -0.553981  0  2.99068  0  0  -0.5285  0  3.281365  0  0  -0.548912  0  3.289512  0  -1.216126  0  -0.363318  -0.514831  0  3.275474  0
N  N117  1  0.51446705  0.57101673  0.64238940  1  0  -0.554217  0  2.990646  0  0  -0.528548  0  3.281275  0  0  -0.548957  0  3.289423  0  -1.216139  0  -0.363356  -0.514874  0  3.275381  0
N  N118  1  0.98553792  0.07101699  0.64239029  1  0  -0.554289  0  2.990824  0  0  -0.528583  0  3.281436  0  0  -0.548993  0  3.289584  0  -1.2162  0  -0.363383  -0.514915  0  3.275547  0
N  N119  1  0.48553595  0.42898061  0.35760607  1  0  -0.553943  0  2.990662  0  0  -0.528477  0  3.281346  0  0  -0.548888  0  3.289493  0  -1.216144  0  -0.363331  -0.514805  0  3.275455  0
N  N120  1  0.96365950  0.78896742  0.45483836  1  0  -0.50704  0  3.262054  0  0  -0.436826  0  3.49758  0  0  -0.461117  0  3.501607  0  -1.280151  0  -0.380784  -0.420539  0  3.494555  0
N  N121  1  0.46366123  0.71103179  0.54516065  1  0  -0.506984  0  3.261858  0  0  -0.436806  0  3.497447  0  0  -0.461098  0  3.501469  0  -1.280174  0  -0.380866  -0.420521  0  3.49442  0
N  N122  1  0.03634258  0.21103179  0.54516065  1  0  -0.507026  0  3.262043  0  0  -0.436836  0  3.497629  0  0  -0.46113  0  3.501644  0  -1.280132  0  -0.380852  -0.420547  0  3.494597  0
N  N123  1  0.53633809  0.28896716  0.45483747  1  0  -0.506938  0  3.262162  0  0  -0.436747  0  3.497646  0  0  -0.461039  0  3.501674  0  -1.280111  0  -0.380777  -0.420463  0  3.494615  0
N  N124  1  0.23615021  0.95903946  0.35687722  1  0  -0.158785  0  3.472089  0  0  -0.065299  0  3.697851  0  0  -0.083321  0  3.719707  0  -1.231784  0  -0.241665  -0.053303  0  3.682662  0
N  N125  1  0.73615125  0.54095675  0.64312002  1  0  -0.158899  0  3.472181  0  0  -0.065363  0  3.69803  0  0  -0.08339  0  3.719878  0  -1.231788  0  -0.241618  -0.053365  0  3.682841  0
N  N126  1  0.76385279  0.04095870  0.64311826  1  0  -0.158884  0  3.471943  0  0  -0.065402  0  3.69785  0  0  -0.083429  0  3.719699  0  -1.231622  0  -0.241748  -0.053405  0  3.682659  0
N  N127  1  0.26384621  0.45904081  0.35687898  1  0  -0.158732  0  3.472288  0  0  -0.065209  0  3.697996  0  0  -0.083235  0  3.719843  0  -1.231737  0  -0.241528  -0.053211  0  3.682809  0
N  N128  1  0.81208695  0.87289129  0.36927744  1  0  -0.704713  0  3.066968  0  0  -0.668285  0  3.301756  0  0  -0.689518  0  3.296208  0  -1.326248  0  -0.574916  -0.653617  0  3.304955  0
N  N129  1  0.31208684  0.62710844  0.63072333  1  0  -0.704738  0  3.066891  0  0  -0.668308  0  3.301693  0  0  -0.689544  0  3.296147  0  -1.326287  0  -0.5749  -0.653642  0  3.304904  0
N  N130  1  0.18791881  0.12710792  0.63072156  1  0  -0.704697  0  3.06675  0  0  -0.668276  0  3.301548  0  0  -0.689509  0  3.296  0  -1.326734  0  -0.574899  -0.653607  0  3.304749  0
N  N131  1  0.68791340  0.37289129  0.36927744  1  0  -0.70472  0  3.066877  0  0  -0.668326  0  3.301677  0  0  -0.689563  0  3.296133  0  -1.326269  0  -0.574924  -0.653658  0  3.30488  0
N  N132  1  0.29893802  0.84200949  0.45995710  1  0  -0.356956  0  3.138029  0  0  -0.31731  0  3.415077  0  0  -0.328403  0  3.428264  0  -1.231521  0  -0.331041  -0.309542  0  3.405745  0
N  N133  1  0.79894275  0.65798728  0.54003926  1  0  -0.357042  0  3.137997  0  0  -0.31741  0  3.415048  0  0  -0.328503  0  3.428231  0  -1.231489  0  -0.331091  -0.30964  0  3.405722  0
N  N134  1  0.70106314  0.15798893  0.54003926  1  0  -0.356998  0  3.137985  0  0  -0.317407  0  3.415048  0  0  -0.3285  0  3.428231  0  -1.231347  0  -0.331087  -0.309642  0  3.405714  0
N  N135  1  0.20105933  0.34200731  0.45995533  1  0  -0.357039  0  3.137968  0  0  -0.317416  0  3.415038  0  0  -0.328515  0  3.428216  0  -1.231467  0  -0.331152  -0.309649  0  3.40571  0
O  O136  1  0.10115598  0.69747465  0.54324851  1  0  -0.577785  0  1.931891  0  0  -0.529795  0  2.146753  0  0  -0.551409  0  2.139236  0  -1.162221  0  -0.314863  -0.514991  0  2.1512  0
O  O137  1  0.60115333  0.80252103  0.45674696  1  0  -0.577833  0  1.93238  0  0  -0.529752  0  2.147176  0  0  -0.551362  0  2.139659  0  -1.162347  0  -0.314855  -0.514948  0  2.15162  0
O  O138  1  0.89884795  0.30252861  0.45675579  1  0  -0.577834  0  1.932013  0  0  -0.529753  0  2.146798  0  0  -0.551363  0  2.139278  0  -1.162254  0  -0.314883  -0.514949  0  2.151241  0
O  O139  1  0.39884414  0.19747709  0.54325116  1  0  -0.57778  0  1.932067  0  0  -0.529794  0  2.146942  0  0  -0.551404  0  2.139424  0  -1.162272  0  -0.314858  -0.51499  0  2.151385  0
O  O140  1  0.42066445  0.91138951  0.12862948  1  0  -0.631796  0  2.029558  0  0  -0.557471  0  2.270555  0  0  -0.584846  0  2.264148  0  -1.189265  0  -0.282282  -0.53828  0  2.274147  0
O  O141  1  0.92066918  0.58861577  0.87136776  1  0  -0.631763  0  2.029468  0  0  -0.557482  0  2.270478  0  0  -0.584854  0  2.264057  0  -1.189263  0  -0.282296  -0.538292  0  2.274069  0
O  O142  1  0.57933302  0.08861139  0.87136688  1  0  -0.631786  0  2.02956  0  0  -0.55751  0  2.270557  0  0  -0.584875  0  2.264119  0  -1.189289  0  -0.282281  -0.538325  0  2.274164  0
O  O143  1  0.07932737  0.41138366  0.12863477  1  0  -0.631844  0  2.029463  0  0  -0.557541  0  2.270473  0  0  -0.584932  0  2.264078  0  -1.189411  0  -0.282317  -0.538348  0  2.274066  0
O  O144  1  0.27970228  0.78484543  0.02626962  1  0  -0.638217  0  2.000834  0  0  -0.56996  0  2.238037  0  0  -0.596551  0  2.231384  0  -1.20724  0  -0.281377  -0.551345  0  2.24197  0
O  O145  1  0.77969870  0.71515539  0.97373203  1  0  -0.638254  0  2.000742  0  0  -0.569984  0  2.23791  0  0  -0.596578  0  2.23126  0  -1.20732  0  -0.281395  -0.55137  0  2.241842  0
O  O146  1  0.72029703  0.21515738  0.97372762  1  0  -0.638262  0  2.000849  0  0  -0.570018  0  2.238014  0  0  -0.59662  0  2.231354  0  -1.207302  0  -0.281379  -0.551398  0  2.241946  0
O  O147  1  0.22029968  0.28484734  0.02627051  1  0  -0.638275  0  2.000763  0  0  -0.570026  0  2.237984  0  0  -0.596622  0  2.23133  0  -1.207235  0  -0.281438  -0.551409  0  2.241919  0
