# generated using pymatgen
data_CoH4C8N4(OF)2
_symmetry_space_group_name_H-M   'P 1'
_cell_length_a   10.22459562
_cell_length_b   14.03048281
_cell_length_c   14.03066394
_cell_angle_alpha   114.31308773
_cell_angle_beta   104.06085275
_cell_angle_gamma   104.06127260
_symmetry_Int_Tables_number   1
_chemical_formula_structural   CoH4C8N4(OF)2
_chemical_formula_sum   'Co6 H24 C48 N24 O12 F12'
_cell_volume   1639.92240946
_cell_formula_units_Z   6
loop_
 _symmetry_equiv_pos_site_id
 _symmetry_equiv_pos_as_xyz
  1  'x, y, z'
loop_
 _atom_site_type_symbol
 _atom_site_label
 _atom_site_symmetry_multiplicity
 _atom_site_fract_x
 _atom_site_fract_y
 _atom_site_fract_z
 _atom_site_occupancy
 _atom_site_pbe_bader_charge
 _atom_site_pbe_bader_spin_density
 _atom_site_pbe_cm5_charge
 _atom_site_pbe_ddec_charge
 _atom_site_pbe_ddec_spin_density
 _atom_site_pbe_ddec_sum_bond_order
 _atom_site_pbe_magmom
Co  Co0  1  0.76799470  0.77539826  0.54104565  1  1.191987  2.552405  0.739573  0.757863  2.785625  2.606876  2.504
Co  Co1  1  0.22678537  0.23452500  0.45900736  1  1.190717  2.552707  0.738922  0.756368  2.785561  2.606364  2.504
Co  Co2  1  0.22677153  0.45900057  0.23451645  1  1.190711  2.552787  0.738845  0.756347  2.785612  2.605815  2.504
Co  Co3  1  0.99249457  0.76577682  0.22448709  1  1.191092  2.55269  0.737944  0.755594  2.786245  2.604928  2.504
Co  Co4  1  0.76800183  0.54105227  0.77540153  1  1.191856  2.552494  0.739467  0.757803  2.785699  2.606394  2.504
Co  Co5  1  0.99249937  0.22448652  0.76578577  1  1.191132  2.552702  0.737915  0.755553  2.786264  2.604928  2.504
H  H6  1  0.10548165  0.84369690  0.68265181  1  0.143121  0.002578  0.138943  0.134601  0.000831  0.943501  0.002
H  H7  1  0.42229396  0.16090338  0.31714951  1  0.141305  0.00258  0.139205  0.134245  0.00083  0.944316  0.002
H  H8  1  0.42228203  0.31716063  0.16090504  1  0.141375  0.00258  0.139219  0.134322  0.000831  0.944196  0.002
H  H9  1  0.26149294  0.83891888  0.15625853  1  0.142632  0.002576  0.138768  0.134002  0.00083  0.94458  0.002
H  H10  1  0.10549961  0.68265672  0.84370061  1  0.143149  0.002577  0.138957  0.134647  0.000831  0.94341  0.002
H  H11  1  0.26148491  0.15625714  0.83890484  1  0.142476  0.002576  0.138826  0.134129  0.00083  0.944584  0.002
H  H12  1  0.54141692  0.81573573  0.37137644  1  0.139637  0.002225  0.122887  0.112079  0.000512  1.004232  0.002
H  H13  1  0.17025570  0.44478227  0.62886860  1  0.136935  0.002216  0.123307  0.11138  0.00051  1.00425  0.002
H  H14  1  0.17025550  0.62885485  0.44476661  1  0.136868  0.002217  0.123217  0.111317  0.00051  1.004136  0.002
H  H15  1  0.72585053  0.55544247  0.18402119  1  0.129598  0.002218  0.123514  0.112212  0.000508  1.003704  0.002
H  H16  1  0.54142510  0.37138004  0.81573101  1  0.139744  0.002225  0.122917  0.112104  0.000512  1.004155  0.002
H  H17  1  0.72586214  0.18403459  0.55547037  1  0.129465  0.002219  0.123508  0.112239  0.000509  1.003625  0.002
H  H18  1  0.61074949  0.87548977  0.69250642  1  0.124037  0.003163  0.126228  0.116205  0.001142  0.98283  0.002
H  H19  1  0.91784621  0.18313772  0.30749011  1  0.1304  0.003154  0.12647  0.115958  0.00114  0.982968  0.002
H  H20  1  0.91782817  0.30747027  0.18312532  1  0.128938  0.003159  0.126403  0.115909  0.001141  0.983027  0.002
H  H21  1  0.73478010  0.81711386  0.12426758  1  0.137857  0.003136  0.126426  0.115244  0.001134  0.984099  0.002
H  H22  1  0.61074508  0.69251832  0.87547175  1  0.124384  0.003164  0.126265  0.116247  0.001142  0.982925  0.002
H  H23  1  0.73475800  0.12426186  0.81711073  1  0.137792  0.003135  0.126355  0.115122  0.001134  0.984218  0.002
H  H24  1  0.84720114  0.56806524  0.41762937  1  0.142824  0.002783  0.129771  0.120462  0.000847  0.96708  0.002
H  H25  1  0.42953491  0.15042902  0.58221869  1  0.145385  0.002783  0.13067  0.121644  0.000847  0.968003  0.002
H  H26  1  0.42953553  0.58222846  0.15042687  1  0.145636  0.002781  0.130701  0.121702  0.000846  0.967924  0.002
H  H27  1  0.27893465  0.84971482  0.43165581  1  0.130374  0.002791  0.12989  0.120968  0.000853  0.968567  0.002
H  H28  1  0.84720557  0.41762421  0.56808083  1  0.142908  0.002783  0.129758  0.120448  0.000847  0.967039  0.002
H  H29  1  0.27895748  0.43166442  0.84972760  1  0.130346  0.00279  0.129895  0.120905  0.000852  0.968639  0.002
C  C30  1  0.93796376  0.79451719  0.42086474  1  1.738435  0.003714  0.3022  0.575618  0.002613  4.172768  0.003
C  C31  1  0.51715921  0.37358847  0.57906911  1  1.747665  0.003774  0.304319  0.579432  0.002661  4.174625  0.003
C  C32  1  0.51716777  0.57907738  0.37359904  1  1.747753  0.003773  0.304342  0.579498  0.00266  4.174808  0.003
C  C33  1  0.14366148  0.62643769  0.20565393  1  1.733069  0.003754  0.302476  0.579516  0.00262  4.174925  0.003
C  C34  1  0.93798442  0.42086630  0.79452698  1  1.738079  0.003712  0.302267  0.575724  0.002611  4.172925  0.003
C  C35  1  0.14366344  0.20565902  0.62642809  1  1.733055  0.003761  0.302476  0.57959  0.002619  4.174646  0.003
C  C36  1  0.09413693  0.83584478  0.60014804  1  0.609625  -0.00937  0.061436  0.040711  -0.010418  3.960274  -0.006
C  C37  1  0.49365742  0.23551486  0.39967849  1  0.609701  -0.009617  0.06178  0.040208  -0.010677  3.959736  -0.006
C  C38  1  0.49365598  0.39968627  0.23552206  1  0.609536  -0.009615  0.06178  0.040057  -0.010674  3.959648  -0.006
C  C39  1  0.25820864  0.76435355  0.16422140  1  0.583219  -0.009448  0.062542  0.042861  -0.010511  3.956855  -0.006
C  C40  1  0.09415120  0.60015162  0.83584989  1  0.609621  -0.009368  0.061402  0.040604  -0.010416  3.960288  -0.006
C  C41  1  0.25820728  0.16421991  0.76434163  1  0.583109  -0.009449  0.062385  0.042546  -0.010512  3.957335  -0.006
C  C42  1  0.81213109  0.99991316  0.62337551  1  1.694619  0.003903  0.298805  0.561994  0.003034  4.192834  0.003
C  C43  1  0.18860456  0.37677238  0.37678248  1  1.707232  0.003944  0.299244  0.562606  0.003026  4.189955  0.003
C  C44  1  0.81212660  0.62338301  0.99992174  1  1.694176  0.003905  0.298867  0.562152  0.003033  4.192401  0.003
C  C45  1  0.61711904  0.89794224  0.44447850  1  0.583301  -0.009683  0.05596  0.046004  -0.010902  3.956621  -0.006
C  C46  1  0.17269731  0.45380441  0.55573351  1  0.573479  -0.009671  0.057166  0.04923  -0.010938  3.955131  -0.006
C  C47  1  0.17269864  0.55572470  0.45380259  1  0.573109  -0.009669  0.057193  0.049245  -0.010936  3.955201  -0.006
C  C48  1  0.71922169  0.54639337  0.10184071  1  0.589518  -0.00969  0.05658  0.048287  -0.01094  3.955819  -0.006
C  C49  1  0.61712521  0.44448047  0.89793984  1  0.58319  -0.009685  0.056013  0.046075  -0.010904  3.956605  -0.006
C  C50  1  0.71922405  0.10184340  0.54640515  1  0.58999  -0.009693  0.056556  0.04827  -0.010943  3.956175  -0.006
C  C51  1  0.77885013  0.70043704  0.70042148  1  1.735999  0.006634  0.306923  0.593171  0.004397  4.170656  0.004
C  C52  1  0.07793978  0.00011654  0.29956907  1  1.758717  0.006466  0.306092  0.591786  0.004357  4.171477  0.004
C  C53  1  0.07793128  0.29953946  0.00010529  1  1.75824  0.00647  0.306185  0.591792  0.004357  4.171831  0.004
C  C54  1  0.64702036  0.81990540  0.71860082  1  0.577081  -0.001487  0.056624  0.040855  -0.002126  3.952986  -0.001
C  C55  1  0.92802642  0.10144822  0.28139169  1  0.5856  -0.001489  0.058181  0.042407  -0.002095  3.952349  0.0
C  C56  1  0.92801533  0.28137072  0.10143758  1  0.586982  -0.001495  0.058146  0.042313  -0.002093  3.952707  0.0
C  C57  1  0.82667334  0.89879614  0.17994845  1  0.520689  -0.001439  0.057884  0.042949  -0.002126  3.954752  -0.001
C  C58  1  0.64701969  0.71861288  0.81988628  1  0.577166  -0.001492  0.056567  0.04069  -0.002127  3.953509  -0.001
C  C59  1  0.82665709  0.17993068  0.89878609  1  0.520334  -0.001438  0.058049  0.043199  -0.002125  3.954256  -0.001
C  C60  1  0.72873706  0.53934284  0.37737469  1  0.594872  -0.010293  0.056289  0.036092  -0.011301  3.965658  -0.006
C  C61  1  0.35137154  0.16200641  0.62250719  1  0.532507  -0.010028  0.053534  0.032323  -0.011069  3.967641  -0.006
C  C62  1  0.35137533  0.62251788  0.16200491  1  0.53255  -0.010029  0.053447  0.032118  -0.01107  3.967671  -0.006
C  C63  1  0.18926285  0.83815245  0.46042323  1  0.554655  -0.010011  0.054773  0.033579  -0.011034  3.966561  -0.006
C  C64  1  0.72873618  0.37736355  0.53934607  1  0.59489  -0.010297  0.056325  0.036235  -0.011307  3.965695  -0.006
C  C65  1  0.18928329  0.46042699  0.83816366  1  0.554816  -0.010009  0.054845  0.033845  -0.011032  3.966297  -0.006
C  C66  1  0.21201987  0.85147264  0.56755414  1  0.422391  0.012914  0.076922  0.137212  0.006517  4.131328  0.011
C  C67  1  0.64415998  0.28356985  0.43218997  1  0.399687  0.012954  0.075678  0.136085  0.006533  4.133815  0.011
C  C68  1  0.64415544  0.43218951  0.28358024  1  0.392669  0.01292  0.075774  0.136313  0.006532  4.133555  0.011
C  C69  1  0.36057724  0.71625996  0.14860020  1  0.478427  0.012915  0.074066  0.133307  0.006528  4.133242  0.011
C  C70  1  0.21203601  0.56755820  0.85148203  1  0.422182  0.012913  0.07688  0.137054  0.006517  4.131337  0.011
C  C71  1  0.36057848  0.14860413  0.71625081  1  0.478896  0.012915  0.074068  0.133335  0.006528  4.133427  0.011
C  C72  1  0.61968534  0.99988130  0.45075605  1  0.443901  0.01308  0.078334  0.139813  0.006644  4.10314  0.011
C  C73  1  0.16894568  0.54946737  0.54946562  1  0.442141  0.013071  0.077044  0.137903  0.006639  4.102783  0.011
C  C74  1  0.61968941  0.45074641  0.99987515  1  0.444214  0.01308  0.078351  0.139843  0.006644  4.102981  0.011
C  C75  1  0.60550833  0.79594919  0.79593401  1  0.480518  0.01102  0.08087  0.154503  0.00557  4.108316  0.009
C  C76  1  0.80915770  0.00011535  0.20398238  1  0.512722  0.010966  0.080014  0.154165  0.005569  4.109601  0.009
C  C77  1  0.80914229  0.20396610  0.00010584  1  0.513007  0.010966  0.079936  0.154086  0.005569  4.109611  0.009
N  N78  1  0.96066259  0.80821498  0.52814557  1  -1.210491  0.080744  -0.355548  -0.363812  0.042736  3.577562  0.057
N  N79  1  0.43234452  0.28000687  0.47176825  1  -1.2132  0.080528  -0.355404  -0.363096  0.042714  3.574936  0.057
N  N80  1  0.43235454  0.47178238  0.28001876  1  -1.212959  0.08052  -0.355459  -0.363218  0.042714  3.575165  0.057
N  N81  1  0.15245169  0.71997097  0.19192339  1  -1.214824  0.08048  -0.355125  -0.365797  0.042644  3.573554  0.057
N  N82  1  0.96068073  0.52814775  0.80822212  1  -1.21015  0.080732  -0.355515  -0.363807  0.042724  3.57735  0.057
N  N83  1  0.15245069  0.19192154  0.71995925  1  -1.21313  0.080481  -0.355076  -0.365747  0.042648  3.573587  0.057
N  N84  1  0.71087084  0.89833039  0.52980355  1  -1.2014  0.078253  -0.353866  -0.361433  0.041626  3.565163  0.056
N  N85  1  0.18104775  0.36882607  0.47038981  1  -1.199076  0.078152  -0.355299  -0.363656  0.041615  3.563953  0.056
N  N86  1  0.18104845  0.47037563  0.36883018  1  -1.198919  0.078141  -0.355258  -0.363697  0.04161  3.563952  0.056
N  N87  1  0.81256455  0.63136240  0.10149568  1  -1.205773  0.078248  -0.354425  -0.36422  0.041624  3.566065  0.056
N  N88  1  0.71087600  0.52981111  0.89833845  1  -1.201223  0.078235  -0.353952  -0.361612  0.041619  3.565338  0.056
N  N89  1  0.81256562  0.10148990  0.63136439  1  -1.206062  0.078253  -0.354413  -0.364248  0.041626  3.56659  0.056
N  N90  1  0.73016471  0.77243355  0.67152264  1  -1.195737  0.084549  -0.354003  -0.358605  0.044617  3.573122  0.058
N  N91  1  0.05822678  0.10105068  0.32851573  1  -1.220499  0.084536  -0.355838  -0.359363  0.044529  3.575577  0.058
N  N92  1  0.05821474  0.32848949  0.10104008  1  -1.221312  0.084521  -0.355741  -0.359306  0.044521  3.575727  0.058
N  N93  1  0.95725158  0.89916386  0.22745026  1  -1.218812  0.084456  -0.354559  -0.359366  0.044466  3.572988  0.058
N  N94  1  0.73016046  0.67153551  0.77242160  1  -1.202079  0.084548  -0.353869  -0.35831  0.044607  3.573063  0.058
N  N95  1  0.95724121  0.22742872  0.89915478  1  -1.218698  0.084452  -0.354655  -0.359376  0.044463  3.572693  0.058
N  N96  1  0.66636993  0.61130035  0.42039335  1  -1.228199  0.077546  -0.352575  -0.356732  0.041307  3.576844  0.055
N  N97  1  0.24603269  0.19102771  0.57958920  1  -1.208071  0.07745  -0.349348  -0.353103  0.041256  3.573871  0.055
N  N98  1  0.24603627  0.57959579  0.19102609  1  -1.206546  0.077437  -0.349329  -0.352946  0.041246  3.573582  0.055
N  N99  1  0.05485148  0.80920424  0.38855928  1  -1.20441  0.077479  -0.350074  -0.353461  0.041212  3.569883  0.055
N  N100  1  0.66635775  0.42037997  0.61129460  1  -1.228348  0.077543  -0.352532  -0.356848  0.041303  3.576846  0.055
N  N101  1  0.05487016  0.38856132  0.80921690  1  -1.204678  0.077473  -0.350127  -0.353475  0.041209  3.569926  0.055
O  O102  1  0.81159985  0.76728743  0.35369745  1  -1.162126  0.048843  -0.313992  -0.557245  0.024435  2.11386  0.041
O  O103  1  0.45816461  0.41372446  0.64633077  1  -1.160002  0.049038  -0.315685  -0.560696  0.024564  2.115468  0.041
O  O104  1  0.45819705  0.64635428  0.41375146  1  -1.160073  0.049025  -0.315725  -0.560727  0.024559  2.115262  0.041
O  O105  1  0.04462935  0.58632910  0.23284657  1  -1.156529  0.048576  -0.314819  -0.559556  0.024323  2.11486  0.04
O  O106  1  0.81162490  0.35369505  0.76729958  1  -1.161731  0.048826  -0.314015  -0.557303  0.024431  2.113987  0.04
O  O107  1  0.04463565  0.23285765  0.58632425  1  -1.156748  0.048557  -0.314863  -0.559554  0.024314  2.114657  0.04
O  O108  1  0.90525383  0.99992401  0.70059788  1  -1.144086  0.067627  -0.311007  -0.5516  0.034104  2.117074  0.056
O  O109  1  0.20439135  0.29949910  0.29952431  1  -1.150272  0.067431  -0.309755  -0.551235  0.034102  2.117872  0.056
O  O110  1  0.90525238  0.70061985  0.99994980  1  -1.143838  0.067628  -0.311062  -0.551692  0.034103  2.116828  0.056
O  O111  1  0.86250387  0.66035587  0.66033970  1  -1.166397  0.044746  -0.32532  -0.578028  0.02259  2.096117  0.036
O  O112  1  0.20165685  0.00007970  0.33969365  1  -1.159624  0.044939  -0.322919  -0.575781  0.022739  2.095239  0.037
O  O113  1  0.20164578  0.33965450  0.00006464  1  -1.159388  0.044936  -0.322958  -0.575817  0.022737  2.095574  0.037
F  F114  1  0.34818410  0.87726448  0.63907457  1  -0.625466  0.003933  -0.101703  -0.142976  0.001902  1.38952  0.003
F  F115  1  0.70859265  0.23776713  0.36054771  1  -0.63155  0.003946  -0.10024  -0.141508  0.001903  1.392043  0.003
F  F116  1  0.70857180  0.36053195  0.23776926  1  -0.636106  0.003948  -0.100254  -0.141557  0.001903  1.391915  0.003
F  F117  1  0.47070307  0.76196663  0.12262349  1  -0.636246  0.003951  -0.098787  -0.139328  0.001902  1.391502  0.003
F  F118  1  0.34819905  0.63908484  0.87726989  1  -0.625591  0.003933  -0.101672  -0.142923  0.001902  1.38948  0.003
F  F119  1  0.47070835  0.12263295  0.76196117  1  -0.636084  0.003951  -0.09883  -0.139384  0.001902  1.391543  0.003
F  F120  1  0.52602557  0.99988985  0.36315587  1  -0.636497  0.003815  -0.096828  -0.134247  0.001786  1.388392  0.003
F  F121  1  0.16299623  0.63713421  0.63712217  1  -0.626625  0.003795  -0.096957  -0.133935  0.001785  1.388551  0.003
F  F122  1  0.52602178  0.36313427  0.99986806  1  -0.63663  0.003815  -0.096861  -0.134293  0.001785  1.388249  0.003
F  F123  1  0.52197818  0.84458033  0.84457068  1  -0.624023  0.003574  -0.105069  -0.139954  0.0017  1.350577  0.003
F  F124  1  0.67697559  0.00010629  0.15540144  1  -0.621285  0.003581  -0.105557  -0.140153  0.00171  1.35219  0.003
F  F125  1  0.67695742  0.15539728  0.00009843  1  -0.620498  0.00358  -0.105485  -0.140088  0.00171  1.352287  0.003
