# generated using pymatgen
data_HoH21(C7O3)4
_symmetry_space_group_name_H-M   'P 1'
_cell_length_a   9.62970326
_cell_length_b   11.46730444
_cell_length_c   12.44897218
_cell_angle_alpha   75.11850811
_cell_angle_beta   73.84098965
_cell_angle_gamma   73.06582161
_symmetry_Int_Tables_number   1
_chemical_formula_structural   HoH21(C7O3)4
_chemical_formula_sum   'Ho2 H42 C56 O24'
_cell_volume   1239.81359032
_cell_formula_units_Z   2
loop_
 _symmetry_equiv_pos_site_id
 _symmetry_equiv_pos_as_xyz
  1  'x, y, z'
loop_
 _atom_site_type_symbol
 _atom_site_label
 _atom_site_symmetry_multiplicity
 _atom_site_fract_x
 _atom_site_fract_y
 _atom_site_fract_z
 _atom_site_occupancy
 _atom_site_hle17_bader_spin_density
 _atom_site_hle17_ddec_charge
 _atom_site_hle17_ddec_spin_density
 _atom_site_hle17_ddec_sum_bond_order
 _atom_site_hle17_magmom
 _atom_site_hse06_10hf_bader_spin_density
 _atom_site_hse06_10hf_ddec_charge
 _atom_site_hse06_10hf_ddec_spin_density
 _atom_site_hse06_10hf_ddec_sum_bond_order
 _atom_site_hse06_10hf_magmom
 _atom_site_hse06_bader_spin_density
 _atom_site_hse06_ddec_charge
 _atom_site_hse06_ddec_spin_density
 _atom_site_hse06_ddec_sum_bond_order
 _atom_site_hse06_magmom
 _atom_site_pbe_bader_spin_density
 _atom_site_pbe_cm5_charge
 _atom_site_pbe_ddec_charge
 _atom_site_pbe_ddec_spin_density
 _atom_site_pbe_ddec_sum_bond_order
 _atom_site_pbe_magmom
Ho  Ho0  1  0.27826269  0.45452703  0.05576940  1  0  2.23133  0  1.632155  0  0  2.086617  0  2.107957  0  0  2.220535  0  1.909652  0  0  1.525504  2.050013  0  2.139425  0
Ho  Ho1  1  0.72173719  0.54547426  0.94423035  1  0  2.23132  0  1.632114  0  0  2.086599  0  2.107936  0  0  2.220523  0  1.909615  0  0  1.525485  2.049995  0  2.139407  0
H  H2  1  0.21028476  0.19004687  0.26336970  1  0  0.418598  0  0.868065  0  0  0.38548  0  0.950013  0  0  0.39857  0  0.932993  0  0  0.312623  0.376267  0  0.96037  0
H  H3  1  0.78971457  0.80995255  0.73662981  1  0  0.418589  0  0.868079  0  0  0.385465  0  0.950037  0  0  0.398554  0  0.933016  0  0  0.312616  0.376253  0  0.960395  0
H  H4  1  0.48622131  0.42623398  0.19593126  1  0  0.433916  0  0.871234  0  0  0.404012  0  0.933396  0  0  0.415173  0  0.917446  0  0  0.296465  0.39635  0  0.944575  0
H  H5  1  0.51377777  0.57376638  0.80406969  1  0  0.433926  0  0.871224  0  0  0.404029  0  0.933375  0  0  0.415191  0  0.917424  0  0  0.296471  0.396366  0  0.944555  0
H  H6  1  0.39914399  0.31828085  0.25830517  1  0  0.435508  0  0.864392  0  0  0.406084  0  0.925886  0  0  0.417141  0  0.910004  0  0  0.296431  0.398292  0  0.937291  0
H  H7  1  0.60085912  0.68171674  0.74169394  1  0  0.435522  0  0.864381  0  0  0.4061  0  0.925871  0  0  0.417157  0  0.90999  0  0  0.296441  0.398311  0  0.937273  0
H  H8  1  0.15345370  0.38767183  0.89344786  1  0  0.446332  0  0.822953  0  0  0.41643  0  0.894897  0  0  0.426264  0  0.880754  0  0  0.317838  0.409673  0  0.904801  0
H  H9  1  0.84654781  0.61232761  0.10655278  1  0  0.446218  0  0.823118  0  0  0.416348  0  0.894984  0  0  0.42618  0  0.880845  0  0  0.317794  0.409591  0  0.904888  0
H  H10  1  0.05318183  0.35057585  0.01300080  1  0  0.459582  0  0.83327  0  0  0.425965  0  0.900898  0  0  0.437873  0  0.883708  0  0  0.309115  0.417736  0  0.912998  0
H  H11  1  0.94681697  0.64942543  0.98699919  1  0  0.459612  0  0.833233  0  0  0.425992  0  0.900864  0  0  0.437899  0  0.883676  0  0  0.309131  0.417765  0  0.912962  0
H  H12  1  0.09474575  0.26554307  0.43773611  1  0  0.092717  0  0.949283  0  0  0.103766  0  1.009832  0  0  0.107079  0  1.007229  0  0  0.104511  0.101339  0  1.011728  0
H  H13  1  0.90525331  0.73445728  0.56226325  1  0  0.092767  0  0.94929  0  0  0.103789  0  1.009861  0  0  0.107101  0  1.007258  0  0  0.104536  0.101365  0  1.011756  0
H  H14  1  0.93902289  0.26185260  0.63642849  1  0  0.086793  0  0.963729  0  0  0.097271  0  1.026689  0  0  0.099893  0  1.026248  0  0  0.097601  0.095292  0  1.027371  0
H  H15  1  0.06097670  0.73814962  0.36357030  1  0  0.086801  0  0.963655  0  0  0.097279  0  1.026619  0  0  0.099902  0  1.026176  0  0  0.097603  0.095303  0  1.027302  0
H  H16  1  0.70703274  0.42699886  0.67253607  1  0  0.103202  0  0.946114  0  0  0.114788  0  1.001748  0  0  0.117974  0  0.999324  0  0  0.107449  0.112484  0  1.003612  0
H  H17  1  0.29296416  0.57300148  0.32746377  1  0  0.103188  0  0.946116  0  0  0.114763  0  1.001759  0  0  0.117958  0  0.999325  0  0  0.107449  0.11246  0  1.003624  0
H  H18  1  0.62465422  0.58755709  0.51236593  1  0  0.110888  0  0.957149  0  0  0.12303  0  1.014918  0  0  0.125876  0  1.014531  0  0  0.105987  0.121416  0  1.014253  0
H  H19  1  0.37534479  0.41244326  0.48763022  1  0  0.110886  0  0.957156  0  0  0.12304  0  1.014908  0  0  0.125885  0  1.01452  0  0  0.106008  0.121424  0  1.014243  0
H  H20  1  0.80021431  0.76917820  0.39366785  1  0  0.112464  0  0.959205  0  0  0.123344  0  1.019711  0  0  0.126056  0  1.019265  0  0  0.107184  0.121227  0  1.020601  0
H  H21  1  0.19978154  0.23081841  0.60633473  1  0  0.112437  0  0.9592  0  0  0.123318  0  1.019723  0  0  0.126032  0  1.019277  0  0  0.107174  0.1212  0  1.020611  0
H  H22  1  0.63712602  0.98461875  0.38944973  1  0  0.100187  0  0.963276  0  0  0.107722  0  1.02851  0  0  0.110035  0  1.028145  0  0  0.104009  0.106097  0  1.028714  0
H  H23  1  0.36287014  0.01537693  0.61055541  1  0  0.100213  0  0.963288  0  0  0.107745  0  1.028521  0  0  0.11006  0  1.028152  0  0  0.103999  0.10612  0  1.028731  0
H  H24  1  0.35993759  0.89668608  0.21847878  1  0  0.098054  0  0.979879  0  0  0.105536  0  1.044956  0  0  0.107169  0  1.04599  0  0  0.104869  0.104162  0  1.044615  0
H  H25  1  0.64006390  0.10331336  0.78152026  1  0  0.098057  0  0.979878  0  0  0.105545  0  1.04495  0  0  0.107176  0  1.045988  0  0  0.104887  0.104171  0  1.044609  0
H  H26  1  0.52823319  0.68390680  0.21656593  1  0  0.13039  0  0.938572  0  0  0.138635  0  0.998744  0  0  0.142285  0  0.997094  0  0  0.114964  0.135955  0  1.00018  0
H  H27  1  0.47177229  0.31609359  0.78342877  1  0  0.130398  0  0.938577  0  0  0.138645  0  0.998739  0  0  0.142296  0  0.997088  0  0  0.114983  0.135969  0  1.000168  0
H  H28  1  0.44375451  0.94921805  0.95533501  1  0  0.100419  0  0.95862  0  0  0.109841  0  1.02171  0  0  0.112271  0  1.020566  0  0  0.10496  0.108342  0  1.022004  0
H  H29  1  0.55624568  0.05078231  0.04466730  1  0  0.100453  0  0.958524  0  0  0.109875  0  1.021612  0  0  0.112304  0  1.020469  0  0  0.104961  0.108376  0  1.021909  0
H  H30  1  0.26067477  0.14155243  0.01190552  1  0  0.135447  0  0.952661  0  0  0.142763  0  1.015111  0  0  0.147243  0  1.012143  0  0  0.112589  0.13964  0  1.017246  0
H  H31  1  0.73932760  0.85844795  0.98809791  1  0  0.135436  0  0.952636  0  0  0.142736  0  1.015108  0  0  0.147219  0  1.012124  0  0  0.112551  0.139617  0  1.017242  0
H  H32  1  0.93685046  0.92505832  0.18705098  1  0  0.110431  0  0.957862  0  0  0.120545  0  1.018214  0  0  0.123201  0  1.018676  0  0  0.104293  0.118707  0  1.017927  0
H  H33  1  0.06315215  0.07494113  0.81295021  1  0  0.110393  0  0.95786  0  0  0.120512  0  1.018209  0  0  0.123169  0  1.018662  0  0  0.104277  0.118673  0  1.01792  0
H  H34  1  0.11977461  0.73433534  0.13254781  1  0  0.114447  0  0.953908  0  0  0.122607  0  1.016784  0  0  0.126252  0  1.013979  0  0  0.112535  0.119681  0  1.019564  0
H  H35  1  0.88022662  0.26566503  0.86745186  1  0  0.114469  0  0.95385  0  0  0.122604  0  1.016753  0  0  0.126247  0  1.013949  0  0  0.112561  0.119687  0  1.019518  0
H  H36  1  0.01350152  0.99068296  0.33161985  1  0  0.107589  0  0.968627  0  0  0.116909  0  1.032023  0  0  0.120039  0  1.031251  0  0  0.103701  0.114712  0  1.032534  0
H  H37  1  0.98649675  0.00931646  0.66838151  1  0  0.10758  0  0.968617  0  0  0.116906  0  1.032003  0  0  0.120036  0  1.03123  0  0  0.103709  0.114708  0  1.032513  0
H  H38  1  0.84184341  0.02225037  0.51689110  1  0  0.087109  0  0.957377  0  0  0.098391  0  1.017031  0  0  0.100913  0  1.015678  0  0  0.099272  0.096507  0  1.018085  0
H  H39  1  0.15815567  0.97774999  0.48310985  1  0  0.087107  0  0.957359  0  0  0.098383  0  1.017032  0  0  0.100905  0  1.01568  0  0  0.099269  0.096499  0  1.018085  0
H  H40  1  0.63519640  0.21299554  0.52831754  1  0  0.08161  0  0.999349  0  0  0.08992  0  1.066577  0  0  0.091182  0  1.069474  0  0  0.092798  0.088931  0  1.064773  0
H  H41  1  0.36480241  0.78700575  0.47168325  1  0  0.081643  0  0.999327  0  0  0.08994  0  1.06657  0  0  0.091203  0  1.069462  0  0  0.092805  0.088937  0  1.064779  0
H  H42  1  0.60693288  0.37260226  0.35221562  1  0  0.095546  0  0.945526  0  0  0.108876  0  1.001876  0  0  0.112076  0  0.999111  0  0  0.10635  0.106579  0  1.003628  0
H  H43  1  0.39306702  0.62739903  0.64778573  1  0  0.095418  0  0.945511  0  0  0.108812  0  1.001807  0  0  0.112011  0  0.999042  0  0  0.106316  0.106513  0  1.003563  0
C  C44  1  0.05128531  0.43155806  0.25042621  1  0  0.681333  0  3.87974  0  0  0.629891  0  4.174837  0  0  0.664167  0  4.173796  0  0  0.206573  0.605628  0  4.181294  0
C  C45  1  0.94871536  0.56844044  0.74957243  1  0  0.681357  0  3.879804  0  0  0.629881  0  4.174925  0  0  0.664161  0  4.173884  0  0  0.206527  0.605617  0  4.181379  0
C  C46  1  0.94910306  0.42786043  0.36441941  1  0  -0.170485  0  3.738539  0  0  -0.153843  0  3.979149  0  0  -0.165021  0  4.000529  0  0  -0.025056  -0.146044  0  3.964148  0
C  C47  1  0.05089110  0.57213802  0.63557828  1  0  -0.170527  0  3.738588  0  0  -0.153868  0  3.979235  0  0  -0.165049  0  4.000616  0  0  -0.025031  -0.146065  0  3.96423  0
C  C48  1  0.99078063  0.33498422  0.45556498  1  0  -0.039618  0  3.74381  0  0  -0.062981  0  3.993185  0  0  -0.060535  0  4.013334  0  0  -0.076938  -0.064562  0  3.979057  0
C  C49  1  0.00921435  0.66501518  0.54443310  1  0  -0.039668  0  3.743948  0  0  -0.06301  0  3.993311  0  0  -0.060565  0  4.013461  0  0  -0.076973  -0.064596  0  3.979193  0
C  C50  1  0.90482231  0.33344810  0.56584499  1  0  -0.097426  0  3.778943  0  0  -0.115503  0  4.039841  0  0  -0.120629  0  4.061921  0  0  -0.09959  -0.111859  0  4.024852  0
C  C51  1  0.09517321  0.66655316  0.43415334  1  0  -0.097452  0  3.778936  0  0  -0.115534  0  4.039836  0  0  -0.120662  0  4.06192  0  0  -0.099598  -0.111893  0  4.024855  0
C  C52  1  0.77380907  0.42522512  0.58628561  1  0  -0.010036  0  3.737832  0  0  -0.026553  0  3.991397  0  0  -0.023635  0  4.009565  0  0  -0.0768  -0.028334  0  3.978427  0
C  C53  1  0.22618809  0.57477429  0.41371360  1  0  -0.010019  0  3.737965  0  0  -0.026527  0  3.991526  0  0  -0.023614  0  4.009693  0  0  -0.076807  -0.028309  0  3.978563  0
C  C54  1  0.72798896  0.51695056  0.49678105  1  0  -0.199234  0  3.750626  0  0  -0.219989  0  4.006843  0  0  -0.227313  0  4.02707  0  0  -0.102988  -0.2144  0  3.991188  0
C  C55  1  0.27201062  0.48304794  0.50321703  1  0  -0.199241  0  3.750664  0  0  -0.22  0  4.006918  0  0  -0.227326  0  4.027151  0  0  -0.103  -0.214411  0  3.991263  0
C  C56  1  0.81500153  0.51849986  0.38624120  1  0  0.278101  0  3.741047  0  0  0.257435  0  4.005814  0  0  0.270674  0  4.020433  0  0  0.095887  0.248344  0  3.9954  0
C  C57  1  0.18499614  0.48150141  0.61375584  1  0  0.278328  0  3.741047  0  0  0.257505  0  4.005865  0  0  0.270745  0  4.020484  0  0  0.095953  0.248413  0  3.99545  0
C  C58  1  0.67208429  0.71588057  0.30494719  1  0  0.287175  0  3.768402  0  0  0.274927  0  4.029843  0  0  0.287543  0  4.043831  0  0  0.093348  0.266252  0  4.020145  0
C  C59  1  0.32791612  0.28411886  0.69505208  1  0  0.287235  0  3.768423  0  0  0.274889  0  4.029863  0  0  0.287508  0  4.043848  0  0  0.093349  0.266214  0  4.02016  0
C  C60  1  0.70421834  0.79865551  0.35480376  1  0  -0.184495  0  3.735776  0  0  -0.202899  0  3.986362  0  0  -0.209261  0  4.005249  0  0  -0.096232  -0.198833  0  3.974144  0
C  C61  1  0.29578104  0.20134020  0.64519905  1  0  -0.184436  0  3.735698  0  0  -0.202875  0  3.986331  0  0  -0.209239  0  4.005221  0  0  -0.096212  -0.198807  0  3.974105  0
C  C62  1  0.61303304  0.91784182  0.35295706  1  0  -0.029877  0  3.724466  0  0  -0.05416  0  3.97122  0  0  -0.050944  0  3.990695  0  0  -0.073625  -0.05608  0  3.958013  0
C  C63  1  0.38696741  0.08215390  0.64704551  1  0  -0.029959  0  3.724553  0  0  -0.054233  0  3.971313  0  0  -0.051017  0  3.990789  0  0  -0.073653  -0.056152  0  3.958094  0
C  C64  1  0.48860173  0.95397087  0.30378494  1  0  -0.102724  0  3.783492  0  0  -0.081026  0  4.017842  0  0  -0.092026  0  4.041863  0  0  -0.023129  -0.074081  0  4.002021  0
C  C65  1  0.51139630  0.04602575  0.69621875  1  0  -0.102738  0  3.783525  0  0  -0.081042  0  4.017871  0  0  -0.092039  0  4.041887  0  0  -0.023168  -0.074099  0  4.002044  0
C  C66  1  0.45675959  0.86900534  0.25600206  1  0  -0.038898  0  3.727155  0  0  -0.060849  0  3.973156  0  0  -0.057915  0  3.992833  0  0  -0.07625  -0.062534  0  3.960098  0
C  C67  1  0.54323895  0.13099315  0.74399866  1  0  -0.038825  0  3.727013  0  0  -0.060785  0  3.973017  0  0  -0.057855  0  3.992703  0  0  -0.076232  -0.062472  0  3.959959  0
C  C68  1  0.54895375  0.75039104  0.25534031  1  0  -0.169544  0  3.703942  0  0  -0.191864  0  3.961501  0  0  -0.197715  0  3.979046  0  0  -0.090861  -0.187977  0  3.94965  0
C  C69  1  0.45104640  0.24960932  0.74465960  1  0  -0.169612  0  3.703819  0  0  -0.191949  0  3.961422  0  0  -0.197799  0  3.978964  0  0  -0.090902  -0.188068  0  3.949568  0
C  C70  1  0.39462467  0.08223618  0.30165786  1  0  0.653197  0  3.815282  0  0  0.602042  0  4.114577  0  0  0.635973  0  4.104847  0  0  0.233515  0.578805  0  4.120862  0
C  C71  1  0.60537630  0.91776140  0.69834333  1  0  0.653203  0  3.815363  0  0  0.602071  0  4.114626  0  0  0.636002  0  4.104895  0  0  0.233579  0.578835  0  4.12091  0
C  C72  1  0.41138119  0.71635724  0.01977405  1  0  0.711164  0  3.875532  0  0  0.667007  0  4.16068  0  0  0.703636  0  4.155899  0  0  0.22677  0.642223  0  4.168284  0
C  C73  1  0.58862194  0.28364407  0.98022577  1  0  0.711262  0  3.875427  0  0  0.667113  0  4.160555  0  0  0.703741  0  4.155771  0  0  0.226851  0.642328  0  4.168156  0
C  C74  1  0.29508038  0.82973062  0.04309836  1  0  -0.105715  0  3.770713  0  0  -0.085705  0  4.006542  0  0  -0.096411  0  4.028254  0  0  -0.029503  -0.078271  0  3.99027  0
C  C75  1  0.70492192  0.17026975  0.95690107  1  0  -0.105688  0  3.770793  0  0  -0.085691  0  4.006618  0  0  -0.096398  0  4.02833  0  0  -0.029491  -0.07826  0  3.990345  0
C  C76  1  0.33261356  0.94526171  0.00616857  1  0  -0.043338  0  3.746185  0  0  -0.065435  0  3.993679  0  0  -0.062527  0  4.013034  0  0  -0.079047  -0.066846  0  3.979437  0
C  C77  1  0.66738879  0.05473867  0.99383406  1  0  -0.043399  0  3.746136  0  0  -0.065481  0  3.993605  0  0  -0.062574  0  4.012961  0  0  -0.079057  -0.066893  0  3.979365  0
C  C78  1  0.23222057  0.05164668  0.03741434  1  0  -0.172548  0  3.707718  0  0  -0.196121  0  3.965551  0  0  -0.201915  0  3.981928  0  0  -0.096547  -0.192137  0  3.954092  0
C  C79  1  0.76778314  0.94835277  0.96258901  1  0  -0.17255  0  3.70757  0  0  -0.196104  0  3.965403  0  0  -0.201898  0  3.981785  0  0  -0.096476  -0.192125  0  3.953947  0
C  C80  1  0.09243513  0.04189764  0.10663894  1  0  0.301116  0  3.759036  0  0  0.287038  0  4.021206  0  0  0.300488  0  4.035158  0  0  0.096706  0.277876  0  4.011554  0
C  C81  1  0.90756696  0.95810367  0.89336433  1  0  0.301242  0  3.758884  0  0  0.287161  0  4.021079  0  0  0.300601  0  4.035021  0  0  0.096758  0.277997  0  4.011427  0
C  C82  1  0.04914128  0.92920656  0.13857024  1  0  -0.203573  0  3.764845  0  0  -0.220851  0  4.018473  0  0  -0.228481  0  4.038716  0  0  -0.102873  -0.215631  0  4.004572  0
C  C83  1  0.95085997  0.07079381  0.86143103  1  0  -0.203542  0  3.764751  0  0  -0.220804  0  4.018366  0  0  -0.228437  0  4.03861  0  0  -0.102858  -0.215586  0  4.004464  0
C  C84  1  0.15138788  0.82299796  0.10697823  1  0  -0.02791  0  3.707548  0  0  -0.054297  0  3.95926  0  0  -0.050025  0  3.975976  0  0  -0.075071  -0.056697  0  3.947281  0
C  C85  1  0.84861445  0.17700242  0.89302280  1  0  -0.027954  0  3.707545  0  0  -0.054328  0  3.959287  0  0  -0.05006  0  3.976013  0  0  -0.075137  -0.056733  0  3.947294  0
C  C86  1  0.90411185  0.16180531  0.23711180  1  0  0.302392  0  3.716398  0  0  0.280623  0  3.977538  0  0  0.296171  0  3.99036  0  0  0.104167  0.269801  0  3.968409  0
C  C87  1  0.09588831  0.83819505  0.76288891  1  0  0.302296  0  3.71646  0  0  0.280539  0  3.977603  0  0  0.296074  0  3.990417  0  0  0.104139  0.269719  0  3.968476  0
C  C88  1  0.92188374  0.07277664  0.33620066  1  0  -0.209613  0  3.764587  0  0  -0.230187  0  4.021563  0  0  -0.237986  0  4.041308  0  0  -0.107163  -0.224852  0  4.007698  0
C  C89  1  0.07811346  0.92722277  0.66380094  1  0  -0.209544  0  3.764563  0  0  -0.230111  0  4.021528  0  0  -0.237914  0  4.041282  0  0  -0.107132  -0.224774  0  4.007662  0
C  C90  1  0.82536952  0.09156289  0.44013209  1  0  -0.027623  0  3.763327  0  0  -0.038744  0  4.008743  0  0  -0.036288  0  4.028159  0  0  -0.083821  -0.039864  0  3.995226  0
C  C91  1  0.17462985  0.90843654  0.55986983  1  0  -0.027613  0  3.763359  0  0  -0.038738  0  4.008777  0  0  -0.036284  0  4.028198  0  0  -0.083849  -0.039856  0  3.995257  0
C  C92  1  0.70965792  0.19835313  0.44698992  1  0  -0.095818  0  3.788149  0  0  -0.112884  0  4.045187  0  0  -0.118551  0  4.068501  0  0  -0.101227  -0.109138  0  4.029139  0
C  C93  1  0.29034169  0.80164909  0.55300967  1  0  -0.09592  0  3.78818  0  0  -0.112987  0  4.045232  0  0  -0.118657  0  4.068551  0  0  -0.101256  -0.109227  0  4.029195  0
C  C94  1  0.69337916  0.28690592  0.34906128  1  0  -0.025987  0  3.739305  0  0  -0.053046  0  3.992228  0  0  -0.048697  0  4.009364  0  0  -0.077489  -0.055815  0  3.980097  0
C  C95  1  0.30661936  0.71309629  0.65093775  1  0  -0.025831  0  3.739076  0  0  -0.052926  0  3.991976  0  0  -0.048572  0  4.009106  0  0  -0.077438  -0.055691  0  3.97984  0
C  C96  1  0.78956829  0.27179546  0.24319602  1  0  -0.173756  0  3.713359  0  0  -0.159677  0  3.95949  0  0  -0.171192  0  3.978476  0  0  -0.027939  -0.151699  0  3.946493  0
C  C97  1  0.21043052  0.72820583  0.75680478  1  0  -0.173763  0  3.713263  0  0  -0.159691  0  3.959415  0  0  -0.171211  0  3.978407  0  0  -0.027962  -0.151717  0  3.946424  0
C  C98  1  0.76999710  0.37389318  0.14417414  1  0  0.672663  0  3.874871  0  0  0.619506  0  4.169359  0  0  0.654369  0  4.166632  0  0  0.202927  0.595185  0  4.176  0
C  C99  1  0.23000307  0.62610718  0.85582738  1  0  0.672695  0  3.874883  0  0  0.61954  0  4.169369  0  0  0.654401  0  4.166641  0  0  0.202968  0.595221  0  4.17601  0
O  O100  1  0.05838841  0.53520584  0.18286891  1  0  -0.688455  0  1.989962  0  0  -0.642029  0  2.236951  0  0  -0.675173  0  2.225592  0  0  -0.380454  -0.62588  0  2.244402  0
O  O101  1  0.94161144  0.46479173  0.81712933  1  0  -0.688489  0  1.990024  0  0  -0.642062  0  2.237044  0  0  -0.675208  0  2.225683  0  0  -0.38044  -0.625912  0  2.244494  0
O  O102  1  0.13838241  0.33129136  0.21944076  1  0  -0.702323  0  2.031477  0  0  -0.638884  0  2.270258  0  0  -0.674202  0  2.260907  0  0  -0.36036  -0.620063  0  2.276173  0
O  O103  1  0.86161852  0.66870621  0.78055724  1  0  -0.70232  0  2.031414  0  0  -0.638863  0  2.270198  0  0  -0.674181  0  2.260848  0  0  -0.36036  -0.620042  0  2.276114  0
O  O104  1  0.76664547  0.60054253  0.29388824  1  0  -0.294188  0  2.390803  0  0  -0.219039  0  2.61434  0  0  -0.237912  0  2.615657  0  0  -0.140005  -0.205062  0  2.612575  0
O  O105  1  0.23335598  0.39945690  0.70610839  1  0  -0.294411  0  2.391062  0  0  -0.218923  0  2.614374  0  0  -0.237796  0  2.615689  0  0  -0.140013  -0.204952  0  2.612619  0
O  O106  1  0.43385374  0.16555653  0.32399699  1  0  -0.566114  0  1.959555  0  0  -0.518983  0  2.174449  0  0  -0.54006  0  2.165903  0  0  -0.287476  -0.504204  0  2.179785  0
O  O107  1  0.56614908  0.83444198  0.67600116  1  0  -0.566112  0  1.959604  0  0  -0.519  0  2.174496  0  0  -0.540075  0  2.165949  0  0  -0.287514  -0.504219  0  2.179829  0
O  O108  1  0.26496230  0.09872481  0.27414985  1  0  -0.554807  0  2.111259  0  0  -0.504794  0  2.342655  0  0  -0.526708  0  2.325931  0  0  -0.324635  -0.489291  0  2.352105  0
O  O109  1  0.73503813  0.90127462  0.72585022  1  0  -0.554809  0  2.111298  0  0  -0.504799  0  2.342689  0  0  -0.526712  0  2.325964  0  0  -0.32464  -0.489295  0  2.352144  0
O  O110  1  0.37716286  0.61115171  0.04751219  1  0  -0.799852  0  2.134467  0  0  -0.74431  0  2.403827  0  0  -0.788074  0  2.392559  0  0  -0.432069  -0.726221  0  2.411644  0
O  O111  1  0.62283835  0.38884866  0.95248668  1  0  -0.799848  0  2.134451  0  0  -0.74431  0  2.403804  0  0  -0.788073  0  2.392533  0  0  -0.43208  -0.726228  0  2.411635  0
O  O112  1  0.54516263  0.72587624  0.97602143  1  0  -0.716581  0  1.994649  0  0  -0.667839  0  2.245856  0  0  -0.704259  0  2.232152  0  0  -0.399615  -0.650651  0  2.253122  0
O  O113  1  0.45483915  0.27412600  0.02397847  1  0  -0.716662  0  1.99457  0  0  -0.667913  0  2.245767  0  0  -0.704331  0  2.232061  0  0  -0.399659  -0.650726  0  2.253033  0
O  O114  1  0.99891209  0.15186378  0.13336924  1  0  -0.272891  0  2.425766  0  0  -0.194371  0  2.644225  0  0  -0.214634  0  2.647753  0  0  -0.129456  -0.179681  0  2.641087  0
O  O115  1  0.00109025  0.84813660  0.86663259  1  0  -0.272951  0  2.42578  0  0  -0.194487  0  2.644302  0  0  -0.214694  0  2.647776  0  0  -0.129518  -0.179794  0  2.641163  0
O  O116  1  0.86935873  0.37798359  0.05162204  1  0  -0.705648  0  2.130962  0  0  -0.650394  0  2.379172  0  0  -0.684235  0  2.368947  0  0  -0.369675  -0.633071  0  2.385649  0
O  O117  1  0.13064116  0.62201770  0.94837851  1  0  -0.70564  0  2.131052  0  0  -0.650375  0  2.379237  0  0  -0.684213  0  2.369019  0  0  -0.369656  -0.63305  0  2.385713  0
O  O118  1  0.65063100  0.46218518  0.14939887  1  0  -0.716128  0  2.024791  0  0  -0.659879  0  2.265369  0  0  -0.69403  0  2.254968  0  0  -0.364606  -0.641847  0  2.271889  0
O  O119  1  0.34936971  0.53781705  0.85060208  1  0  -0.716112  0  2.024791  0  0  -0.659877  0  2.265384  0  0  -0.694042  0  2.255014  0  0  -0.364627  -0.641843  0  2.271903  0
O  O120  1  0.38747087  0.40510294  0.21443513  1  0  -0.929041  0  1.894672  0  0  -0.879784  0  2.088432  0  0  -0.911243  0  2.052587  0  0  -0.653236  -0.864981  0  2.109213  0
O  O121  1  0.61253089  0.59489557  0.78556406  1  0  -0.92905  0  1.894645  0  0  -0.8798  0  2.0884  0  0  -0.911257  0  2.052554  0  0  -0.653238  -0.865005  0  2.1092  0
O  O122  1  0.15696052  0.35851771  0.97393575  1  0  -0.905449  0  1.849982  0  0  -0.860104  0  2.064779  0  0  -0.890555  0  2.02727  0  0  -0.637211  -0.846927  0  2.086641  0
O  O123  1  0.84303963  0.64148265  0.02606416  1  0  -0.905363  0  1.85009  0  0  -0.860008  0  2.064895  0  0  -0.890461  0  2.027384  0  0  -0.637172  -0.846831  0  2.086758  0
