# generated using pymatgen
data_HgH3C5I2NCl2
_symmetry_space_group_name_H-M   'P 1'
_cell_length_a   4.30586604
_cell_length_b   15.31495875
_cell_length_c   18.29089804
_cell_angle_alpha   66.71037260
_cell_angle_beta   83.28330590
_cell_angle_gamma   81.81494296
_symmetry_Int_Tables_number   1
_chemical_formula_structural   HgH3C5I2NCl2
_chemical_formula_sum   'Hg4 H12 C20 I8 N4 Cl8'
_cell_volume   1094.16602732
_cell_formula_units_Z   4
loop_
 _symmetry_equiv_pos_site_id
 _symmetry_equiv_pos_as_xyz
  1  'x, y, z'
loop_
 _atom_site_type_symbol
 _atom_site_label
 _atom_site_symmetry_multiplicity
 _atom_site_fract_x
 _atom_site_fract_y
 _atom_site_fract_z
 _atom_site_occupancy
 _atom_site_pbe_bader_charge
 _atom_site_pbe_bader_spin_density
 _atom_site_pbe_cm5_charge
 _atom_site_pbe_ddec_charge
 _atom_site_pbe_ddec_spin_density
 _atom_site_pbe_ddec_sum_bond_order
 _atom_site_pbe_magmom
Hg  Hg0  1  0.70256699  0.27054162  0.52051720  1  0.455729  0  0.329385  0.344235  0  2.73951  0
Hg  Hg1  1  0.49273516  0.22892188  0.97929649  1  0.455803  0  0.329534  0.344645  0  2.73842  0
Hg  Hg2  1  0.29745471  0.72947251  0.47947801  1  0.455515  0  0.32934  0.344149  0  2.739568  0
Hg  Hg3  1  0.50726905  0.77107509  0.02071143  1  0.455741  0  0.329533  0.344639  0  2.738533  0
H  H4  1  0.05414391  0.28349060  0.34630372  1  0.126301  0  0.09419  0.084588  0  1.053736  0
H  H5  1  0.68353965  0.21610898  0.15338002  1  0.124942  0  0.093994  0.084907  0  1.05406  0
H  H6  1  0.94584334  0.71652853  0.65369462  1  0.126098  0  0.094256  0.084685  0  1.053594  0
H  H7  1  0.31650505  0.78388583  0.84662803  1  0.12491  0  0.094032  0.085063  0  1.054082  0
H  H8  1  0.73563873  0.53897080  0.14771580  1  0.14029  0  0.092615  0.127877  0  1.038508  0
H  H9  1  0.41940342  0.96195021  0.35232456  1  0.139961  0  0.092223  0.127611  0  1.038619  0
H  H10  1  0.26426498  0.46103268  0.85226869  1  0.140567  0  0.092511  0.127649  0  1.038892  0
H  H11  1  0.58064102  0.03804533  0.64767561  1  0.140121  0  0.092072  0.127394  0  1.038418  0
H  H12  1  0.38212463  0.48192129  0.39246959  1  0.110203  0  0.093519  0.090829  0  1.042325  0
H  H13  1  0.25788513  0.01755603  0.10745217  1  0.113026  0  0.093249  0.090079  0  1.042338  0
H  H14  1  0.61785101  0.51809072  0.60752157  1  0.138345  0  0.093538  0.090834  0  1.042427  0
H  H15  1  0.74213173  0.98243808  0.89255088  1  0.113269  0  0.093198  0.090035  0  1.042466  0
C  C16  1  0.90805528  0.35156588  0.32176964  1  0.552404  0  0.024751  -0.001345  0  3.95389  0
C  C17  1  0.58093664  0.14819817  0.17797896  1  0.559868  0  0.025025  -0.002726  0  3.954883  0
C  C18  1  0.09192813  0.64844398  0.67822914  1  0.552233  0  0.024757  -0.001366  0  3.953825  0
C  C19  1  0.41909858  0.85179020  0.82203586  1  0.560219  0  0.025111  -0.002644  0  3.954731  0
C  C20  1  0.91727629  0.40711119  0.24000888  1  0.021398  0  0.014844  0.119824  0  4.052805  0
C  C21  1  0.56284274  0.09312586  0.25980106  1  -0.008388  0  0.015278  0.122536  0  4.049264  0
C  C22  1  0.08267154  0.59290012  0.75998329  1  0.021341  0  0.014894  0.119718  0  4.052908  0
C  C23  1  0.43723162  0.90687109  0.74020055  1  -0.007219  0  0.015151  0.121997  0  4.049447  0
C  C24  1  0.73107444  0.49451445  0.21125359  1  0.039224  0  -0.086071  -0.170846  0  3.936934  0
C  C25  1  0.43515372  0.00595365  0.28871412  1  0.104544  0  -0.08619  -0.171966  0  3.936716  0
C  C26  1  0.26887914  0.50548686  0.78873844  1  0.040037  0  -0.085919  -0.170421  0  3.936523  0
C  C27  1  0.56489221  0.99403758  0.71129781  1  0.105124  0  -0.085931  -0.171458  0  3.936987  0
C  C28  1  0.53833405  0.52246147  0.26673034  1  0.129856  0  0.014569  0.123665  0  4.041781  0
C  C29  1  0.32708368  0.97771480  0.23325996  1  0.033184  0  0.014971  0.124269  0  4.042286  0
C  C30  1  0.46165855  0.47754197  0.73325937  1  0.129624  0  0.014548  0.123659  0  4.041795  0
C  C31  1  0.67294501  0.02228575  0.76673626  1  0.032291  0  0.014996  0.124318  0  4.042459  0
C  C32  1  0.53391870  0.46290379  0.34770166  1  0.498027  0  0.024884  0.003195  0  3.945791  0
C  C33  1  0.34511264  0.03679856  0.15219570  1  0.568645  0  0.025596  0.004855  0  3.945497  0
C  C34  1  0.46607319  0.53710177  0.65229665  1  0.469859  0  0.024922  0.003119  0  3.94603  0
C  C35  1  0.65490623  0.96320340  0.84781125  1  0.568054  0  0.025713  0.004939  0  3.94504  0
I  I36  1  0.09151829  0.12361935  0.50795600  1  -0.252815  0  -0.161344  -0.247341  0  1.676545  0
I  I37  1  0.71938540  0.37575192  0.99230624  1  -0.252036  0  -0.161128  -0.24705  0  1.674901  0
I  I38  1  0.90842015  0.87637837  0.49204365  1  -0.252727  0  -0.161303  -0.247275  0  1.676633  0
I  I39  1  0.28061917  0.62425077  0.00769377  1  -0.251985  0  -0.161124  -0.247098  0  1.675008  0
I  I40  1  0.21033491  0.36396441  0.57446532  1  -0.235323  0  -0.145604  -0.222021  0  1.766661  0
I  I41  1  0.14853424  0.13628661  0.92459478  1  -0.235977  0  -0.145305  -0.222386  0  1.768241  0
I  I42  1  0.78964256  0.63603545  0.42553145  1  -0.235176  0  -0.145578  -0.221999  0  1.766608  0
I  I43  1  0.85147402  0.86370535  0.07541468  1  -0.236  0  -0.145308  -0.222389  0  1.768295  0
N  N44  1  0.71732353  0.37980411  0.37335135  1  -1.203191  0  -0.310427  -0.157021  0  3.508747  0
N  N45  1  0.47104533  0.11971552  0.12641946  1  -1.220419  0  -0.310679  -0.157552  0  3.509587  0
N  N46  1  0.28265891  0.62020860  0.62664924  1  -1.203277  0  -0.310602  -0.157088  0  3.508298  0
N  N47  1  0.52896564  0.88028216  0.87358584  1  -1.220902  0  -0.310721  -0.157525  0  3.509742  0
Cl  Cl48  1  0.15738482  0.36735511  0.17485901  1  -0.192314  0  0.009128  -0.046516  0  1.674262  0
Cl  Cl49  1  0.69681116  0.13321321  0.32488485  1  -0.193987  0  0.009248  -0.047021  0  1.673265  0
Cl  Cl50  1  0.84257419  0.63264404  0.82514069  1  -0.192612  0  0.009099  -0.046547  0  1.674369  0
Cl  Cl51  1  0.30324682  0.86677015  0.67512935  1  -0.194259  0  0.009178  -0.046996  0  1.673453  0
Cl  Cl52  1  0.30640831  0.63024064  0.23609886  1  -0.190244  0  0.004777  -0.049881  0  1.67813  0
Cl  Cl53  1  0.17205473  0.87019079  0.26403577  1  -0.188763  0  0.004946  -0.04941  0  1.677917  0
Cl  Cl54  1  0.69354538  0.36975352  0.76389225  1  -0.19023  0  0.004766  -0.049923  0  1.677962  0
Cl  Cl55  1  0.82799318  0.12980830  0.73597188  1  -0.188909  0  0.004894  -0.049502  0  1.677889  0
