# generated using pymatgen
data_ZnH9C22NO10
_symmetry_space_group_name_H-M   'P 1'
_cell_length_a   13.87449260
_cell_length_b   16.73039720
_cell_length_c   17.62891018
_cell_angle_alpha   92.64467562
_cell_angle_beta   84.63265277
_cell_angle_gamma   108.65343925
_symmetry_Int_Tables_number   1
_chemical_formula_structural   ZnH9C22NO10
_chemical_formula_sum   'Zn2 H18 C44 N2 O20'
_cell_volume   3859.59654988
_cell_formula_units_Z   2
loop_
 _symmetry_equiv_pos_site_id
 _symmetry_equiv_pos_as_xyz
  1  'x, y, z'
loop_
 _atom_site_type_symbol
 _atom_site_label
 _atom_site_symmetry_multiplicity
 _atom_site_fract_x
 _atom_site_fract_y
 _atom_site_fract_z
 _atom_site_occupancy
 _atom_site_pbe_bader_charge
 _atom_site_pbe_bader_spin_density
 _atom_site_pbe_cm5_charge
 _atom_site_pbe_ddec_charge
 _atom_site_pbe_ddec_spin_density
 _atom_site_pbe_ddec_sum_bond_order
 _atom_site_pbe_magmom
Zn  Zn0  1  0.48833392  0.40683333  0.50546884  1  1.306211  0  0.681625  0.860816  0  2.318199  0
Zn  Zn1  1  0.51919507  0.59030907  0.49740381  1  1.308185  0  0.686602  0.860552  0  2.345602  0
H  H2  1  0.55917330  0.39697407  0.71851460  1  0.134868  0  0.110286  0.115048  0  1.024494  0
H  H3  1  0.59857953  0.66653411  0.06513454  1  0.028021  0  0.092719  0.027581  0  0.982892  0
H  H4  1  0.53293845  0.70088858  0.78525730  1  0.610645  0  0.348367  0.371541  0  0.856386  0
H  H5  1  0.48212530  0.29822057  0.21345688  1  0.600376  0  0.348053  0.372786  0  0.852636  0
H  H6  1  0.25292749  0.07964283  0.40621526  1  0.071104  0  0.108935  0.05007  0  0.965982  0
H  H7  1  0.72617206  0.92948163  0.56965418  1  0.076019  0  0.108995  0.051952  0  0.97335  0
H  H8  1  0.34737632  0.31160448  0.41215387  1  0.162974  0  0.120261  0.08693  0  1.015368  0
H  H9  1  0.68615846  0.70606938  0.53980963  1  0.147458  0  0.1168  0.076955  0  1.003072  0
H  H10  1  0.61423665  0.28489302  0.63246269  1  0.638759  0  0.365709  0.396073  0  0.827546  0
H  H11  1  0.29755072  0.66342766  0.43645835  1  0.661946  0  0.327342  0.381184  0  0.938784  0
H  H12  1  0.54366910  0.62234973  0.27540564  1  0.15071  0  0.117213  0.129626  0  0.986709  0
H  H13  1  0.55452207  0.63932841  0.88940056  1  0.071713  0  0.11002  0.125128  0  0.995562  0
H  H14  1  0.52736030  0.37312837  0.10764304  1  0.084366  0  0.109594  0.124747  0  0.996038  0
H  H15  1  0.56456484  0.14473835  0.59353702  1  0.139879  0  0.131784  0.164423  0  0.962835  0
H  H16  1  0.34419338  0.81190762  0.45944753  1  0.11485  0  0.128813  0.158444  0  0.966014  0
H  H17  1  0.98905910  0.34664753  0.52484563  1  0.107768  0  0.108464  0.044091  0  0.955358  0
H  H18  1  0.03750173  0.67877561  0.44275791  1  0.10129  0  0.116912  0.054769  0  0.945287  0
H  H19  1  0.60723772  0.37367118  0.92164852  1  0.066921  0  0.095325  0.031457  0  0.976281  0
C  C20  1  0.50233961  0.48499212  0.35725795  1  1.553502  0  0.218111  0.60919  0  4.157584  0
C  C21  1  0.56735186  0.85897335  0.54586843  1  0.040011  0  -0.001912  -0.098288  0  3.886403  0
C  C22  1  0.41136617  0.21886484  0.45773708  1  0.431785  0  0.127993  0.161467  0  3.928903  0
C  C23  1  0.57784519  0.77853783  0.53613563  1  0.466884  0  0.127213  0.15933  0  3.94952  0
C  C24  1  0.52223437  0.24893311  0.55358466  1  1.109124  0  0.234661  0.480016  0  4.061657  0
C  C25  1  0.42810573  0.72550819  0.47465567  1  1.127306  0  0.236912  0.497748  0  4.046249  0
C  C26  1  0.51964635  0.16453780  0.55504557  1  0.001933  0  -0.068638  -0.283126  0  3.848726  0
C  C27  1  0.41029290  0.80374607  0.48292776  1  0.063956  0  -0.068468  -0.274803  0  3.837244  0
C  C28  1  0.45828701  0.10514335  0.50678067  1  0.120111  0  0.037422  0.185801  0  4.065807  0
C  C29  1  0.48054183  0.87168820  0.51717772  1  0.059144  0  0.036658  0.181272  0  4.06648  0
C  C30  1  0.45670148  0.02045832  0.50933191  1  0.292188  0  -0.014562  -0.059732  0  4.023989  0
C  C31  1  0.52453109  0.51518655  0.64273804  1  1.608882  0  0.221113  0.624103  0  4.141625  0
C  C32  1  0.46774747  0.95215218  0.51766349  1  -0.480463  0  -0.009936  -0.047619  0  4.021757  0
C  C33  1  0.31074090  0.46830378  0.51631543  1  1.705121  0  0.220324  0.652501  0  4.261926  0
C  C34  1  0.70023886  0.53350346  0.47848180  1  1.694383  0  0.222447  0.656988  0  4.240679  0
C  C35  1  0.80871854  0.54435861  0.46970799  1  0.077163  0  -0.014046  -0.118023  0  3.86987  0
C  C36  1  0.20830221  0.46734568  0.50480439  1  -0.1399  0  -0.00478  -0.102728  0  3.834873  0
C  C37  1  0.99815746  0.54507859  0.46803994  1  0.164351  0  0.014247  0.023982  0  3.99849  0
C  C38  1  0.02814543  0.47733640  0.48737919  1  0.046513  0  0.024622  0.053082  0  3.953388  0
C  C39  1  0.12896160  0.48042986  0.49318952  1  -0.081636  0  -0.028723  -0.063614  0  4.124278  0
C  C40  1  0.89549663  0.54093081  0.46803684  1  -0.313281  0  -0.031847  -0.06104  0  4.14983  0
C  C41  1  0.57622295  0.44693329  0.83249173  1  -0.026298  0  -0.028511  -0.065241  0  3.997547  0
C  C42  1  0.55767744  0.58659437  0.85141662  1  0.030729  0  -0.100305  -0.283839  0  3.944529  0
C  C43  1  0.55967415  0.57903805  0.16003690  1  0.023242  0  -0.026171  -0.061678  0  3.991916  0
C  C44  1  0.55963160  0.45067320  0.75598289  1  0.031167  0  -0.062274  -0.064779  0  3.934356  0
C  C45  1  0.54077238  0.56757535  0.23863523  1  -0.026283  0  -0.057549  -0.059392  0  3.918594  0
C  C46  1  0.54284770  0.51976151  0.72540689  1  0.023748  0  -0.015098  -0.126909  0  3.900934  0
C  C47  1  0.51837617  0.48912084  0.27216889  1  0.021551  0  -0.017494  -0.135532  0  3.90042  0
C  C48  1  0.54449855  0.58996674  0.77398294  1  0.47984  0  0.105489  0.327765  0  4.050424  0
C  C49  1  0.51368875  0.41808864  0.22359606  1  0.491562  0  0.105177  0.328631  0  4.050526  0
C  C50  1  0.95222559  0.39196377  0.50646069  1  0.943436  0  0.1153  0.272789  0  3.913117  0
C  C51  1  0.07306037  0.62904924  0.44997555  1  0.906477  0  0.123571  0.294479  0  3.908084  0
C  C52  1  0.59750048  0.37300798  0.85949180  1  0.899017  0  0.08777  0.2744  0  4.003247  0
C  C53  1  0.53194104  0.42820488  0.14462503  1  -0.040384  0  -0.101718  -0.285304  0  3.950836  0
C  C54  1  0.58354042  0.66372833  0.12844858  1  0.952858  0  0.085827  0.268285  0  4.011176  0
C  C55  1  0.32782661  0.06977942  0.40949803  1  0.985717  0  0.097222  0.279942  0  3.996862  0
C  C56  1  0.64667816  0.93100217  0.57934459  1  0.973983  0  0.096956  0.278832  0  3.981694  0
C  C57  1  0.35830314  0.24957548  0.40072019  1  0.955332  0  0.113185  0.249391  0  3.868497  0
C  C58  1  0.66481466  0.75959107  0.56754054  1  0.946078  0  0.11318  0.252871  0  3.888658  0
C  C59  1  0.57168159  0.51548224  0.88205090  1  0.043608  0  0.012684  0.14916  0  4.1095  0
C  C60  1  0.55477259  0.50755309  0.11173927  1  0.103533  0  0.012693  0.147907  0  4.113565  0
C  C61  1  0.57498588  0.51276218  0.96182616  1  0.194031  0  -0.036764  -0.102896  0  4.111062  0
C  C62  1  0.56880144  0.51331929  0.03140550  1  -0.499793  0  -0.034953  -0.098263  0  4.110851  0
C  C63  1  0.40058189  0.13276402  0.45719935  1  0.057792  0  0.001151  -0.093007  0  3.885303  0
N  N64  1  0.46966792  0.27623505  0.50568479  1  -1.216799  0  -0.303842  -0.32494  0  3.370037  0
N  N65  1  0.51144289  0.71359010  0.50022047  1  -1.221736  0  -0.310766  -0.338313  0  3.390814  0
O  O66  1  0.50870848  0.42061111  0.38950151  1  -1.146971  0  -0.307834  -0.534855  0  2.354954  0
O  O67  1  0.16637078  0.64554729  0.44330356  1  -1.094163  0  -0.240473  -0.359495  0  2.237048  0
O  O68  1  0.60583153  0.31373838  0.81823209  1  -1.088821  0  -0.295127  -0.391498  0  2.073299  0
O  O69  1  0.58748769  0.72778043  0.16664745  1  -1.075956  0  -0.284732  -0.372724  0  2.075432  0
O  O70  1  0.52928137  0.65828234  0.74500645  1  -1.102929  0  -0.328239  -0.408733  0  2.278607  0
O  O71  1  0.48958276  0.34069047  0.25420797  1  -1.089434  0  -0.325341  -0.40773  0  2.324048  0
O  O72  1  0.34562666  0.00750406  0.38066778  1  -1.069167  0  -0.264966  -0.352195  0  2.110582  0
O  O73  1  0.62736525  0.99079195  0.61250707  1  -1.072272  0  -0.266551  -0.359761  0  2.115257  0
O  O74  1  0.32700339  0.20583473  0.34485122  1  -1.053436  0  -0.236098  -0.322318  0  2.136673  0
O  O75  1  0.71013167  0.80127390  0.61974838  1  -1.053055  0  -0.241079  -0.32459  0  2.119247  0
O  O76  1  0.57770259  0.30849826  0.59955185  1  -1.112535  0  -0.297274  -0.409566  0  2.312672  0
O  O77  1  0.55647920  0.58322098  0.60535564  1  -1.154476  0  -0.309713  -0.542715  0  2.358032  0
O  O78  1  0.36691276  0.65968029  0.43957975  1  -1.130633  0  -0.307427  -0.422944  0  2.350972  0
O  O79  1  0.48478260  0.54843084  0.39140796  1  -1.163939  0  -0.315826  -0.546815  0  2.373173  0
O  O80  1  0.48014193  0.44170176  0.61658483  1  -1.155357  0  -0.315745  -0.544543  0  2.342547  0
O  O81  1  0.33441899  0.40204286  0.49815599  1  -1.14431  0  -0.305331  -0.545145  0  2.265688  0
O  O82  1  0.67144305  0.59544244  0.46253097  1  -1.151685  0  -0.313125  -0.551991  0  2.250464  0
O  O83  1  0.36726562  0.53720229  0.54269587  1  -1.135531  0  -0.301928  -0.525574  0  2.284359  0
O  O84  1  0.64559254  0.46153615  0.50255811  1  -1.1332  0  -0.298155  -0.517487  0  2.286465  0
O  O85  1  0.86047363  0.37243276  0.50186021  1  -1.035676  0  -0.232424  -0.304355  0  2.125965  0
