# generated using pymatgen
data_NiH23C19S(NO)6
_symmetry_space_group_name_H-M   'P 1'
_cell_length_a   8.59213182
_cell_length_b   11.61089710
_cell_length_c   12.87699978
_cell_angle_alpha   85.79910096
_cell_angle_beta   79.00002260
_cell_angle_gamma   73.73723856
_symmetry_Int_Tables_number   1
_chemical_formula_structural   NiH23C19S(NO)6
_chemical_formula_sum   'Ni2 H46 C38 S2 N12 O12'
_cell_volume   1210.31248259
_cell_formula_units_Z   2
loop_
 _symmetry_equiv_pos_site_id
 _symmetry_equiv_pos_as_xyz
  1  'x, y, z'
loop_
 _atom_site_type_symbol
 _atom_site_label
 _atom_site_symmetry_multiplicity
 _atom_site_fract_x
 _atom_site_fract_y
 _atom_site_fract_z
 _atom_site_occupancy
 _atom_site_hle17_ddec_charge
 _atom_site_hle17_ddec_spin_density
 _atom_site_hle17_ddec_sum_bond_order
 _atom_site_hle17_magmom
 _atom_site_hse06_10hf_ddec_charge
 _atom_site_hse06_10hf_ddec_spin_density
 _atom_site_hse06_10hf_ddec_sum_bond_order
 _atom_site_hse06_10hf_magmom
 _atom_site_hse06_ddec_charge
 _atom_site_hse06_ddec_spin_density
 _atom_site_hse06_ddec_sum_bond_order
 _atom_site_hse06_magmom
 _atom_site_pbe_cm5_charge
 _atom_site_pbe_ddec_charge
 _atom_site_pbe_ddec_spin_density
 _atom_site_pbe_ddec_sum_bond_order
 _atom_site_pbe_magmom
Ni  Ni0  1  0.04827945  0.26304360  0.69863420  1  0.844436  -1.840854  2.042495  -1.532  0.839975  -1.867397  2.42865  -1.642  0.92217  -1.921971  2.36364  -1.721  0.663165  0.775751  -1.81571  2.479421  -1.57
Ni  Ni1  1  0.95171360  0.73695329  0.30136787  1  0.844427  1.840859  2.042479  1.532  0.83997  1.8674  2.428597  1.642  0.922164  1.92197  2.363601  1.721  0.663146  0.775766  1.815713  2.479347  1.57
H  H2  1  0.85173471  0.27598831  0.55655164  1  0.407753  -0.00032  0.832125  0.0  0.398406  -0.000761  0.877772  -0.001  0.406705  -0.000485  0.869568  0.0  0.319905  0.392254  -0.001046  0.883879  -0.001
H  H3  1  0.14827139  0.72400848  0.44344715  1  0.407791  0.00032  0.832126  0.0  0.398445  0.00076  0.877764  0.001  0.406743  0.000485  0.869561  0.0  0.319952  0.392293  0.001046  0.883874  0.001
H  H4  1  0.72641427  0.26465074  0.66348294  1  0.427496  -0.000618  0.881317  -0.001  0.395852  -0.000829  0.947317  -0.001  0.407985  -0.000579  0.929944  -0.001  0.285017  0.387192  -0.001074  0.959618  -0.002
H  H5  1  0.27358576  0.73534963  0.33651404  1  0.427482  0.000618  0.881347  0.001  0.395837  0.000828  0.947344  0.001  0.407968  0.000579  0.929976  0.001  0.285005  0.387175  0.001074  0.959645  0.002
H  H6  1  0.20837989  0.41405256  0.62119910  1  0.381148  0.000351  0.927487  0.001  0.354518  3.7e-05  1.002916  0.0  0.365876  0.000128  0.987316  0.001  0.289201  0.34647  -7e-05  1.010966  0.0
H  H7  1  0.79161125  0.58594601  0.37879533  1  0.381127  -0.000351  0.927571  -0.001  0.354555  -3.7e-05  1.002912  0.0  0.365913  -0.000127  0.98727  -0.001  0.289196  0.346528  7e-05  1.010921  0.0
H  H8  1  0.37146505  0.96293020  0.21671825  1  0.116124  -3.1e-05  0.985358  0.0  0.12436  -1.4e-05  1.052017  0.0  0.127918  -1.5e-05  1.049808  0.0  0.102638  0.121621  -6e-06  1.053779  0.0
H  H9  1  0.62854618  0.03706576  0.78328459  1  0.116081  3.2e-05  0.985443  0.0  0.124298  1.4e-05  1.052125  0.0  0.127875  1.5e-05  1.049894  0.0  0.102647  0.121559  6e-06  1.053884  0.0
H  H10  1  0.32813956  0.24800188  0.97919387  1  0.117248  -7e-06  0.967045  0.0  0.126368  -1.9e-05  1.032518  0.0  0.12998  -1e-05  1.030065  0.0  0.105557  0.123544  -3.2e-05  1.034586  0.0
H  H11  1  0.67185543  0.75199950  0.02080914  1  0.117246  5e-06  0.967091  0.0  0.126364  1.9e-05  1.03255  0.0  0.12997  1e-05  1.030119  0.0  0.105559  0.123541  3.2e-05  1.034618  0.0
H  H12  1  0.52652131  0.27621082  0.25606258  1  0.10205  -7e-06  0.936182  0.0  0.116912  -6e-06  0.989347  0.0  0.119858  -3e-06  0.988331  0.0  0.105059  0.114663  -9e-06  0.990318  0.0
H  H13  1  0.47348467  0.72378956  0.74393594  1  0.102047  7e-06  0.936246  0.0  0.116913  6e-06  0.989403  0.0  0.119859  3e-06  0.988387  0.0  0.105069  0.114667  9e-06  0.990374  0.0
H  H14  1  0.55522761  0.96358195  0.34203502  1  0.109095  -0.00018  0.935016  0.0  0.119833  -0.000117  1.001762  0.0  0.121593  -9.7e-05  1.000335  0.0  0.119784  0.118314  -0.000138  1.003031  0.0
H  H15  1  0.44477086  0.03642307  0.65797189  1  0.109051  0.000179  0.935046  0.0  0.11971  0.000117  1.001874  0.0  0.12147  9.7e-05  1.000447  0.0  0.119758  0.118192  0.000138  1.003138  0.0
H  H16  1  0.58770524  0.10065398  0.37463595  1  0.078731  5e-05  0.933682  0.0  0.092045  6e-06  0.997818  0.0  0.092875  1e-05  0.997496  0.0  0.112041  0.091353  1e-06  0.998192  0.0
H  H17  1  0.41228914  0.89935920  0.62537551  1  0.078761  -5e-05  0.933681  0.0  0.092004  -6e-06  0.997873  0.0  0.092836  -9e-06  0.997551  0.0  0.112029  0.091313  -1e-06  0.998247  0.0
H  H18  1  0.21464711  0.08558101  0.96374581  1  0.097856  0.000125  0.925042  0.0  0.113226  9.6e-05  0.985421  0.0  0.114441  7.3e-05  0.984711  0.0  0.116699  0.112229  0.000119  0.986068  0.0
H  H19  1  0.78536076  0.91441766  0.03625803  1  0.097903  -0.000126  0.925101  0.0  0.11328  -9.6e-05  0.985474  0.0  0.114465  -7.3e-05  0.984797  0.0  0.116715  0.112283  -0.000119  0.986126  0.0
H  H20  1  0.35471510  0.95076871  0.99610304  1  0.083624  -4e-05  0.951557  0.0  0.098279  5e-06  1.015412  0.0  0.098005  -1e-06  1.017829  0.0  0.11252  0.098331  1.3e-05  1.013941  0.0
H  H21  1  0.64528888  0.04923088  0.00390125  1  0.083587  4e-05  0.951601  0.0  0.098296  -4e-06  1.015406  0.0  0.098024  1e-06  1.017814  0.0  0.112504  0.098349  -1.3e-05  1.013932  0.0
H  H22  1  0.53842741  0.42081644  0.11099502  1  0.094628  -4.2e-05  0.922866  0.0  0.107346  1e-06  0.986862  0.0  0.108736  -5e-06  0.985448  0.0  0.116585  0.106201  1e-05  0.988032  0.0
H  H23  1  0.46157115  0.57918492  0.88900752  1  0.094664  4.1e-05  0.9229  0.0  0.107371  -1e-06  0.986911  0.0  0.108762  5e-06  0.9855  0.0  0.116593  0.106226  -1e-05  0.988082  0.0
H  H24  1  0.48792334  0.39357246  0.98793917  1  0.108981  0.000149  0.938946  0.0  0.121605  0.000103  1.002595  0.0  0.123244  7.2e-05  1.001371  0.0  0.11983  0.120288  0.000134  1.003656  0.0
H  H25  1  0.51208448  0.60642612  0.01205924  1  0.109002  -0.000149  0.939033  0.0  0.1216  -0.000103  1.002705  0.0  0.123243  -7.2e-05  1.001482  0.0  0.119828  0.120285  -0.000134  1.003765  0.0
H  H26  1  0.27335462  0.92540246  0.41380027  1  0.131355  -0.000341  0.970562  0.0  0.138524  -0.000271  1.033806  0.0  0.142467  -0.000202  1.030611  0.0  0.123377  0.13541  -0.000336  1.036461  0.0
H  H27  1  0.72664085  0.07460060  0.58619555  1  0.131353  0.000342  0.970484  0.0  0.138533  0.000271  1.033735  0.0  0.142486  0.000202  1.030525  0.0  0.123356  0.135419  0.000336  1.036391  0.0
H  H28  1  0.03394433  0.02484441  0.58928329  1  0.099256  -0.000116  0.974096  0.0  0.107577  -0.000227  1.03605  0.0  0.109664  -0.000154  1.035761  0.0  0.1138  0.106006  -0.000299  1.036491  -0.001
H  H29  1  0.96605726  0.97514524  0.41071590  1  0.099226  0.000116  0.974271  0.0  0.10757  0.000227  1.036182  0.0  0.109661  0.000155  1.035878  0.0  0.113803  0.10599  0.000299  1.036647  0.001
H  H30  1  0.36909955  0.23543584  0.51158599  1  0.111418  -0.000124  0.929136  -0.001  0.119418  -9.5e-05  0.991845  0.0  0.122505  -7.3e-05  0.987678  0.0  0.142496  0.116789  -0.000112  0.995323  0.0
H  H31  1  0.63089715  0.76456120  0.48842568  1  0.111403  0.000125  0.929215  0.001  0.11941  9.5e-05  0.991926  0.0  0.122493  7.3e-05  0.987761  0.0  0.14251  0.116783  0.000112  0.995401  0.0
H  H32  1  0.92544780  0.14939263  0.09231363  1  0.117349  0.000444  0.941155  0.001  0.128506  0.000417  0.999272  0.0  0.131217  0.000298  0.998132  0.0  0.124565  0.126401  0.000539  1.000373  0.001
H  H33  1  0.07455549  0.85060869  0.90768672  1  0.117362  -0.000444  0.941147  -0.001  0.128529  -0.000417  0.999256  0.0  0.131238  -0.000298  0.998123  0.0  0.124585  0.126437  -0.000539  1.000345  -0.001
H  H34  1  0.76042458  0.00659204  0.22856303  1  0.099521  0.000159  0.996887  0.001  0.108452  0.000243  1.060007  0.001  0.109808  0.000166  1.060265  0.0  0.115359  0.107346  0.00032  1.060151  0.001
H  H35  1  0.23956703  0.99341199  0.77143711  1  0.099503  -0.000159  0.997005  -0.001  0.10853  -0.000243  1.060007  -0.001  0.109887  -0.000166  1.060263  0.0  0.115335  0.107419  -0.00032  1.060161  -0.001
H  H36  1  0.25713791  0.81213234  0.14215075  1  0.113127  0.000134  0.928815  0.001  0.120567  9.2e-05  0.991449  0.0  0.123192  6.4e-05  0.988177  0.0  0.141432  0.118373  0.000119  0.994182  0.0
H  H37  1  0.74285990  0.18786455  0.85785224  1  0.11313  -0.000132  0.928824  -0.001  0.120573  -9.2e-05  0.991459  0.0  0.123197  -6.4e-05  0.988189  0.0  0.14145  0.118376  -0.000119  0.994189  0.0
H  H38  1  0.20126196  0.49454043  0.95125077  1  0.132407  0.000346  0.97434  0.001  0.139762  0.000274  1.036571  0.0  0.143126  0.000202  1.034459  0.0  0.121432  0.137162  0.000342  1.038361  0.001
H  H39  1  0.79874518  0.50545990  0.04874449  1  0.132473  -0.000347  0.974255  -0.001  0.139768  -0.000274  1.03656  0.0  0.14313  -0.000202  1.034449  0.0  0.121461  0.137172  -0.000342  1.038338  -0.001
H  H40  1  0.93357854  0.66497828  0.06583906  1  0.10359  0.000167  0.966588  0.001  0.1106  0.000252  1.032652  0.001  0.113114  0.000176  1.030979  0.0  0.114965  0.108671  0.000326  1.034121  0.001
H  H41  1  0.06642670  0.33502375  0.93415010  1  0.103605  -0.000168  0.966567  -0.001  0.11059  -0.000252  1.032673  -0.001  0.113101  -0.000176  1.031004  0.0  0.114961  0.108661  -0.000326  1.034134  -0.001
H  H42  1  0.29698189  0.53474234  0.25539309  1  0.107307  0.00014  0.929126  0.001  0.116399  7.6e-05  0.991738  0.0  0.119112  5.4e-05  0.987822  0.0  0.139664  0.114137  9.9e-05  0.99492  0.001
H  H43  1  0.70301616  0.46526339  0.74460217  1  0.107196  -0.000139  0.929261  -0.001  0.116315  -7.6e-05  0.991832  0.0  0.119024  -5.4e-05  0.987922  0.0  0.13965  0.114055  -9.9e-05  0.995016  -0.001
H  H44  1  0.06818215  0.37067246  0.46086535  1  0.036028  -0.00086  0.932127  -0.002  0.044611  -0.000552  1.002568  -0.001  0.045318  -0.000276  1.000945  -0.001  0.08834  0.044398  -0.000889  1.003654  -0.001
H  H45  1  0.93181257  0.62932611  0.53913015  1  0.036068  0.000861  0.932138  0.002  0.044626  0.000552  1.002597  0.001  0.045329  0.000277  1.000981  0.001  0.088326  0.044415  0.000889  1.003685  0.001
H  H46  1  0.18632542  0.47465765  0.45982458  1  0.054167  -0.001223  0.916982  -0.002  0.070837  -0.000877  0.975348  -0.001  0.070884  -0.000619  0.974595  -0.001  0.100859  0.070807  -0.001133  0.976021  -0.001
H  H47  1  0.81366722  0.52533997  0.54016740  1  0.054164  0.001224  0.916983  0.002  0.070832  0.000876  0.975357  0.001  0.070877  0.000619  0.974604  0.001  0.100869  0.070801  0.001133  0.976033  0.001
C  C48  1  0.45045538  0.11496195  0.24761551  1  0.078089  -3e-06  3.783727  0.0  0.100058  3.2e-05  4.027621  0.0  0.099293  2.8e-05  4.052261  0.0  -0.015637  0.100544  2.5e-05  4.010959  0.0
C  C49  1  0.54955195  0.88503491  0.75238699  1  0.078183  3e-06  3.783609  0.0  0.100146  -3e-05  4.027505  0.0  0.099383  -2.7e-05  4.052147  0.0  -0.015663  0.100634  -2.5e-05  4.010844  0.0
C  C50  1  0.38245387  0.05192819  0.18850293  1  -0.155484  0.000209  3.673588  0.0  -0.18921  0.000121  3.919551  0.0  -0.192123  7e-05  3.939395  0.0  -0.092129  -0.187178  0.00021  3.906349  0.0
C  C51  1  0.61754828  0.94807320  0.81150223  1  -0.155331  -0.000212  3.673582  0.0  -0.189037  -0.000123  3.919585  0.0  -0.191967  -7e-05  3.939416  0.0  -0.092069  -0.187007  -0.00021  3.906373  0.0
C  C52  1  0.33461606  0.10029021  0.09316763  1  0.080013  -0.000157  3.775482  0.0  0.104764  -6.5e-05  4.013837  0.0  0.104553  -5.7e-05  4.037325  0.0  -0.013274  0.104897  -6.2e-05  3.997961  0.0
C  C53  1  0.66538683  0.89970575  0.90683398  1  0.079895  0.000152  3.775603  0.0  0.104629  6.6e-05  4.013998  0.0  0.104418  5.9e-05  4.037479  0.0  -0.013335  0.104785  6.2e-05  3.998094  0.0
C  C54  1  0.35888200  0.21093782  0.05561840  1  -0.168633  2.9e-05  3.687794  0.0  -0.198213  -3.2e-05  3.92901  0.0  -0.201278  -1.3e-05  3.94844  0.0  -0.091511  -0.196102  -6.1e-05  3.916126  0.0
C  C55  1  0.64112888  0.78905900  0.94438286  1  -0.168663  -1.8e-05  3.687874  0.0  -0.198216  3.3e-05  3.929115  0.0  -0.201285  1.2e-05  3.948538  0.0  -0.091545  -0.196111  6.1e-05  3.916229  0.0
C  C56  1  0.42793240  0.27445014  0.11421843  1  0.086975  -0.0002  3.777452  0.0  0.108641  -7.7e-05  4.018768  0.0  0.108182  -7.3e-05  4.04366  0.0  -0.012794  0.108928  -6.5e-05  4.001906  0.0
C  C57  1  0.57207186  0.72554844  0.88577969  1  0.087062  0.000195  3.77747  0.0  0.108711  7.5e-05  4.018796  0.0  0.108256  7.2e-05  4.043687  0.0  -0.012778  0.108996  6.5e-05  4.001944  0.0
C  C58  1  0.47281707  0.22647239  0.21036382  1  -0.173879  0.000217  3.732378  0.0  -0.202918  0.000109  3.974344  0.0  -0.206946  7.1e-05  3.996693  0.0  -0.09107  -0.20012  0.000164  3.959222  0.0
C  C59  1  0.52718959  0.77352625  0.78963785  1  -0.173947  -0.000215  3.732565  0.0  -0.202977  -0.000108  3.974534  0.0  -0.207005  -7.1e-05  3.996881  0.0  -0.091082  -0.200176  -0.000163  3.959414  0.0
C  C60  1  0.49894385  0.06058870  0.35067474  1  -0.058424  -0.000816  3.651176  -0.001  -0.123771  -0.000597  3.897591  -0.001  -0.119283  -0.000452  3.9072  -0.001  -0.051521  -0.126599  -0.000745  3.891236  -0.001
C  C61  1  0.50106378  0.93941713  0.64932855  1  -0.05849  0.000817  3.651199  0.001  -0.123789  0.000597  3.897669  0.001  -0.119305  0.000451  3.907276  0.001  -0.051472  -0.126615  0.000745  3.891311  0.001
C  C62  1  0.26158184  0.03091066  0.03000898  1  -0.048495  0.00087  3.656086  0.001  -0.116699  0.000678  3.903073  0.001  -0.112596  0.000499  3.913865  0.001  -0.046473  -0.119347  0.000864  3.895927  0.001
C  C63  1  0.73842161  0.96908713  0.96999552  1  -0.048514  -0.000868  3.656007  -0.001  -0.11679  -0.000679  3.903038  -0.001  -0.112658  -0.0005  3.913821  -0.001  -0.046451  -0.119443  -0.000865  3.895886  -0.001
C  C64  1  0.44813561  0.39542646  0.07404545  1  -0.0631  0.000834  3.652295  0.001  -0.130468  0.000613  3.898981  0.001  -0.126279  0.000459  3.908845  0.001  -0.050659  -0.133143  0.000778  3.892512  0.001
C  C65  1  0.55186984  0.60457213  0.92595328  1  -0.063251  -0.000832  3.652647  -0.001  -0.130598  -0.000614  3.899345  -0.001  -0.126419  -0.000459  3.909228  -0.001  -0.050679  -0.133271  -0.000778  3.892868  -0.001
C  C66  1  0.25181349  0.00495746  0.45972358  1  -0.080098  -0.003064  3.67136  -0.003  -0.118471  -0.001245  3.926993  -0.001  -0.116904  -0.001123  3.943578  -0.001  -0.005139  -0.119534  -0.00142  3.916441  -0.002
C  C67  1  0.74818263  0.99504379  0.54027152  1  -0.079973  0.003065  3.67122  0.003  -0.118415  0.001246  3.926822  0.001  -0.116858  0.001124  3.943406  0.001  -0.005053  -0.119479  0.00142  3.916273  0.002
C  C68  1  0.13635228  0.05525994  0.54544094  1  -0.023214  0.001949  3.784498  0.003  -0.051326  0.000489  4.054951  0.001  -0.048194  0.000743  4.074564  0.001  -0.009058  -0.053673  0.000308  4.041941  0.001
C  C69  1  0.86364635  0.94473775  0.45455644  1  -0.023373  -0.001951  3.784873  -0.003  -0.051497  -0.00049  4.055364  -0.001  -0.048369  -0.000746  4.07498  -0.001  -0.009179  -0.053848  -0.000307  4.042347  -0.001
C  C70  1  0.30630301  0.16685845  0.50836715  1  0.157029  0.006082  3.630628  0.007  0.100913  0.001574  3.905303  0.002  0.11626  0.001725  3.916611  0.002  0.144728  0.090253  0.001603  3.898117  0.002
C  C71  1  0.69368917  0.83313752  0.49163356  1  0.157085  -0.006091  3.630532  -0.007  0.100884  -0.001576  3.905234  -0.002  0.116235  -0.001727  3.916524  -0.002  0.144681  0.090226  -0.001604  3.898051  -0.002
C  C72  1  0.96766735  0.05932632  0.12428844  1  -0.073393  0.003724  3.690274  0.004  -0.116835  0.001622  3.950511  0.002  -0.115061  0.001424  3.968106  0.002  -0.003326  -0.117949  0.001888  3.939009  0.002
C  C73  1  0.03233421  0.94067320  0.87571151  1  -0.073431  -0.003717  3.690136  -0.004  -0.116903  -0.001622  3.950402  -0.002  -0.115131  -0.001424  3.967998  -0.002  -0.003347  -0.118028  -0.001888  3.938898  -0.002
C  C74  1  0.88851269  0.98845360  0.19233496  1  -0.007924  -0.001617  3.765209  -0.002  -0.036495  -6e-06  4.03764  -0.001  -0.033076  -0.000406  4.057581  -0.001  -0.006698  -0.03921  0.000302  4.024547  0.0
C  C75  1  0.11148520  0.01154954  0.80766597  1  -0.007809  0.001611  3.765139  0.002  -0.036464  7e-06  4.037515  0.001  -0.033047  0.000408  4.057458  0.001  -0.006652  -0.039179  -0.000301  4.024428  0.0
C  C76  1  0.14208353  0.88230757  0.14691292  1  0.159137  -0.006942  3.619431  -0.008  0.103249  -0.00186  3.892614  -0.002  0.118895  -0.00207  3.904379  -0.003  0.142851  0.092468  -0.001782  3.884929  -0.002
C  C77  1  0.85790856  0.11769203  0.85309062  1  0.159142  0.006933  3.619461  0.008  0.103213  0.00186  3.892658  0.002  0.118858  0.00207  3.904425  0.003  0.142788  0.092435  0.001783  3.884965  0.002
C  C78  1  0.17821007  0.52961123  0.03032565  1  -0.085121  0.003582  3.675193  0.004  -0.12184  0.001456  3.926002  0.002  -0.121047  0.001301  3.945265  0.002  -0.005879  -0.12227  0.001664  3.913343  0.002
C  C79  1  0.82179469  0.47038908  0.96966837  1  -0.08515  -0.003584  3.675034  -0.004  -0.121827  -0.001456  3.925891  -0.002  -0.12103  -0.0013  3.94515  -0.002  -0.005883  -0.122263  -0.001664  3.913229  -0.002
C  C80  1  0.04936692  0.61312455  0.08714514  1  -0.010629  -0.001745  3.757637  -0.002  -0.040337  -0.000188  4.028285  -0.001  -0.037413  -0.000569  4.049024  -0.001  -0.006572  -0.042579  0.000118  4.014475  0.0
C  C81  1  0.95063651  0.38687932  0.91284722  1  -0.010563  0.001751  3.757547  0.002  -0.040232  0.000188  4.028159  0.001  -0.037317  0.000567  4.048895  0.001  -0.006515  -0.04247  -0.000118  4.014345  0.0
C  C82  1  0.23164711  0.54731937  0.18951210  1  0.168688  -0.006389  3.617599  -0.007  0.110536  -0.001596  3.888462  -0.002  0.126134  -0.001893  3.900558  -0.002  0.143518  0.09979  -0.001427  3.880551  -0.002
C  C83  1  0.76834869  0.45268281  0.81048453  1  0.168915  0.006387  3.617589  0.007  0.110764  0.001595  3.888474  0.002  0.126363  0.001892  3.90056  0.002  0.143632  0.100011  0.001427  3.88057  0.002
C  C84  1  0.07689700  0.44822485  0.50199295  1  0.115534  -0.0005  3.641905  0.001  0.058859  -0.001621  3.9225  -0.001  0.067264  -0.001234  3.928886  -0.001  -0.082682  0.052676  -0.002028  3.917763  -0.001
C  C85  1  0.92309739  0.55177462  0.49800252  1  0.115514  0.000496  3.641785  -0.001  0.058855  0.001619  3.922396  0.001  0.06726  0.001232  3.928781  0.001  -0.082718  0.052673  0.002027  3.917669  0.001
S  S86  1  0.40738820  0.30435179  0.73587944  1  1.553963  -0.001213  5.83329  0.0  1.448308  -0.002928  6.377815  -0.002  1.505207  -0.0023  6.341753  -0.002  0.542492  1.407669  -0.003516  6.400922  -0.002
S  S87  1  0.59260713  0.69564872  0.26412514  1  1.554092  0.001214  5.833132  0.0  1.448447  0.002929  6.377678  0.002  1.505349  0.002311  6.341601  0.002  0.542472  1.407808  0.003517  6.400795  0.002
N  N88  1  0.17184584  0.15570640  0.57492530  1  -0.359487  -0.046102  3.369416  -0.068  -0.323286  -0.030342  3.679125  -0.045  -0.35083  -0.025173  3.698223  -0.038  -0.363791  -0.303696  -0.034286  3.666211  -0.05
N  N89  1  0.82815298  0.84428783  0.42508010  1  -0.359368  0.04611  3.369432  0.068  -0.323187  0.030345  3.679145  0.045  -0.350714  0.025176  3.698238  0.038  -0.363647  -0.303594  0.034288  3.666222  0.05
N  N90  1  0.35819256  0.07684314  0.43773272  1  -0.050151  -0.000737  3.579534  -0.001  0.042684  -0.000559  3.796377  -0.001  0.028183  -0.000417  3.822624  -0.001  -0.242571  0.052164  -0.000675  3.778815  -0.001
N  N91  1  0.64180476  0.92315815  0.56226532  1  -0.050245  0.00074  3.579602  0.001  0.042767  0.00056  3.796238  0.001  0.028269  0.000419  3.822485  0.001  -0.242639  0.052245  0.000675  3.778679  0.001
N  N92  1  0.99830102  0.87882037  0.20638197  1  -0.334462  0.056801  3.295794  0.085  -0.30093  0.038445  3.603772  0.058  -0.329569  0.031171  3.623003  0.049  -0.349947  -0.280324  0.044151  3.590711  0.065
N  N93  1  0.00169037  0.12118097  0.79361764  1  -0.334554  -0.056802  3.29583  -0.085  -0.300986  -0.038448  3.603825  -0.058  -0.329627  -0.031174  3.623054  -0.049  -0.349926  -0.280376  -0.044155  3.59076  -0.065
N  N94  1  0.12789375  0.99031569  0.09556973  1  -0.063689  0.000844  3.601776  0.001  0.030783  0.000646  3.819159  0.001  0.016064  0.00046  3.844864  0.001  -0.244422  0.040452  0.000817  3.80186  0.001
N  N95  1  0.87211053  0.00968296  0.90443225  1  -0.063661  -0.000844  3.601726  -0.001  0.030865  -0.000646  3.819059  -0.001  0.016146  -0.00046  3.844755  -0.001  -0.244412  0.040533  -0.000817  3.801763  -0.001
N  N96  1  0.08441817  0.62306362  0.18579036  1  -0.333046  0.054435  3.342772  0.08  -0.297998  0.034753  3.651891  0.052  -0.326756  0.028439  3.672421  0.043  -0.360167  -0.277423  0.039513  3.637812  0.057
N  N97  1  0.91558223  0.37694206  0.81420226  1  -0.333121  -0.054437  3.342832  -0.08  -0.298132  -0.034752  3.652025  -0.052  -0.32687  -0.028439  3.672531  -0.043  -0.360259  -0.277554  -0.039514  3.637951  -0.057
N  N98  1  0.29263773  0.48958627  0.09647377  1  -0.058579  0.001104  3.582522  0.002  0.036463  0.000811  3.797026  0.001  0.021558  0.000575  3.823261  0.001  -0.243861  0.046246  0.001026  3.779467  0.002
N  N99  1  0.70736638  0.51041588  0.90352252  1  -0.058657  -0.001104  3.582473  -0.002  0.036399  -0.00081  3.796965  -0.001  0.021494  -0.000575  3.823202  -0.001  -0.243922  0.046184  -0.001027  3.779406  -0.002
O  O100  1  0.28119312  0.23332385  0.75453726  1  -0.730897  -0.042154  1.953456  -0.066  -0.706496  -0.025543  2.244416  -0.04  -0.737945  -0.018607  2.227901  -0.029  -0.371188  -0.680512  -0.033148  2.254083  -0.051
O  O101  1  0.71880524  0.76667485  0.24546707  1  -0.730913  0.042154  1.95347  0.066  -0.706514  0.025545  2.244423  0.04  -0.737967  0.018606  2.227917  0.029  -0.371197  -0.68053  0.033148  2.25409  0.051
O  O102  1  0.82832415  0.29307770  0.63146926  1  -0.794677  -0.034717  1.929747  -0.053  -0.767256  -0.028222  2.134085  -0.043  -0.794978  -0.022045  2.105905  -0.034  -0.561728  -0.745845  -0.033918  2.153936  -0.051
O  O103  1  0.17167827  0.70692269  0.36852973  1  -0.794737  0.034713  1.929734  0.053  -0.767315  0.02822  2.134081  0.043  -0.795036  0.022043  2.105906  0.034  -0.561777  -0.745908  0.033916  2.153934  0.051
O  O104  1  0.57499674  0.21543660  0.71047122  1  -0.766977  -0.007287  1.960139  -0.011  -0.711163  -0.00396  2.204723  -0.006  -0.734756  -0.002415  2.186315  -0.004  -0.375519  -0.693046  -0.006038  2.216439  -0.01
O  O105  1  0.42499823  0.78456475  0.28952946  1  -0.767034  0.007281  1.960178  0.011  -0.711222  0.003961  2.204755  0.006  -0.734807  0.002422  2.186337  0.004  -0.375554  -0.693106  0.006038  2.216478  0.01
O  O106  1  0.39704151  0.37074833  0.83153072  1  -0.738399  -0.003699  1.893875  -0.006  -0.701354  -0.001782  2.148437  -0.003  -0.72261  -0.001022  2.13052  -0.002  -0.382001  -0.685085  -0.002866  2.159906  -0.005
O  O107  1  0.60295737  0.62925214  0.16847184  1  -0.738403  0.003702  1.89384  0.006  -0.701344  0.00178  2.148366  0.003  -0.722603  0.001012  2.130453  0.002  -0.381975  -0.685076  0.002866  2.159835  0.005
O  O108  1  0.38288435  0.38731873  0.64209256  1  -0.734223  -0.000643  1.900988  -0.001  -0.686221  0.000184  2.125869  0.0  -0.706282  0.000378  2.105477  0.0  -0.388642  -0.671217  -0.000388  2.138704  -0.001
O  O109  1  0.61709965  0.61268366  0.35791571  1  -0.734233  0.000645  1.900882  0.001  -0.686266  -0.000185  2.125759  0.0  -0.706325  -0.000383  2.105353  0.0  -0.388573  -0.671272  0.000386  2.138586  0.001
O  O110  1  0.09194440  0.41789094  0.60984876  1  -0.561145  -0.039406  2.205247  -0.061  -0.517909  -0.028647  2.462606  -0.045  -0.547425  -0.022221  2.451239  -0.036  -0.399632  -0.49492  -0.034633  2.467398  -0.053
O  O111  1  0.90805129  0.58210491  0.39014528  1  -0.561115  0.039414  2.205196  0.061  -0.517931  0.02865  2.462569  0.045  -0.547447  0.022224  2.451169  0.036  -0.399562  -0.494957  0.034637  2.467326  0.053
