# generated using pymatgen
data_ZnH12C7N8
_symmetry_space_group_name_H-M   'P 1'
_cell_length_a   9.77056957
_cell_length_b   9.77028205
_cell_length_c   20.55439096
_cell_angle_alpha   89.90581047
_cell_angle_beta   90.09591858
_cell_angle_gamma   119.60435260
_symmetry_Int_Tables_number   1
_chemical_formula_structural   ZnH12C7N8
_chemical_formula_sum   'Zn6 H72 C42 N48'
_cell_volume   1706.00030762
_cell_formula_units_Z   6
loop_
 _symmetry_equiv_pos_site_id
 _symmetry_equiv_pos_as_xyz
  1  'x, y, z'
loop_
 _atom_site_type_symbol
 _atom_site_label
 _atom_site_symmetry_multiplicity
 _atom_site_fract_x
 _atom_site_fract_y
 _atom_site_fract_z
 _atom_site_occupancy
 _atom_site_pbe_bader_charge
 _atom_site_pbe_bader_spin_density
 _atom_site_pbe_cm5_charge
 _atom_site_pbe_ddec_charge
 _atom_site_pbe_ddec_spin_density
 _atom_site_pbe_ddec_sum_bond_order
 _atom_site_pbe_magmom
Zn  Zn0  1  0.00975399  0.51990804  0.41347467  1  1.192258  0  0.741632  0.675713  0  2.529416  0
Zn  Zn1  1  0.47355155  0.48550789  0.74618465  1  1.190071  0  0.741093  0.675847  0  2.530469  0
Zn  Zn2  1  0.51407936  0.98850999  0.07876517  1  1.189175  0  0.742389  0.67441  0  2.538949  0
Zn  Zn3  1  0.51982717  0.00978922  0.58647017  1  1.192139  0  0.741912  0.675612  0  2.530543  0
Zn  Zn4  1  0.48543528  0.47353582  0.25379933  1  1.189902  0  0.741365  0.675875  0  2.531228  0
Zn  Zn5  1  0.98849351  0.51408178  0.92122179  1  1.188937  0  0.742409  0.674168  0  2.53971  0
H  H6  1  0.01851364  0.68501342  0.54232409  1  0.488636  0  0.288772  0.280725  0  1.031067  0
H  H7  1  0.30810205  0.32648020  0.87319570  1  0.488067  0  0.290304  0.284671  0  1.023678  0
H  H8  1  0.66577462  0.97941957  0.21008946  1  0.493036  0  0.288434  0.280521  0  1.034427  0
H  H9  1  0.68478143  0.01861574  0.45750176  1  0.488698  0  0.288951  0.280854  0  1.031412  0
H  H10  1  0.32644345  0.30810751  0.12681075  1  0.4889  0  0.290282  0.284737  0  1.023624  0
H  H11  1  0.97944384  0.66572938  0.78990440  1  0.49274  0  0.288406  0.280482  0  1.034746  0
H  H12  1  0.15706144  0.85818345  0.57683358  1  0.474847  0  0.298213  0.300195  0  0.978885  0
H  H13  1  0.13792925  0.29667967  0.90974179  1  0.476225  0  0.303323  0.308596  0  0.963009  0
H  H14  1  0.69307870  0.83676195  0.24699279  1  0.458342  0  0.29517  0.29362  0  0.990194  0
H  H15  1  0.85788309  0.15725407  0.42296965  1  0.465319  0  0.298119  0.300183  0  0.979382  0
H  H16  1  0.29679384  0.13801314  0.09022383  1  0.476468  0  0.303266  0.30852  0  0.963143  0
H  H17  1  0.83681078  0.69300614  0.75295452  1  0.458366  0  0.295077  0.293521  0  0.990431  0
H  H18  1  0.98958176  0.06969803  0.24695211  1  0.447992  0  0.31621  0.320853  0  0.924058  0
H  H19  1  0.89378237  0.87944617  0.56666549  1  0.439851  0  0.3104  0.311214  0  0.942451  0
H  H20  1  0.14607680  0.01133648  0.88552159  1  0.4507  0  0.304975  0.30627  0  0.956552  0
H  H21  1  0.06980582  0.98953510  0.75308279  1  0.448237  0  0.316255  0.320963  0  0.923493  0
H  H22  1  0.88079301  0.89533378  0.43265100  1  0.437249  0  0.310738  0.311934  0  0.941711  0
H  H23  1  0.01142797  0.14598590  0.11439246  1  0.450802  0  0.304947  0.306241  0  0.956508  0
H  H24  1  0.17852693  0.15973300  0.21812129  1  0.475584  0  0.29611  0.293002  0  1.013923  0
H  H25  1  0.81838288  0.99776058  0.54393195  1  0.475175  0  0.291775  0.287525  0  1.025505  0
H  H26  1  0.00922572  0.82071607  0.87358723  1  0.455905  0  0.2902  0.282612  0  1.026367  0
H  H27  1  0.15986400  0.17850133  0.78189136  1  0.477301  0  0.295967  0.292575  0  1.013873  0
H  H28  1  0.99814613  0.81903332  0.45576966  1  0.473782  0  0.291714  0.287031  0  1.025939  0
H  H29  1  0.82077961  0.00930808  0.12640410  1  0.456382  0  0.290154  0.282547  0  1.026547  0
H  H30  1  0.46354978  0.70416605  0.34618010  1  0.078022  0  0.110079  0.125932  0  1.012695  0
H  H31  1  0.28995668  0.76555346  0.68146135  1  0.085783  0  0.108798  0.124133  0  1.017323  0
H  H32  1  0.24456678  0.53423170  0.01344724  1  0.093357  0  0.110794  0.127152  0  1.008494  0
H  H33  1  0.70431626  0.46329063  0.65387952  1  0.077067  0  0.109958  0.125767  0  1.012298  0
H  H34  1  0.76446421  0.28955068  0.31884466  1  0.08407  0  0.108613  0.12396  0  1.017406  0
H  H35  1  0.53455369  0.24513488  0.98665650  1  0.093057  0  0.110809  0.127485  0  1.008121  0
H  H36  1  0.47797391  0.58554175  0.40530207  1  0.106399  0  0.11716  0.148295  0  0.954174  0
H  H37  1  0.41319338  0.89144768  0.74098962  1  0.088619  0  0.11912  0.151295  0  0.942554  0
H  H38  1  0.11123963  0.52314755  0.07125604  1  0.103612  0  0.116872  0.146939  0  0.96033  0
H  H39  1  0.58575764  0.47812164  0.59484181  1  0.107994  0  0.116949  0.14811  0  0.954777  0
H  H40  1  0.89108191  0.41232898  0.25938336  1  0.094878  0  0.119477  0.151669  0  0.943603  0
H  H41  1  0.52300826  0.11147733  0.92889623  1  0.107153  0  0.11668  0.146879  0  0.960465  0
H  H42  1  0.13097810  0.91533768  0.29175299  1  0.009183  0  0.080955  0.06791  0  1.003345  0
H  H43  1  0.09037374  0.22109640  0.61901395  1  0.012595  0  0.079151  0.069157  0  1.00609  0
H  H44  1  0.78848239  0.87401502  0.95454428  1  0.061857  0  0.080643  0.073165  0  1.000005  0
H  H45  1  0.91524791  0.13076692  0.70822440  1  0.008351  0  0.080697  0.067717  0  1.003107  0
H  H46  1  0.22131055  0.09057661  0.38092304  1  0.012494  0  0.079071  0.06896  0  1.0067  0
H  H47  1  0.87424549  0.78844668  0.04563515  1  0.055268  0  0.080778  0.073581  0  0.999936  0
H  H48  1  0.31424747  0.07204330  0.26676553  1  0.001458  0  0.079323  0.060844  0  1.050034  0
H  H49  1  0.93432426  0.25066185  0.59605900  1  -0.005736  0  0.079493  0.066464  0  1.042158  0
H  H50  1  0.76411032  0.69043899  0.93230185  1  -0.001888  0  0.077981  0.064864  0  1.039259  0
H  H51  1  0.07203183  0.31401529  0.73321051  1  0.002515  0  0.079232  0.060869  0  1.049897  0
H  H52  1  0.25078581  0.93450116  0.40394462  1  -0.005075  0  0.07947  0.066444  0  1.042193  0
H  H53  1  0.69071301  0.76415306  0.06792957  1  -0.00177  0  0.078179  0.065142  0  1.038979  0
H  H54  1  0.69789567  0.95914365  0.33830628  1  -0.052798  0  -0.005467  -0.013215  0  1.010885  0
H  H55  1  0.04430606  0.75190478  0.66998749  1  0.044753  0  -0.003116  -0.00748  0  1.017617  0
H  H56  1  0.24420348  0.28732804  0.00446418  1  -0.024562  0  -0.007663  -0.011917  0  1.016857  0
H  H57  1  0.95898782  0.69802374  0.66155617  1  -0.054537  0  -0.005331  -0.01283  0  1.010765  0
H  H58  1  0.75181085  0.04445323  0.32987312  1  0.043074  0  -0.002836  -0.006981  0  1.017867  0
H  H59  1  0.28718886  0.24370796  0.99546821  1  0.014172  0  -0.00736  -0.01114  0  1.017025  0
H  H60  1  0.43974672  0.90325125  0.29429182  1  -0.01104  0  0.077215  0.10132  0  1.042619  0
H  H61  1  0.10152337  0.54138855  0.62657574  1  0.000346  0  0.076433  0.099261  0  1.046766  0
H  H62  1  0.47057771  0.56449446  0.95854416  1  0.012688  0  0.076184  0.099146  0  1.042748  0
H  H63  1  0.90326153  0.43961274  0.70577675  1  -0.010064  0  0.077343  0.101577  0  1.042346  0
H  H64  1  0.54156198  0.10172141  0.37343224  1  -0.003422  0  0.07647  0.099355  0  1.046899  0
H  H65  1  0.56466333  0.47055784  0.04177859  1  0.015242  0  0.076434  0.099317  0  1.042229  0
H  H66  1  0.29643507  0.82374623  0.23194570  1  0.031803  0  0.081741  0.116029  0  1.008003  0
H  H67  1  0.18394248  0.48187769  0.56351703  1  0.01513  0  0.079737  0.112993  0  1.012815  0
H  H68  1  0.53213857  0.70694077  0.89582744  1  0.024254  0  0.078001  0.109831  0  1.012848  0
H  H69  1  0.82386523  0.29627168  0.76811402  1  0.031219  0  0.081641  0.11604  0  1.008256  0
H  H70  1  0.48200288  0.18412355  0.43647456  1  0.014947  0  0.07985  0.113135  0  1.012784  0
H  H71  1  0.70725084  0.53223084  0.10444328  1  0.022357  0  0.078396  0.110391  0  1.01303  0
H  H72  1  0.24767348  0.74547705  0.31172970  1  0.00927  0  0.074907  0.095984  0  1.054126  0
H  H73  1  0.25949114  0.50544532  0.64360655  1  0.001803  0  0.07439  0.094728  0  1.059281  0
H  H74  1  0.50109522  0.75624798  0.97525757  1  -0.028232  0  0.074065  0.094283  0  1.056207  0
H  H75  1  0.74544042  0.24754967  0.68835918  1  0.009294  0  0.074925  0.096046  0  1.054001  0
H  H76  1  0.50552249  0.25960954  0.35638722  1  0.001185  0  0.074377  0.094669  0  1.059154  0
H  H77  1  0.75637566  0.50101139  0.02500501  1  -0.022496  0  0.074035  0.094348  0  1.055683  0
C  C78  1  0.23866141  0.77698319  0.50448139  1  1.470467  0  0.318684  0.50872  0  4.122714  0
C  C79  1  0.21861059  0.46084012  0.83791811  1  1.52717  0  0.317788  0.507876  0  4.138099  0
C  C80  1  0.53631921  0.75846492  0.17281219  1  1.491615  0  0.317966  0.51068  0  4.126446  0
C  C81  1  0.77685600  0.23870961  0.49542560  1  1.471905  0  0.318837  0.509168  0  4.121896  0
C  C82  1  0.46081955  0.21860943  0.16208965  1  1.527987  0  0.317682  0.50769  0  4.13818  0
C  C83  1  0.75847460  0.53631892  0.82716159  1  1.486467  0  0.317942  0.510703  0  4.126077  0
C  C84  1  0.35811744  0.70381185  0.43668425  1  0.994656  0  0.21434  0.34971  0  3.996429  0
C  C85  1  0.29053284  0.65307973  0.77018657  1  0.997948  0  0.213363  0.348993  0  3.99807  0
C  C86  1  0.34703895  0.64086310  0.10380957  1  0.994088  0  0.214417  0.351446  0  3.992532  0
C  C87  1  0.70378150  0.35812113  0.56328978  1  0.996342  0  0.214344  0.349573  0  3.996258  0
C  C88  1  0.65288549  0.29035470  0.22988975  1  1.000636  0  0.213677  0.349136  0  3.997827  0
C  C89  1  0.64087799  0.34715383  0.89620428  1  1.003451  0  0.214312  0.351216  0  3.993522  0
C  C90  1  0.39478895  0.61925179  0.38463955  1  0.002374  0  -0.138737  -0.334257  0  3.97343  0
C  C91  1  0.37530475  0.77553355  0.71883589  1  0.012181  0  -0.136478  -0.331345  0  3.972979  0
C  C92  1  0.22789510  0.60495356  0.05105102  1  -0.00064  0  -0.139688  -0.336541  0  3.977668  0
C  C93  1  0.61934407  0.39475076  0.61540085  1  -0.001044  0  -0.138576  -0.33399  0  3.972801  0
C  C94  1  0.77509257  0.37491562  0.28134991  1  0.006879  0  -0.136937  -0.331544  0  3.973814  0
C  C95  1  0.60500025  0.22816300  0.94901663  1  -0.001784  0  -0.13954  -0.336672  0  3.977702  0
C  C96  1  0.26146110  0.47762214  0.35368105  1  0.973941  0  0.211126  0.341828  0  4.011705  0
C  C97  1  0.51437328  0.78057436  0.68629499  1  0.971928  0  0.210708  0.339828  0  4.010227  0
C  C98  1  0.22068083  0.73823827  0.01868642  1  1.015448  0  0.211477  0.343377  0  4.010713  0
C  C99  1  0.47765668  0.26144633  0.64632863  1  0.976954  0  0.211133  0.341869  0  4.011971  0
C  C100  1  0.78043916  0.51432516  0.31370065  1  0.972095  0  0.210544  0.339413  0  4.010682  0
C  C101  1  0.73826953  0.22078901  0.98133015  1  1.012771  0  0.211267  0.342836  0  4.010968  0
C  C102  1  0.13274623  0.27588974  0.29158236  1  1.461099  0  0.315134  0.525101  0  4.118138  0
C  C103  1  0.71713643  0.85496874  0.62441649  1  1.468906  0  0.313128  0.520275  0  4.134596  0
C  C104  1  0.15089496  0.86697640  0.95391855  1  1.499302  0  0.315667  0.522914  0  4.114904  0
C  C105  1  0.27594946  0.13268981  0.70842544  1  1.464297  0  0.315056  0.52555  0  4.117284  0
C  C106  1  0.85525535  0.71754451  0.37533448  1  1.484365  0  0.312896  0.520891  0  4.133666  0
C  C107  1  0.86700115  0.15089369  0.04605177  1  1.502686  0  0.31564  0.523001  0  4.114518  0
C  C108  1  0.25862569  0.97185554  0.30047194  1  0.003768  0  -0.175921  -0.095727  0  3.946771  0
C  C109  1  0.03443100  0.29243302  0.62964404  1  0.028711  0  -0.177255  -0.094827  0  3.947708  0
C  C110  1  0.71810186  0.74725138  0.96481821  1  -0.035706  0  -0.176673  -0.094287  0  3.941237  0
C  C111  1  0.97179521  0.25843090  0.69952818  1  0.003684  0  -0.175266  -0.095015  0  3.946783  0
C  C112  1  0.29260942  0.03457735  0.37034756  1  0.02864  0  -0.177022  -0.094454  0  3.947884  0
C  C113  1  0.74744471  0.71806055  0.03541718  1  -0.002229  0  -0.176982  -0.095548  0  3.942312  0
C  C114  1  0.31391180  0.85488336  0.28380726  1  -0.05363  0  -0.254342  -0.344255  0  3.933744  0
C  C115  1  0.15092270  0.46474648  0.61518566  1  -0.043508  0  -0.256288  -0.345747  0  3.942051  0
C  C116  1  0.54613650  0.69035891  0.94783089  1  -0.045731  0  -0.255025  -0.343181  0  3.945203  0
C  C117  1  0.85490183  0.31376842  0.71625081  1  -0.053983  0  -0.254504  -0.344957  0  3.935033  0
C  C118  1  0.46488572  0.15107421  0.38481239  1  -0.039257  0  -0.256411  -0.346043  0  3.94184  0
C  C119  1  0.69055646  0.54612091  0.05244614  1  -0.053606  0  -0.255861  -0.344064  0  3.945744  0
N  N120  1  0.39297053  0.86221176  0.51627061  1  -0.814368  0  -0.288785  -0.311572  0  3.526183  0
N  N121  1  0.13293078  0.53021398  0.84990954  1  -0.856937  0  -0.289943  -0.314683  0  3.522089  0
N  N122  1  0.46635094  0.60401538  0.18477223  1  -0.844063  0  -0.293039  -0.317355  0  3.538506  0
N  N123  1  0.86209341  0.39303691  0.48366729  1  -0.813728  0  -0.28864  -0.311608  0  3.525654  0
N  N124  1  0.53023201  0.13296792  0.15008399  1  -0.857284  0  -0.289786  -0.314453  0  3.521566  0
N  N125  1  0.60402506  0.46638057  0.81521549  1  -0.843951  0  -0.293008  -0.317364  0  3.538284  0
N  N126  1  0.47057515  0.81631778  0.47239568  1  -0.763075  0  -0.254931  -0.296927  0  3.18917  0
N  N127  1  0.17808021  0.65341229  0.80605792  1  -0.738305  0  -0.252862  -0.290888  0  3.196747  0
N  N128  1  0.34491189  0.52760780  0.14020259  1  -0.761015  0  -0.254158  -0.293768  0  3.185809  0
N  N129  1  0.81625351  0.47061442  0.52757995  1  -0.763836  0  -0.254882  -0.296737  0  3.188973  0
N  N130  1  0.65331962  0.17800509  0.19398207  1  -0.741396  0  -0.252984  -0.291102  0  3.196833  0
N  N131  1  0.52760945  0.34500537  0.85981042  1  -0.762584  0  -0.254014  -0.293619  0  3.186001  0
N  N132  1  0.21142677  0.67667915  0.45433127  1  -1.259285  0  -0.380328  -0.475746  0  3.482169  0
N  N133  1  0.31858360  0.53345602  0.78758994  1  -1.271803  0  -0.382338  -0.482051  0  3.487296  0
N  N134  1  0.46598438  0.78694694  0.12168939  1  -1.254851  0  -0.379748  -0.477094  0  3.476259  0
N  N135  1  0.67663426  0.21143984  0.54561132  1  -1.262236  0  -0.380281  -0.475947  0  3.482117  0
N  N136  1  0.53331389  0.31845346  0.21246577  1  -1.271231  0  -0.382362  -0.481886  0  3.487047  0
N  N137  1  0.78695705  0.46603103  0.87830013  1  -1.263361  0  -0.379843  -0.477029  0  3.476495  0
N  N138  1  0.12117220  0.79069744  0.53563504  1  -1.27024  0  -0.586912  -0.664812  0  3.296101  0
N  N139  1  0.20411901  0.32896838  0.86829337  1  -1.29338  0  -0.585439  -0.663667  0  3.298037  0
N  N140  1  0.66532294  0.87389150  0.20502084  1  -1.264726  0  -0.589338  -0.66471  0  3.306182  0
N  N141  1  0.79048870  0.12125780  0.46419379  1  -1.260785  0  -0.587435  -0.665679  0  3.297368  0
N  N142  1  0.32898154  0.20413811  0.13169046  1  -1.294579  0  -0.585362  -0.663756  0  3.298273  0
N  N143  1  0.87391076  0.66528136  0.79493917  1  -1.259724  0  -0.588968  -0.664366  0  3.306635  0
N  N144  1  0.28296598  0.39598784  0.30456428  1  -1.22146  0  -0.367924  -0.464652  0  3.383274  0
N  N145  1  0.59814024  0.88719667  0.63859655  1  -1.219507  0  -0.371761  -0.467523  0  3.388308  0
N  N146  1  0.11530242  0.71609615  0.97038924  1  -1.233591  0  -0.372511  -0.467938  0  3.398556  0
N  N147  1  0.39602912  0.28293427  0.69545081  1  -1.221255  0  -0.367762  -0.464964  0  3.382865  0
N  N148  1  0.88728183  0.59833419  0.36129683  1  -1.220754  0  -0.371572  -0.467781  0  3.387778  0
N  N149  1  0.71612691  0.11537923  0.02961474  1  -1.232885  0  -0.372484  -0.467836  0  3.398055  0
N  N150  1  0.10967681  0.41062219  0.36943309  1  -0.837291  0  -0.287585  -0.27307  0  3.603391  0
N  N151  1  0.57818038  0.69076445  0.69949212  1  -0.832947  0  -0.285461  -0.265519  0  3.60171  0
N  N152  1  0.31216032  0.89120834  0.03050325  1  -0.875087  0  -0.288305  -0.274043  0  3.618879  0
N  N153  1  0.41063972  0.10966804  0.63056234  1  -0.83766  0  -0.287735  -0.272836  0  3.603786  0
N  N154  1  0.69072607  0.57818729  0.30043524  1  -0.831418  0  -0.285372  -0.26558  0  3.602383  0
N  N155  1  0.89123193  0.31219579  0.96949468  1  -0.875035  0  -0.287995  -0.273578  0  3.618843  0
N  N156  1  0.02549699  0.27907089  0.33080481  1  -0.735076  0  -0.272826  -0.369539  0  3.175477  0
N  N157  1  0.71022780  0.73856326  0.66096647  1  -0.753101  0  -0.276793  -0.381177  0  3.182133  0
N  N158  1  0.26706604  0.97551239  0.99023192  1  -0.77061  0  -0.270705  -0.362229  0  3.174566  0
N  N159  1  0.27910283  0.02545698  0.66918713  1  -0.736924  0  -0.272705  -0.369626  0  3.174963  0
N  N160  1  0.73878180  0.71053694  0.33880454  1  -0.757937  0  -0.276759  -0.381159  0  3.182099  0
N  N161  1  0.97553887  0.26702234  0.00972837  1  -0.770686  0  -0.270855  -0.362438  0  3.174414  0
N  N162  1  0.09302671  0.17119795  0.24155109  1  -1.257655  0  -0.589578  -0.660457  0  3.31183  0
N  N163  1  0.83347098  0.93450173  0.57998773  1  -1.253234  0  -0.588481  -0.652563  0  3.323958  0
N  N164  1  0.07689075  0.90497452  0.90664374  1  -1.235234  0  -0.590404  -0.651943  0  3.309091  0
N  N165  1  0.17130900  0.09297377  0.75847660  1  -1.260617  0  -0.589469  -0.660396  0  3.311366  0
N  N166  1  0.93515652  0.83416971  0.41960804  1  -1.260931  0  -0.588098  -0.652412  0  3.325077  0
N  N167  1  0.90499144  0.07686202  0.09331758  1  -1.238741  0  -0.590303  -0.651899  0  3.309392  0
