# generated using pymatgen
data_CdH16C12(S2N3)2
_symmetry_space_group_name_H-M   'P 1'
_cell_length_a   8.77434437
_cell_length_b   8.77432796
_cell_length_c   12.53964176
_cell_angle_alpha   101.39723400
_cell_angle_beta   101.39663304
_cell_angle_gamma   105.77620325
_symmetry_Int_Tables_number   1
_chemical_formula_structural   CdH16C12(S2N3)2
_chemical_formula_sum   'Cd2 H32 C24 S8 N12'
_cell_volume   877.81206696
_cell_formula_units_Z   2
loop_
 _symmetry_equiv_pos_site_id
 _symmetry_equiv_pos_as_xyz
  1  'x, y, z'
loop_
 _atom_site_type_symbol
 _atom_site_label
 _atom_site_symmetry_multiplicity
 _atom_site_fract_x
 _atom_site_fract_y
 _atom_site_fract_z
 _atom_site_occupancy
 _atom_site_hle17_bader_spin_density
 _atom_site_hle17_ddec_charge
 _atom_site_hle17_ddec_spin_density
 _atom_site_hle17_ddec_sum_bond_order
 _atom_site_hle17_magmom
 _atom_site_hse06_10hf_bader_spin_density
 _atom_site_hse06_10hf_ddec_charge
 _atom_site_hse06_10hf_ddec_spin_density
 _atom_site_hse06_10hf_ddec_sum_bond_order
 _atom_site_hse06_10hf_magmom
 _atom_site_hse06_bader_spin_density
 _atom_site_hse06_ddec_charge
 _atom_site_hse06_ddec_spin_density
 _atom_site_hse06_ddec_sum_bond_order
 _atom_site_hse06_magmom
 _atom_site_pbe_bader_spin_density
 _atom_site_pbe_cm5_charge
 _atom_site_pbe_ddec_charge
 _atom_site_pbe_ddec_spin_density
 _atom_site_pbe_ddec_sum_bond_order
 _atom_site_pbe_magmom
Cd  Cd0  1  0.98308667  0.01691368  0.75000513  1  0  0.876548  0  1.99596  0  0  0.721248  0  2.455893  0  0  0.765858  0  2.421422  0  0  0.597742  0.690134  0  2.478988  0
Cd  Cd1  1  0.01691660  0.98308449  0.24999561  1  0  0.876559  0  1.996012  0  0  0.721254  0  2.455978  0  0  0.765863  0  2.421503  0  0  0.597762  0.690142  0  2.479077  0
H  H2  1  0.48379308  0.68560523  0.00315978  1  0  0.115802  0  0.97174  0  0  0.125581  0  1.035875  0  0  0.12839  0  1.034543  0  0  0.116776  0.123506  0  1.03695  0
H  H3  1  0.31439746  0.51620646  0.49684314  1  0  0.115823  0  0.971751  0  0  0.125566  0  1.035916  0  0  0.128374  0  1.034585  0  0  0.116797  0.123508  0  1.036977  0
H  H4  1  0.51620939  0.31440152  0.99684441  1  0  0.11584  0  0.971895  0  0  0.125578  0  1.036049  0  0  0.128384  0  1.034726  0  0  0.116817  0.123514  0  1.037108  0
H  H5  1  0.68559958  0.48379408  0.50315788  1  0  0.115848  0  0.971683  0  0  0.125581  0  1.035862  0  0  0.128389  0  1.034533  0  0  0.116807  0.123514  0  1.036928  0
H  H6  1  0.35809908  0.89144564  0.89484067  1  0  0.124354  0  0.984722  0  0  0.134043  0  1.044841  0  0  0.136267  0  1.044521  0  0  0.12229  0.132382  0  1.045253  0
H  H7  1  0.10855623  0.64190197  0.60516236  1  0  0.124382  0  0.984719  0  0  0.134077  0  1.044821  0  0  0.136298  0  1.044509  0  0  0.122297  0.132418  0  1.045226  0
H  H8  1  0.64189949  0.10855612  0.10515833  1  0  0.124346  0  0.984905  0  0  0.134047  0  1.044996  0  0  0.13627  0  1.044678  0  0  0.122289  0.132386  0  1.045406  0
H  H9  1  0.89144196  0.35809857  0.39483722  1  0  0.124353  0  0.984683  0  0  0.134044  0  1.044798  0  0  0.136262  0  1.044492  0  0  0.12228  0.132386  0  1.045205  0
H  H10  1  0.81415684  0.60078443  0.87021992  1  0  0.108028  0  0.968593  0  0  0.127662  0  1.032485  0  0  0.128337  0  1.033047  0  0  0.101927  0.12706  0  1.032204  0
H  H11  1  0.39921403  0.18583800  0.62977842  1  0  0.108025  0  0.96852  0  0  0.127678  0  1.032408  0  0  0.128357  0  1.032956  0  0  0.101946  0.127075  0  1.032134  0
H  H12  1  0.18584604  0.39921620  0.12978271  1  0  0.10801  0  0.968592  0  0  0.127672  0  1.032455  0  0  0.128344  0  1.033026  0  0  0.101939  0.127068  0  1.032178  0
H  H13  1  0.60078263  0.81415762  0.37022029  1  0  0.108009  0  0.968536  0  0  0.127668  0  1.032421  0  0  0.128347  0  1.032967  0  0  0.101936  0.127064  0  1.032146  0
H  H14  1  0.73851980  0.59077877  0.99196336  1  0  0.099714  0  0.995251  0  0  0.11449  0  1.069463  0  0  0.116101  0  1.068738  0  0  0.092263  0.113213  0  1.070081  0
H  H15  1  0.40922029  0.26147429  0.50803519  1  0  0.099686  0  0.995243  0  0  0.114509  0  1.069402  0  0  0.116123  0  1.068677  0  0  0.092294  0.113233  0  1.070023  0
H  H16  1  0.26148229  0.40922306  0.00803773  1  0  0.099749  0  0.995201  0  0  0.114518  0  1.069427  0  0  0.116132  0  1.068699  0  0  0.092282  0.113241  0  1.070045  0
H  H17  1  0.59077559  0.73851888  0.49196229  1  0  0.099733  0  0.995198  0  0  0.114503  0  1.069428  0  0  0.116111  0  1.068706  0  0  0.092286  0.113233  0  1.070043  0
H  H18  1  0.62631124  0.44453210  0.85823317  1  0  0.09464  0  0.953288  0  0  0.111562  0  1.024861  0  0  0.112734  0  1.023977  0  0  0.09321  0.110613  0  1.02558  0
H  H19  1  0.55546540  0.37368667  0.64176556  1  0  0.094667  0  0.953222  0  0  0.111538  0  1.02487  0  0  0.112709  0  1.023988  0  0  0.093182  0.110591  0  1.025588  0
H  H20  1  0.37369200  0.55547342  0.14176937  1  0  0.094618  0  0.953264  0  0  0.111558  0  1.024841  0  0  0.112727  0  1.023962  0  0  0.093206  0.11061  0  1.025559  0
H  H21  1  0.44452931  0.62631015  0.35823305  1  0  0.094617  0  0.953305  0  0  0.111555  0  1.024868  0  0  0.112727  0  1.023983  0  0  0.093208  0.110608  0  1.025586  0
H  H22  1  0.36835974  0.96218495  0.71420503  1  0  0.108401  0  0.959655  0  0  0.126528  0  1.026115  0  0  0.127256  0  1.026227  0  0  0.102808  0.125916  0  1.026112  0
H  H23  1  0.03781511  0.63163949  0.78579852  1  0  0.108404  0  0.959649  0  0  0.126514  0  1.026131  0  0  0.127242  0  1.026242  0  0  0.102794  0.1259  0  1.026129  0
H  H24  1  0.63163809  0.03781439  0.28579673  1  0  0.108401  0  0.959653  0  0  0.126485  0  1.026149  0  0  0.127213  0  1.026263  0  0  0.102792  0.125875  0  1.026142  0
H  H25  1  0.96218426  0.36836108  0.21420282  1  0  0.108419  0  0.959657  0  0  0.126535  0  1.026114  0  0  0.127264  0  1.026227  0  0  0.102808  0.125924  0  1.026111  0
H  H26  1  0.58423766  0.06218061  0.73985090  1  0  0.09467  0  0.971808  0  0  0.112425  0  1.041847  0  0  0.113439  0  1.041093  0  0  0.088083  0.111561  0  1.042514  0
H  H27  1  0.93781771  0.41576027  0.76015074  1  0  0.094666  0  0.971796  0  0  0.112435  0  1.041815  0  0  0.113446  0  1.04107  0  0  0.088092  0.111572  0  1.042476  0
H  H28  1  0.41576018  0.93781873  0.26015166  1  0  0.09465  0  0.971768  0  0  0.112422  0  1.041769  0  0  0.113432  0  1.041026  0  0  0.088074  0.11156  0  1.042431  0
H  H29  1  0.06218087  0.58424151  0.23984986  1  0  0.0947  0  0.971787  0  0  0.112443  0  1.041818  0  0  0.113456  0  1.041073  0  0  0.088088  0.111582  0  1.04248  0
H  H30  1  0.48226297  0.87795706  0.62824137  1  0  0.102639  0  0.963311  0  0  0.117732  0  1.03597  0  0  0.118856  0  1.035758  0  0  0.097434  0.116803  0  1.036277  0
H  H31  1  0.12203929  0.51773408  0.87175910  1  0  0.102627  0  0.963305  0  0  0.117728  0  1.035956  0  0  0.118852  0  1.035744  0  0  0.097428  0.116799  0  1.03626  0
H  H32  1  0.51773442  0.12204468  0.37175667  1  0  0.102648  0  0.963329  0  0  0.117723  0  1.036003  0  0  0.118847  0  1.035792  0  0  0.097412  0.116794  0  1.036311  0
H  H33  1  0.87795813  0.48226399  0.12823925  1  0  0.102664  0  0.963262  0  0  0.11775  0  1.035918  0  0  0.118874  0  1.035706  0  0  0.09744  0.116821  0  1.036223  0
C  C34  1  0.62395119  0.75736823  0.78859275  1  0  0.267963  0  3.742053  0  0  0.219573  0  4.034409  0  0  0.239895  0  4.046124  0  0  0.210873  0.206153  0  4.026036  0
C  C35  1  0.24263082  0.37604928  0.71140843  1  0  0.267933  0  3.742147  0  0  0.219599  0  4.034433  0  0  0.239921  0  4.04615  0  0  0.210885  0.206179  0  4.026062  0
C  C36  1  0.37605051  0.24263236  0.21140732  1  0  0.267956  0  3.741939  0  0  0.219541  0  4.034336  0  0  0.239865  0  4.046051  0  0  0.210882  0.206122  0  4.025969  0
C  C37  1  0.75736351  0.62394632  0.28858996  1  0  0.268079  0  3.741809  0  0  0.219641  0  4.034244  0  0  0.239958  0  4.045969  0  0  0.210883  0.206217  0  4.025881  0
C  C38  1  0.50650008  0.72829292  0.93073808  1  0  -0.034892  0  3.665264  0  0  -0.081641  0  3.933446  0  0  -0.079352  0  3.950828  0  0  0.005841  -0.083198  0  3.921958  0
C  C39  1  0.27170419  0.49349905  0.56926296  1  0  -0.034899  0  3.665408  0  0  -0.081622  0  3.933617  0  0  -0.079331  0  3.950996  0  0  0.005814  -0.083197  0  3.922125  0
C  C40  1  0.49349915  0.27171858  0.06925595  1  0  -0.034969  0  3.665003  0  0  -0.081674  0  3.933184  0  0  -0.079385  0  3.950562  0  0  0.005766  -0.083236  0  3.921694  0
C  C41  1  0.72829631  0.50650150  0.43073454  1  0  -0.034907  0  3.665555  0  0  -0.081614  0  3.933744  0  0  -0.079321  0  3.951124  0  0  0.00582  -0.083176  0  3.92226  0
C  C42  1  0.44644125  0.83045139  0.87861061  1  0  -0.036182  0  3.666807  0  0  -0.080529  0  3.930793  0  0  -0.078052  0  3.948954  0  0  0.007625  -0.082147  0  3.918657  0
C  C43  1  0.16954723  0.55355813  0.62138885  1  0  -0.036213  0  3.666854  0  0  -0.080556  0  3.930822  0  0  -0.078081  0  3.948978  0  0  0.007629  -0.082171  0  3.918694  0
C  C44  1  0.55356904  0.16954688  0.12139190  1  0  -0.036169  0  3.666549  0  0  -0.080534  0  3.930536  0  0  -0.078054  0  3.948694  0  0  0.007656  -0.082151  0  3.918405  0
C  C45  1  0.83044825  0.44644116  0.37861100  1  0  -0.036241  0  3.666928  0  0  -0.080576  0  3.930894  0  0  -0.0781  0  3.949047  0  0  0.007605  -0.082193  0  3.918767  0
C  C46  1  0.70376657  0.57223132  0.90033619  1  0  -0.168499  0  3.63475  0  0  -0.272372  0  3.880156  0  0  -0.268969  0  3.887493  0  0  -0.13983  -0.274352  0  3.875286  0
C  C47  1  0.42776683  0.29622926  0.59966412  1  0  -0.168492  0  3.634745  0  0  -0.272387  0  3.88014  0  0  -0.268985  0  3.88748  0  0  -0.139871  -0.274364  0  3.875261  0
C  C48  1  0.29623475  0.42777173  0.09966655  1  0  -0.168514  0  3.634699  0  0  -0.272435  0  3.880137  0  0  -0.269034  0  3.887471  0  0  -0.139857  -0.274415  0  3.875269  0
C  C49  1  0.57222983  0.70376636  0.40033380  1  0  -0.16848  0  3.634734  0  0  -0.272387  0  3.880129  0  0  -0.268979  0  3.887474  0  0  -0.139863  -0.274371  0  3.875253  0
C  C50  1  0.48627193  0.94303147  0.71329758  1  0  -0.174482  0  3.660157  0  0  -0.279508  0  3.910551  0  0  -0.275975  0  3.918727  0  0  -0.139072  -0.281598  0  3.905079  0
C  C51  1  0.05696768  0.51372708  0.78670215  1  0  -0.174452  0  3.660053  0  0  -0.279467  0  3.91046  0  0  -0.275938  0  3.918633  0  0  -0.139048  -0.281556  0  3.904987  0
C  C52  1  0.51372625  0.05696906  0.28670041  1  0  -0.174467  0  3.660091  0  0  -0.279422  0  3.910488  0  0  -0.275891  0  3.918663  0  0  -0.139006  -0.281512  0  3.905021  0
C  C53  1  0.94303128  0.48627224  0.21329658  1  0  -0.174552  0  3.660049  0  0  -0.279541  0  3.910482  0  0  -0.276012  0  3.918655  0  0  -0.139089  -0.28163  0  3.905014  0
C  C54  1  0.12193592  0.88585357  0.98495422  1  0  0.314975  0  3.980376  0  0  0.292392  0  4.284341  0  0  0.314804  0  4.297918  0  0  0.148873  0.277166  0  4.274767  0
C  C55  1  0.11413916  0.87807988  0.51506234  1  0  0.314977  0  3.980739  0  0  0.292382  0  4.284699  0  0  0.314789  0  4.298273  0  0  0.148863  0.277158  0  4.275135  0
C  C56  1  0.87807522  0.11414356  0.01505543  1  0  0.314957  0  3.980518  0  0  0.29236  0  4.284496  0  0  0.314769  0  4.298069  0  0  0.14887  0.277136  0  4.274925  0
C  C57  1  0.88585520  0.12191207  0.48493796  1  0  0.314899  0  3.980497  0  0  0.292302  0  4.284474  0  0  0.314713  0  4.298048  0  0  0.148797  0.277077  0  4.274908  0
S  S58  1  0.73817704  0.73613026  0.69534181  1  0  -0.453617  0  2.13252  0  0  -0.424681  0  2.493013  0  0  -0.442777  0  2.486036  0  0  -0.190177  -0.4117  0  2.497272  0
S  S59  1  0.26386892  0.26182259  0.80465960  1  0  -0.453608  0  2.132512  0  0  -0.4247  0  2.49299  0  0  -0.442797  0  2.486016  0  0  -0.190193  -0.411718  0  2.497249  0
S  S60  1  0.26182466  0.26387033  0.30465906  1  0  -0.453634  0  2.132459  0  0  -0.424709  0  2.492979  0  0  -0.442804  0  2.486002  0  0  -0.1902  -0.411727  0  2.497244  0
S  S61  1  0.73612850  0.73817549  0.19533875  1  0  -0.453694  0  2.132401  0  0  -0.424743  0  2.492907  0  0  -0.442834  0  2.48593  0  0  -0.190211  -0.411757  0  2.497167  0
S  S62  1  0.13491276  0.79893466  0.08843797  1  0  -0.356698  0  2.131567  0  0  -0.314071  0  2.44666  0  0  -0.332146  0  2.441831  0  0  -0.14577  -0.301292  0  2.449593  0
S  S63  1  0.20106242  0.86509652  0.41156712  1  0  -0.356742  0  2.131112  0  0  -0.314129  0  2.446218  0  0  -0.332207  0  2.44139  0  0  -0.145763  -0.301346  0  2.449154  0
S  S64  1  0.86509014  0.20106598  0.91156625  1  0  -0.356705  0  2.131294  0  0  -0.314075  0  2.446389  0  0  -0.332151  0  2.44156  0  0  -0.145755  -0.301295  0  2.449322  0
S  S65  1  0.79893654  0.13489910  0.58842791  1  0  -0.356698  0  2.131298  0  0  -0.314086  0  2.446408  0  0  -0.332163  0  2.441582  0  0  -0.14574  -0.301304  0  2.449342  0
N  N66  1  0.61544360  0.68426843  0.87488471  1  0  -0.044551  0  3.538799  0  0  0.054788  0  3.757784  0  0  0.039475  0  3.783154  0  0  -0.236643  0.064838  0  3.740581  0
N  N67  1  0.31573130  0.38455327  0.62511426  1  0  -0.04464  0  3.538905  0  0  0.054701  0  3.757872  0  0  0.039386  0  3.783245  0  0  -0.236652  0.064752  0  3.740678  0
N  N68  1  0.38456196  0.31574079  0.12511864  1  0  -0.044517  0  3.53879  0  0  0.05483  0  3.75778  0  0  0.039518  0  3.78315  0  0  -0.236659  0.064881  0  3.74058  0
N  N69  1  0.68426223  0.61544353  0.37488340  1  0  -0.044625  0  3.538846  0  0  0.054721  0  3.757878  0  0  0.039405  0  3.783252  0  0  -0.236664  0.064772  0  3.740683  0
N  N70  1  0.51809418  0.84604807  0.79101856  1  0  -0.064149  0  3.594962  0  0  0.035267  0  3.814557  0  0  0.019235  0  3.841216  0  0  -0.242636  0.045803  0  3.796448  0
N  N71  1  0.15395252  0.48190416  0.70898082  1  0  -0.06406  0  3.594868  0  0  0.035335  0  3.814465  0  0  0.01931  0  3.841113  0  0  -0.24262  0.045872  0  3.796357  0
N  N72  1  0.48190517  0.15395248  0.20898038  1  0  -0.064092  0  3.59495  0  0  0.035341  0  3.814527  0  0  0.019307  0  3.841192  0  0  -0.242607  0.045876  0  3.796424  0
N  N73  1  0.84604526  0.51809513  0.29101615  1  0  -0.064093  0  3.594826  0  0  0.035331  0  3.814434  0  0  0.019306  0  3.841084  0  0  -0.242582  0.04587  0  3.796331  0
N  N74  1  0.11556146  0.94245398  0.90635369  1  0  -0.536389  0  2.842791  0  0  -0.47986  0  3.112683  0  0  -0.50044  0  3.119713  0  0  -0.392735  -0.465802  0  3.107774  0
N  N75  1  0.05754729  0.88444495  0.59365260  1  0  -0.536367  0  2.843516  0  0  -0.479826  0  3.113402  0  0  -0.500399  0  3.120431  0  0  -0.392754  -0.46577  0  3.108501  0
N  N76  1  0.88444765  0.05755165  0.09365284  1  0  -0.536347  0  2.843116  0  0  -0.479814  0  3.113021  0  0  -0.500389  0  3.120047  0  0  -0.392749  -0.46576  0  3.108116  0
N  N77  1  0.94245206  0.11554453  0.40633927  1  0  -0.536342  0  2.843024  0  0  -0.479793  0  3.112905  0  0  -0.500371  0  3.119934  0  0  -0.392733  -0.465738  0  3.108002  0
