# generated using pymatgen
data_BaH4(C4O3)2
_symmetry_space_group_name_H-M   'P 1'
_cell_length_a   7.49572857
_cell_length_b   7.44711460
_cell_length_c   8.14285207
_cell_angle_alpha   69.23087355
_cell_angle_beta   67.83349480
_cell_angle_gamma   78.71728258
_symmetry_Int_Tables_number   1
_chemical_formula_structural   BaH4(C4O3)2
_chemical_formula_sum   'Ba2 H8 C16 O12'
_cell_volume   392.59130930
_cell_formula_units_Z   2
loop_
 _symmetry_equiv_pos_site_id
 _symmetry_equiv_pos_as_xyz
  1  'x, y, z'
loop_
 _atom_site_type_symbol
 _atom_site_label
 _atom_site_symmetry_multiplicity
 _atom_site_fract_x
 _atom_site_fract_y
 _atom_site_fract_z
 _atom_site_occupancy
 _atom_site_pbe_bader_spin_density
 _atom_site_pbe_cm5_charge
 _atom_site_pbe_ddec_charge
 _atom_site_pbe_ddec_spin_density
 _atom_site_pbe_ddec_sum_bond_order
 _atom_site_pbe_magmom
Ba  Ba0  1  0.14701789  0.07240514  0.16244565  1  0  0.913  1.470982  0  1.466846  0
Ba  Ba1  1  0.85298202  0.92759530  0.83755463  1  0  0.912994  1.470982  0  1.46684  0
H  H2  1  0.03024832  0.36202302  0.75518768  1  0  0.307715  0.346222  0  0.994012  0
H  H3  1  0.96975159  0.63797742  0.24481261  1  0  0.307715  0.34621  0  0.994029  0
H  H4  1  0.77531148  0.45877806  0.02168630  1  0  0.321738  0.367313  0  0.944172  0
H  H5  1  0.22468853  0.54122094  0.97831441  1  0  0.321732  0.367313  0  0.944189  0
H  H6  1  0.33323296  0.05929827  0.47923340  1  0  0.1221  0.132024  0  1.036258  0
H  H7  1  0.66676550  0.94070217  0.52076861  1  0  0.122094  0.132006  0  1.036276  0
H  H8  1  0.44235348  0.75306445  0.27806878  1  0  0.121103  0.126289  0  1.056024  0
H  H9  1  0.55764796  0.24693455  0.72193144  1  0  0.121097  0.126264  0  1.056036  0
C  C10  1  0.62738271  0.16756362  0.15224664  1  0  0.223245  0.605331  0  4.207483  0
C  C11  1  0.37261740  0.83243394  0.84775327  1  0  0.22326  0.605373  0  4.207476  0
C  C12  1  0.50685108  0.28964452  0.27171392  1  0  -0.015684  -0.137894  0  3.983995  0
C  C13  1  0.49315046  0.71035304  0.72828795  1  0  -0.01573  -0.138029  0  3.98401  0
C  C14  1  0.35649982  0.21165542  0.43558310  1  0  -0.088196  -0.216147  0  3.943278  0
C  C15  1  0.64350297  0.78834501  0.56441619  1  0  -0.088182  -0.216105  0  3.94323  0
C  C16  1  0.23716732  0.32645863  0.54336816  1  0  0.09449  0.306876  0  4.024891  0
C  C17  1  0.76283413  0.67354037  0.45663206  1  0  0.094503  0.306906  0  4.024845  0
C  C18  1  0.26177813  0.52609091  0.48058454  1  0  -0.023825  -0.150308  0  4.003954  0
C  C19  1  0.73822322  0.47390953  0.51941525  1  0  -0.023826  -0.15032  0  4.003938  0
C  C20  1  0.41370196  0.60277680  0.31849201  1  0  -0.087818  -0.207223  0  3.964127  0
C  C21  1  0.58629948  0.39722220  0.68150943  1  0  -0.0878  -0.207187  0  3.964136  0
C  C22  1  0.53922475  0.48613136  0.21662040  1  0  0.087549  0.292819  0  4.037991  0
C  C23  1  0.46077968  0.51386619  0.78338048  1  0  0.087611  0.292929  0  4.037891  0
C  C24  1  0.12986803  0.65401502  0.58681595  1  0  0.20583  0.585652  0  4.225164  0
C  C25  1  0.87013044  0.34598543  0.41318237  1  0  0.205793  0.585619  0  4.225129  0
O  O26  1  0.54873285  0.03839143  0.14087729  1  0  -0.357257  -0.618874  0  2.240636  0
O  O27  1  0.45126716  0.96160757  0.85912219  1  0  -0.357278  -0.618885  0  2.24061  0
O  O28  1  0.80593465  0.20301185  0.06013990  1  0  -0.3599  -0.64998  0  2.214244  0
O  O29  1  0.19406526  0.79698859  0.93986038  1  0  -0.359897  -0.649981  0  2.214226  0
O  O30  1  0.13992353  0.83573131  0.51903006  1  0  -0.387914  -0.645284  0  2.272462  0
O  O31  1  0.86007926  0.16426914  0.48096676  1  0  -0.387902  -0.645292  0  2.272471  0
O  O32  1  0.00603586  0.57525045  0.74652790  1  0  -0.333886  -0.587982  0  2.25136  0
O  O33  1  0.99396540  0.42475144  0.25346900  1  0  -0.333871  -0.587937  0  2.251262  0
O  O34  1  0.09604238  0.24661586  0.70670797  1  0  -0.363676  -0.516319  0  2.385759  0
O  O35  1  0.90395753  0.75338458  0.29329231  1  0  -0.363688  -0.516334  0  2.385764  0
O  O36  1  0.68943881  0.56663749  0.06226108  1  0  -0.378609  -0.503485  0  2.414128  0
O  O37  1  0.31056110  0.43336295  0.93773921  1  0  -0.37863  -0.503541  0  2.414148  0
