# generated using pymatgen
data_CdH15C20(NO2)2
_symmetry_space_group_name_H-M   'P 1'
_cell_length_a   8.24171294
_cell_length_b   10.44191559
_cell_length_c   13.51205040
_cell_angle_alpha   104.39929939
_cell_angle_beta   106.62526190
_cell_angle_gamma   92.26518301
_symmetry_Int_Tables_number   1
_chemical_formula_structural   CdH15C20(NO2)2
_chemical_formula_sum   'Cd2 H30 C40 N4 O8'
_cell_volume   1071.52359632
_cell_formula_units_Z   2
loop_
 _symmetry_equiv_pos_site_id
 _symmetry_equiv_pos_as_xyz
  1  'x, y, z'
loop_
 _atom_site_type_symbol
 _atom_site_label
 _atom_site_symmetry_multiplicity
 _atom_site_fract_x
 _atom_site_fract_y
 _atom_site_fract_z
 _atom_site_occupancy
 _atom_site_hle17_bader_spin_density
 _atom_site_hle17_ddec_charge
 _atom_site_hle17_ddec_spin_density
 _atom_site_hle17_ddec_sum_bond_order
 _atom_site_hle17_magmom
 _atom_site_hse06_10hf_bader_spin_density
 _atom_site_hse06_10hf_ddec_charge
 _atom_site_hse06_10hf_ddec_spin_density
 _atom_site_hse06_10hf_ddec_sum_bond_order
 _atom_site_hse06_10hf_magmom
 _atom_site_hse06_bader_spin_density
 _atom_site_hse06_ddec_charge
 _atom_site_hse06_ddec_spin_density
 _atom_site_hse06_ddec_sum_bond_order
 _atom_site_hse06_magmom
 _atom_site_pbe_bader_spin_density
 _atom_site_pbe_cm5_charge
 _atom_site_pbe_ddec_charge
 _atom_site_pbe_ddec_spin_density
 _atom_site_pbe_ddec_sum_bond_order
 _atom_site_pbe_magmom
Cd  Cd0  1  0.16754107  0.59283670  0.05891139  1  0  1.135045  0  1.778908  0  0  0.956885  0  2.248042  0  0  1.01551  0  2.185946  0  0  0.76328  0.915621  0  2.290167  0
Cd  Cd1  1  0.83246293  0.40715995  0.94108226  1  0  1.135057  0  1.779038  0  0  0.956886  0  2.248185  0  0  1.015506  0  2.186084  0  0  0.763293  0.915624  0  2.290311  0
H  H2  1  0.62833251  0.06597138  0.33175575  1  0  0.078567  0  0.924537  0  0  0.098789  0  0.981379  0  0  0.099125  0  0.980818  0  0  0.116133  0.098426  0  0.981909  0
H  H3  1  0.37165836  0.93403390  0.66825498  1  0  0.078608  0  0.92451  0  0  0.098816  0  0.981354  0  0  0.099151  0  0.98079  0  0  0.116182  0.098433  0  0.981909  0
H  H4  1  0.77038979  0.04023462  0.25425014  1  0  0.083268  0  0.934079  0  0  0.096182  0  1.001336  0  0  0.096143  0  1.002493  0  0  0.111149  0.096102  0  1.000625  0
H  H5  1  0.22961735  0.95977686  0.74575590  1  0  0.083278  0  0.934055  0  0  0.096197  0  1.001308  0  0  0.096158  0  1.002461  0  0  0.111201  0.096118  0  1.000597  0
H  H6  1  0.05914404  0.07638478  0.35239504  1  0  0.096054  0  0.94416  0  0  0.110939  0  0.99582  0  0  0.113415  0  0.995509  0  0  0.106175  0.109153  0  0.996056  0
H  H7  1  0.94085821  0.92361965  0.64761315  1  0  0.095984  0  0.94416  0  0  0.110851  0  0.995853  0  0  0.113326  0  0.995541  0  0  0.106119  0.109068  0  0.996092  0
H  H8  1  0.14217605  0.63360287  0.38393206  1  0  0.106709  0  0.940693  0  0  0.115951  0  1.001875  0  0  0.120381  0  0.9981  0  0  0.103707  0.112749  0  1.004601  0
H  H9  1  0.85782036  0.36637580  0.61605740  1  0  0.106619  0  0.940721  0  0  0.115884  0  1.001877  0  0  0.120318  0  0.998094  0  0  0.103619  0.112681  0  1.004604  0
H  H10  1  0.51810414  0.27732353  0.05929044  1  0  0.113669  0  0.951768  0  0  0.121409  0  1.019829  0  0  0.125658  0  1.015925  0  0  0.106112  0.118372  0  1.022657  0
H  H11  1  0.48189978  0.72266504  0.94071122  1  0  0.113671  0  0.951704  0  0  0.121485  0  1.019665  0  0  0.12574  0  1.015749  0  0  0.106098  0.11842  0  1.022522  0
H  H12  1  0.79361465  0.18271192  0.08074568  1  0  0.109857  0  0.971944  0  0  0.117933  0  1.035809  0  0  0.121511  0  1.0341  0  0  0.101348  0.115222  0  1.037336  0
H  H13  1  0.20639455  0.81730459  0.91925803  1  0  0.109878  0  0.972057  0  0  0.117961  0  1.035901  0  0  0.121537  0  1.034196  0  0  0.10134  0.115252  0  1.037428  0
H  H14  1  0.33807999  0.97426256  0.30973492  1  0  0.115534  0  0.940328  0  0  0.134299  0  1.002668  0  0  0.136334  0  1.001595  0  0  0.093722  0.1329  0  1.003377  0
H  H15  1  0.66192588  0.02574088  0.69027596  1  0  0.115498  0  0.940235  0  0  0.134248  0  1.002613  0  0  0.136282  0  1.00154  0  0  0.093699  0.13285  0  1.003321  0
H  H16  1  0.20176011  0.88441871  0.18050908  1  0  0.152005  0  0.954403  0  0  0.171475  0  1.013055  0  0  0.174324  0  1.011107  0  0  0.106474  0.169365  0  1.014568  0
H  H17  1  0.79824071  0.11558377  0.81949403  1  0  0.151955  0  0.954363  0  0  0.171409  0  1.013031  0  0  0.174257  0  1.011086  0  0  0.106456  0.1693  0  1.014544  0
H  H18  1  0.35054853  0.01914087  0.19278110  1  0  0.129919  0  0.939375  0  0  0.149239  0  0.998607  0  0  0.15056  0  0.999566  0  0  0.099399  0.148294  0  0.997974  0
H  H19  1  0.64944916  0.98085759  0.80722212  1  0  0.12991  0  0.939326  0  0  0.149239  0  0.998555  0  0  0.15056  0  0.999513  0  0  0.099403  0.148295  0  0.997921  0
H  H20  1  0.04743523  0.01640727  0.93186702  1  0  0.09782  0  0.963746  0  0  0.108902  0  1.024245  0  0  0.112039  0  1.022521  0  0  0.101166  0.106612  0  1.025588  0
H  H21  1  0.95256617  0.98359828  0.06813014  1  0  0.09791  0  0.963744  0  0  0.108984  0  1.024247  0  0  0.112119  0  1.022526  0  0  0.101187  0.106695  0  1.025591  0
H  H22  1  0.26304230  0.70911148  0.58318645  1  0  0.08431  0  0.957217  0  0  0.096831  0  1.01541  0  0  0.099822  0  1.014229  0  0  0.096527  0.094668  0  1.016317  0
H  H23  1  0.73695181  0.29088614  0.41680115  1  0  0.08434  0  0.95718  0  0  0.096879  0  1.015345  0  0  0.099846  0  1.01419  0  0  0.096542  0.094716  0  1.016255  0
H  H24  1  0.73423876  0.31341887  0.23654812  1  0  0.096819  0  0.967169  0  0  0.105541  0  1.033109  0  0  0.108472  0  1.031415  0  0  0.100718  0.103273  0  1.03461  0
H  H25  1  0.26574375  0.68656866  0.76343834  1  0  0.096863  0  0.967278  0  0  0.105566  0  1.033194  0  0  0.108495  0  1.031514  0  0  0.100724  0.103305  0  1.034698  0
H  H26  1  0.84118657  0.75342357  0.24977531  1  0  0.122645  0  0.949894  0  0  0.133138  0  1.008853  0  0  0.135585  0  1.008515  0  0  0.123821  0.131436  0  1.009063  0
H  H27  1  0.15881912  0.24658596  0.75022638  1  0  0.122781  0  0.949762  0  0  0.13322  0  1.008772  0  0  0.135687  0  1.00841  0  0  0.123902  0.131519  0  1.008984  0
H  H28  1  0.70271621  0.92296768  0.48557316  1  0  0.090771  0  0.939282  0  0  0.104076  0  0.993465  0  0  0.107067  0  0.992211  0  0  0.102438  0.10187  0  0.994518  0
H  H29  1  0.29728066  0.07703470  0.51443513  1  0  0.090637  0  0.939305  0  0  0.10395  0  0.993495  0  0  0.10694  0  0.992244  0  0  0.102421  0.101745  0  0.994548  0
H  H30  1  0.57674197  0.55080912  0.13274239  1  0  0.117975  0  0.948485  0  0  0.126859  0  1.008611  0  0  0.129645  0  1.006898  0  0  0.120887  0.124738  0  1.010119  0
H  H31  1  0.42326444  0.44920355  0.86724747  1  0  0.117959  0  0.948331  0  0  0.126811  0  1.008538  0  0  0.129597  0  1.006825  0  0  0.120846  0.124687  0  1.010054  0
C  C32  1  0.72156960  0.00115074  0.30998330  1  0  -0.029258  0  3.659026  0  0  -0.100251  0  3.915244  0  0  -0.095024  0  3.925765  0  0  -0.043531  -0.103607  0  3.907987  0
C  C33  1  0.27842890  0.99885369  0.69002199  1  0  -0.029327  0  3.658972  0  0  -0.100243  0  3.915178  0  0  -0.095011  0  3.925691  0  0  -0.043679  -0.103586  0  3.907929  0
C  C34  1  0.03335861  0.04278608  0.41724558  1  0  -0.109954  0  3.764165  0  0  -0.128986  0  4.008667  0  0  -0.131988  0  4.031597  0  0  -0.086807  -0.126679  0  3.992462  0
C  C35  1  0.96663693  0.95721533  0.58275932  1  0  -0.109801  0  3.764227  0  0  -0.12879  0  4.008751  0  0  -0.131792  0  4.031683  0  0  -0.086701  -0.12649  0  3.992551  0
C  C36  1  0.05820133  0.54973750  0.49561605  1  0  0.059138  0  3.799636  0  0  0.076865  0  4.024239  0  0  0.076402  0  4.048705  0  0  -0.006979  0.077273  0  4.007363  0
C  C37  1  0.94179503  0.45024022  0.50436950  1  0  0.059249  0  3.799601  0  0  0.07699  0  4.024188  0  0  0.076527  0  4.048656  0  0  -0.006995  0.077399  0  4.007314  0
C  C38  1  0.05415987  0.55930660  0.39249640  1  0  -0.106518  0  3.7029  0  0  -0.138833  0  3.947774  0  0  -0.138127  0  3.965576  0  0  -0.080763  -0.139046  0  3.935518  0
C  C39  1  0.94583217  0.44067701  0.60749323  1  0  -0.106585  0  3.702659  0  0  -0.138866  0  3.947484  0  0  -0.138163  0  3.965289  0  0  -0.080693  -0.139076  0  3.935228  0
C  C40  1  0.45098469  0.17669132  0.02906370  1  0  -0.110961  0  3.69767  0  0  -0.144655  0  3.950314  0  0  -0.143859  0  3.968167  0  0  -0.08321  -0.144994  0  3.938185  0
C  C41  1  0.54901903  0.82330425  0.97093561  1  0  -0.110863  0  3.697487  0  0  -0.144616  0  3.950072  0  0  -0.143821  0  3.967926  0  0  -0.083161  -0.144928  0  3.937954  0
C  C42  1  0.93998707  0.47518540  0.30084933  1  0  -0.060659  0  3.762645  0  0  -0.03697  0  3.996902  0  0  -0.045302  0  4.020638  0  0  -0.020568  -0.031717  0  3.98112  0
C  C43  1  0.06000581  0.52479430  0.69913451  1  0  -0.060245  0  3.762613  0  0  -0.036633  0  3.996977  0  0  -0.044964  0  4.020718  0  0  -0.020449  -0.031381  0  3.981195  0
C  C44  1  0.86527283  0.00054355  0.40842557  1  0  0.064421  0  3.762384  0  0  0.083349  0  4.007077  0  0  0.082342  0  4.031839  0  0  -0.010856  0.084127  0  3.989801  0
C  C45  1  0.13472445  0.99946181  0.59158339  1  0  0.064353  0  3.762317  0  0  0.083191  0  4.007133  0  0  0.082184  0  4.031895  0  0  -0.010922  0.08397  0  3.989853  0
C  C46  1  0.72619632  0.08210396  0.05189335  1  0  -0.121433  0  3.740504  0  0  -0.139318  0  3.993809  0  0  -0.142501  0  4.013968  0  0  -0.094016  -0.13699  0  3.98011  0
C  C47  1  0.27381041  0.91790639  0.94812349  1  0  -0.121669  0  3.740542  0  0  -0.139573  0  3.993882  0  0  -0.142755  0  4.014038  0  0  -0.094078  -0.137244  0  3.980187  0
C  C48  1  0.33087047  0.93474908  0.22482362  1  0  -0.397621  0  3.721707  0  0  -0.475359  0  3.958229  0  0  -0.479382  0  3.96375  0  0  -0.232123  -0.472404  0  3.954267  0
C  C49  1  0.66913010  0.06525235  0.77518367  1  0  -0.39752  0  3.721475  0  0  -0.475232  0  3.958029  0  0  -0.479254  0  3.963551  0  0  -0.232071  -0.472273  0  3.954071  0
C  C50  1  0.27455142  0.15843198  0.99664696  1  0  -0.064834  0  3.775086  0  0  -0.04219  0  4.012627  0  0  -0.049795  0  4.034973  0  0  -0.023691  -0.037306  0  3.997649  0
C  C51  1  0.72545975  0.84157161  0.00335530  1  0  -0.064933  0  3.774913  0  0  -0.042211  0  4.012386  0  0  -0.049815  0  4.03473  0  0  -0.023675  -0.037326  0  3.9974  0
C  C52  1  0.18613964  0.02761502  0.95568510  1  0  -0.085821  0  3.763227  0  0  -0.110541  0  4.015999  0  0  -0.110598  0  4.035393  0  0  -0.093835  -0.110343  0  4.002846  0
C  C53  1  0.81386469  0.97239631  0.04433150  1  0  -0.086085  0  3.763219  0  0  -0.110849  0  4.016013  0  0  -0.110906  0  4.035404  0  0  -0.093954  -0.110653  0  4.002863  0
C  C54  1  0.17427095  0.63456746  0.59090392  1  0  -0.117037  0  3.769843  0  0  -0.136469  0  4.020084  0  0  -0.140072  0  4.042155  0  0  -0.092811  -0.134007  0  4.004979  0
C  C55  1  0.82572488  0.36542513  0.40908818  1  0  -0.117143  0  3.770127  0  0  -0.136593  0  4.020394  0  0  -0.140179  0  4.042473  0  0  -0.092841  -0.134132  0  4.005288  0
C  C56  1  0.54504161  0.06607539  0.02067904  1  0  0.047615  0  3.794241  0  0  0.063553  0  4.02542  0  0  0.062867  0  4.050173  0  0  -0.01224  0.063949  0  4.008613  0
C  C57  1  0.45497268  0.93392418  0.97932817  1  0  0.047668  0  3.794063  0  0  0.063586  0  4.025292  0  0  0.062901  0  4.050045  0  0  -0.012204  0.063981  0  4.008477  0
C  C58  1  0.82392756  0.37758738  0.30969488  1  0  -0.08044  0  3.764309  0  0  -0.105727  0  4.01527  0  0  -0.106014  0  4.036668  0  0  -0.09183  -0.105552  0  4.001074  0
C  C59  1  0.17605230  0.62240101  0.69030162  1  0  -0.08066  0  3.764577  0  0  -0.105884  0  4.01552  0  0  -0.106179  0  4.036931  0  0  -0.091841  -0.105719  0  4.001336  0
C  C60  1  0.17584673  0.27642587  0.00236015  1  0  0.656415  0  3.927301  0  0  0.604102  0  4.219536  0  0  0.640168  0  4.212489  0  0  0.205899  0.579645  0  4.223482  0
C  C61  1  0.82416787  0.72358375  0.99764170  1  0  0.656451  0  3.926964  0  0  0.604105  0  4.219197  0  0  0.64017  0  4.212151  0  0  0.205913  0.579649  0  4.223145  0
C  C62  1  0.45629541  0.83836581  0.21205039  1  0  0.366141  0  3.706005  0  0  0.344501  0  3.971009  0  0  0.360255  0  3.987608  0  0  0.216048  0.334198  0  3.959291  0
C  C63  1  0.54370368  0.16163272  0.78794792  1  0  0.366187  0  3.7058  0  0  0.344581  0  3.970831  0  0  0.360334  0  3.98743  0  0  0.216073  0.334267  0  3.959133  0
C  C64  1  0.94200957  0.48712182  0.19266075  1  0  0.656983  0  3.91212  0  0  0.605869  0  4.203461  0  0  0.641687  0  4.196384  0  0  0.207862  0.581647  0  4.207368  0
C  C65  1  0.05797751  0.51285378  0.80732788  1  0  0.656938  0  3.912015  0  0  0.605814  0  4.203397  0  0  0.641634  0  4.196318  0  0  0.207734  0.581592  0  4.207306  0
C  C66  1  0.70407720  0.75379089  0.22658353  1  0  -0.061433  0  3.679648  0  0  -0.10717  0  3.948393  0  0  -0.106796  0  3.969036  0  0  -0.003235  -0.107504  0  3.934618  0
C  C67  1  0.29593895  0.24622166  0.77342436  1  0  -0.061642  0  3.680168  0  0  -0.107322  0  3.948945  0  0  -0.106965  0  3.96958  0  0  -0.003266  -0.107657  0  3.93517  0
C  C68  1  0.83319924  0.95762072  0.49204969  1  0  -0.108477  0  3.759057  0  0  -0.130457  0  4.008721  0  0  -0.132922  0  4.030402  0  0  -0.089671  -0.128635  0  3.993679  0
C  C69  1  0.16679616  0.04238865  0.50795601  1  0  -0.108181  0  3.758714  0  0  -0.130142  0  4.008411  0  0  -0.132606  0  4.030092  0  0  -0.089604  -0.128321  0  3.993368  0
C  C70  1  0.57242993  0.65507876  0.16893671  1  0  0.021998  0  3.740889  0  0  -0.014441  0  4.012565  0  0  -0.01172  0  4.032882  0  0  -0.001504  -0.016163  0  3.998965  0
C  C71  1  0.42758191  0.34492887  0.83106202  1  0  0.0222  0  3.740716  0  0  -0.014186  0  4.012331  0  0  -0.011466  0  4.032654  0  0  -0.001428  -0.015904  0  3.998728  0
N  N72  1  0.62915652  0.86858004  0.25359125  1  0  -0.120007  0  3.532521  0  0  -0.028924  0  3.749624  0  0  -0.044909  0  3.775454  0  0  -0.241296  -0.018321  0  3.732127  0
N  N73  1  0.37083491  0.13142829  0.74641500  1  0  -0.119997  0  3.532666  0  0  -0.028988  0  3.749814  0  0  -0.044974  0  3.775648  0  0  -0.241278  -0.018378  0  3.732316  0
N  N74  1  0.41986280  0.70875510  0.16029190  1  0  -0.440337  0  3.20805  0  0  -0.364826  0  3.484918  0  0  -0.388731  0  3.501022  0  0  -0.362786  -0.348562  0  3.473431  0
N  N75  1  0.58014649  0.29125158  0.83970100  1  0  -0.440469  0  3.208028  0  0  -0.364986  0  3.484928  0  0  -0.388889  0  3.501024  0  0  -0.362844  -0.348716  0  3.473446  0
O  O76  1  0.26097901  0.39083010  0.04690491  1  0  -0.643018  0  2.040584  0  0  -0.574774  0  2.291374  0  0  -0.605026  0  2.279823  0  0  -0.327463  -0.553667  0  2.298545  0
O  O77  1  0.73903449  0.60918052  0.95309546  1  0  -0.642914  0  2.04042  0  0  -0.574661  0  2.291194  0  0  -0.604911  0  2.279646  0  0  -0.327444  -0.553553  0  2.298358  0
O  O78  1  0.01433089  0.25108658  0.96125525  1  0  -0.649428  0  2.055806  0  0  -0.581589  0  2.309751  0  0  -0.612294  0  2.299039  0  0  -0.327393  -0.56017  0  2.316145  0
O  O79  1  0.98568292  0.74891801  0.03874916  1  0  -0.649532  0  2.05571  0  0  -0.581658  0  2.309607  0  0  -0.612365  0  2.298895  0  0  -0.32742  -0.560237  0  2.316001  0
O  O80  1  0.82769604  0.41306676  0.11075012  1  0  -0.641892  0  2.028068  0  0  -0.574929  0  2.281874  0  0  -0.604913  0  2.27019  0  0  -0.322359  -0.553754  0  2.288956  0
O  O81  1  0.17228650  0.58692882  0.88923053  1  0  -0.641858  0  2.027924  0  0  -0.574979  0  2.281859  0  0  -0.604957  0  2.270163  0  0  -0.322308  -0.553804  0  2.288941  0
O  O82  1  0.05755015  0.57067075  0.19178431  1  0  -0.654519  0  2.037922  0  0  -0.590241  0  2.287533  0  0  -0.619301  0  2.274554  0  0  -0.333916  -0.570184  0  2.295717  0
O  O83  1  0.94243105  0.42931861  0.80821559  1  0  -0.654601  0  2.038236  0  0  -0.59028  0  2.287847  0  0  -0.619342  0  2.274865  0  0  -0.333876  -0.570222  0  2.296033  0
