# generated using pymatgen
data_ZnH11C19N3O5
_symmetry_space_group_name_H-M   'P 1'
_cell_length_a   16.13101079
_cell_length_b   15.89946791
_cell_length_c   17.24972653
_cell_angle_alpha   87.67511820
_cell_angle_beta   88.98871953
_cell_angle_gamma   87.98675645
_symmetry_Int_Tables_number   1
_chemical_formula_structural   ZnH11C19N3O5
_chemical_formula_sum   'Zn2 H22 C38 N6 O10'
_cell_volume   4417.16142677
_cell_formula_units_Z   2
loop_
 _symmetry_equiv_pos_site_id
 _symmetry_equiv_pos_as_xyz
  1  'x, y, z'
loop_
 _atom_site_type_symbol
 _atom_site_label
 _atom_site_symmetry_multiplicity
 _atom_site_fract_x
 _atom_site_fract_y
 _atom_site_fract_z
 _atom_site_occupancy
 _atom_site_pbe_bader_charge
 _atom_site_pbe_bader_spin_density
 _atom_site_pbe_cm5_charge
 _atom_site_pbe_ddec_charge
 _atom_site_pbe_ddec_spin_density
 _atom_site_pbe_ddec_sum_bond_order
 _atom_site_pbe_magmom
Zn  Zn0  1  0.49190085  0.58731271  0.50219832  1  1.285695  0  0.665463  0.815244  0  2.434558  0
Zn  Zn1  1  0.50466811  0.41236569  0.49814115  1  1.287354  0  0.665078  0.815314  0  2.430468  0
H  H2  1  0.94675153  0.42788979  0.38852722  1  0.058062  0  0.101582  0.088745  0  0.990943  0
H  H3  1  0.04995765  0.57218151  0.61129289  1  0.060122  0  0.101694  0.088622  0  0.990928  0
H  H4  1  0.58840083  0.13011620  0.37877687  1  0.106412  0  0.123672  0.134592  0  0.972487  0
H  H5  1  0.41079562  0.86994038  0.62232316  1  0.116523  0  0.123811  0.134991  0  0.971336  0
H  H6  1  0.58169906  0.28849307  0.39046450  1  0.138636  0  0.13101  0.112619  0  0.975106  0
H  H7  1  0.41561104  0.71164407  0.61026116  1  0.136317  0  0.131839  0.114031  0  0.970355  0
H  H8  1  0.05327132  0.56622032  0.37987120  1  0.05919  0  0.102549  0.09058  0  0.987975  0
H  H9  1  0.94338810  0.43381559  0.61989738  1  0.062894  0  0.102693  0.090433  0  0.988697  0
H  H10  1  0.04563244  0.35144060  0.50845866  1  0.090212  0  0.100465  0.087571  0  0.99227  0
H  H11  1  0.95107331  0.64858027  0.49131933  1  0.038204  0  0.100586  0.08797  0  0.991533  0
H  H12  1  0.48086869  0.61460859  0.74785167  1  0.090592  0  0.101811  0.103964  0  1.006374  0
H  H13  1  0.54888620  0.38751351  0.25367538  1  0.057634  0  0.10192  0.104012  0  1.006099  0
H  H14  1  0.49457314  0.61095835  0.89321428  1  0.093021  0  0.103524  0.103496  0  1.020087  0
H  H15  1  0.55692407  0.39330855  0.10759963  1  0.093639  0  0.103181  0.103336  0  1.018691  0
H  H16  1  0.50045811  0.65929306  0.10581665  1  0.05037  0  0.105959  0.107341  0  0.996684  0
H  H17  1  0.54318243  0.34372653  0.89262916  1  0.082604  0  0.10542  0.106722  0  0.996624  0
H  H18  1  0.49275301  0.65334901  0.25241087  1  0.088042  0  0.105169  0.110211  0  0.998075  0
H  H19  1  0.52890686  0.34760672  0.74680928  1  0.085421  0  0.105085  0.1103  0  0.995362  0
H  H20  1  0.55956651  0.72880741  0.40887499  1  0.16004  0  0.139852  0.134776  0  0.957678  0
H  H21  1  0.43756582  0.27024274  0.59165336  1  0.172995  0  0.140287  0.134941  0  0.956191  0
H  H22  1  0.56180194  0.95501248  0.41329259  1  0.641871  0  0.304557  0.293699  0  1.05148  0
H  H23  1  0.43782227  0.04402684  0.58778154  1  0.633043  0  0.304508  0.293167  0  1.052543  0
C  C24  1  0.51046404  0.51461637  0.34798598  1  1.538764  0  0.216555  0.593256  0  4.165454  0
C  C25  1  0.49645651  0.48518854  0.65253520  1  1.54383  0  0.215415  0.590742  0  4.171424  0
C  C26  1  0.53849240  0.44660590  0.22047797  1  0.060074  0  -0.082794  -0.081926  0  3.980363  0
C  C27  1  0.49450370  0.55576079  0.78042393  1  0.018222  0  -0.083133  -0.080444  0  3.982446  0
C  C28  1  0.54291756  0.44951764  0.14010151  1  -0.085313  0  -0.085299  -0.142645  0  3.957248  0
C  C29  1  0.50231913  0.55407846  0.86033144  1  -0.087608  0  -0.085901  -0.143358  0  3.958839  0
C  C30  1  0.52742666  0.52662135  0.09888725  1  0.360486  0  0.086535  0.1725  0  4.045973  0
C  C31  1  0.52031229  0.47697295  0.90062895  1  0.36663  0  0.086142  0.171918  0  4.045532  0
C  C32  1  0.51121205  0.60043774  0.13942610  1  -0.056657  0  -0.081858  -0.142188  0  3.964065  0
C  C33  1  0.52956274  0.40248027  0.85973101  1  -0.069318  0  -0.081319  -0.141296  0  3.961958  0
C  C34  1  0.50688668  0.59698782  0.22011123  1  0.049438  0  -0.083244  -0.087056  0  3.981431  0
C  C35  1  0.52150575  0.40470242  0.77948363  1  0.003459  0  -0.083582  -0.086974  0  3.977846  0
C  C36  1  0.47014360  0.23696327  0.54550895  1  0.523228  0  0.063628  0.001597  0  3.841937  0
C  C37  1  0.52754219  0.76235367  0.45516183  1  0.622171  0  0.06386  0.002424  0  3.837146  0
C  C38  1  0.46994417  0.14850980  0.54439822  1  0.618843  0  0.113457  0.23484  0  4.018751  0
C  C39  1  0.52880817  0.85073405  0.45656505  1  0.531432  0  0.113613  0.235634  0  4.016494  0
C  C40  1  0.51379340  0.10873796  0.48261403  1  0.399296  0  0.096165  0.073614  0  4.058033  0
C  C41  1  0.48539576  0.89076930  0.51844130  1  0.414466  0  0.095674  0.070349  0  4.060556  0
C  C42  1  0.55470052  0.15966974  0.42632236  1  -0.003369  0  -0.070571  -0.172189  0  3.976313  0
C  C43  1  0.44405607  0.84012844  0.57465647  1  -0.008789  0  -0.070056  -0.170591  0  3.97492  0
C  C44  1  0.55152325  0.24602143  0.43235937  1  0.453041  0  0.046273  0.069186  0  3.942108  0
C  C45  1  0.44621740  0.75382099  0.56840527  1  0.459262  0  0.045836  0.067638  0  3.941826  0
C  C46  1  0.66035153  0.50481012  0.50270535  1  1.689474  0  0.214802  0.669206  0  4.241473  0
C  C47  1  0.33656173  0.49513408  0.49773449  1  1.660308  0  0.215734  0.672077  0  4.237801  0
C  C48  1  0.02788392  0.53703065  0.43320932  1  -0.008748  0  -0.069082  -0.075565  0  3.629642  0
C  C49  1  0.96885897  0.46300290  0.56659567  1  -0.012482  0  -0.069214  -0.075206  0  3.630573  0
C  C50  1  0.97067870  0.45969454  0.43805306  1  -0.024743  0  -0.069235  -0.075111  0  3.634718  0
C  C51  1  0.02606953  0.54036107  0.56176148  1  -0.014969  0  -0.069441  -0.075107  0  3.634198  0
C  C52  1  0.74972672  0.50765860  0.50171684  1  0.20152  0  -0.060772  -0.20532  0  4.014139  0
C  C53  1  0.24712846  0.49226832  0.49847027  1  0.172062  0  -0.060939  -0.205891  0  4.009901  0
C  C54  1  0.97271777  0.58261517  0.49515696  1  -0.007958  0  -0.072467  -0.081359  0  3.638814  0
C  C55  1  0.02404891  0.41743164  0.50463803  1  -0.048482  0  -0.071954  -0.080889  0  3.63693  0
C  C56  1  0.91306757  0.50550965  0.49997750  1  0.135749  0  0.006877  0.123314  0  3.802961  0
C  C57  1  0.08371996  0.49455296  0.49985322  1  0.160119  0  0.007219  0.124896  0  3.796898  0
C  C58  1  0.82530460  0.50806356  0.50066580  1  -0.559491  0  -0.040609  -0.060863  0  4.111136  0
C  C59  1  0.17151626  0.49194945  0.49932359  1  -0.530975  0  -0.040304  -0.060887  0  4.108111  0
C  C60  1  0.51923831  0.51984703  0.26123805  1  -0.024285  0  -0.011921  -0.020011  0  3.938174  0
C  C61  1  0.50392512  0.48138905  0.73916618  1  -0.030378  0  -0.011322  -0.020498  0  3.939892  0
N  N62  1  0.52424876  0.53618837  0.01723799  1  -0.510977  0  -0.153476  -0.143549  0  3.288957  0
N  N63  1  0.52796658  0.46761491  0.98200866  1  -0.490573  0  -0.151562  -0.141305  0  3.286685  0
N  N64  1  0.50970899  0.28307642  0.49134461  1  -1.209826  0  -0.303203  -0.150815  0  3.532377  0
N  N65  1  0.48745358  0.71654762  0.50919484  1  -1.232951  0  -0.303313  -0.151226  0  3.53083  0
N  N66  1  0.51883733  0.02233022  0.47431806  1  -0.584496  0  -0.147597  -0.106782  0  3.34381  0
N  N67  1  0.48081102  0.97715700  0.52677372  1  -0.564287  0  -0.147983  -0.106047  0  3.348617  0
O  O68  1  0.50104185  0.58363242  0.38270590  1  -1.157995  0  -0.317164  -0.549844  0  2.321531  0
O  O69  1  0.50042043  0.41574777  0.61802682  1  -1.154733  0  -0.317686  -0.549408  0  2.318482  0
O  O70  1  0.51243159  0.44110019  0.38043346  1  -1.164028  0  -0.31731  -0.553396  0  2.330889  0
O  O71  1  0.48756095  0.55820489  0.61977091  1  -1.164999  0  -0.317942  -0.553894  0  2.336976  0
O  O72  1  0.61993367  0.57509167  0.50418875  1  -1.152037  0  -0.319788  -0.548651  0  2.263267  0
O  O73  1  0.37711971  0.42485952  0.49690287  1  -1.153467  0  -0.319693  -0.549283  0  2.262344  0
O  O74  1  0.63007190  0.43182932  0.50189994  1  -1.146833  0  -0.32019  -0.545325  0  2.2584  0
O  O75  1  0.36682357  0.56815167  0.49805169  1  -1.144981  0  -0.319996  -0.545404  0  2.259184  0
O  O76  1  0.56986325  0.89338314  0.40055916  1  -1.137025  0  -0.323949  -0.380027  0  2.289166  0
O  O77  1  0.42930063  0.10564476  0.60052783  1  -1.127995  0  -0.323629  -0.379544  0  2.291145  0
