# generated using pymatgen
data_CuH4C4(NO)4
_symmetry_space_group_name_H-M   'P 1'
_cell_length_a   5.17732767
_cell_length_b   6.64644282
_cell_length_c   6.82348261
_cell_angle_alpha   119.16035674
_cell_angle_beta   112.17898375
_cell_angle_gamma   89.96758828
_symmetry_Int_Tables_number   1
_chemical_formula_structural   CuH4C4(NO)4
_chemical_formula_sum   'Cu1 H4 C4 N4 O4'
_cell_volume   184.92509178
_cell_formula_units_Z   1
loop_
 _symmetry_equiv_pos_site_id
 _symmetry_equiv_pos_as_xyz
  1  'x, y, z'
loop_
 _atom_site_type_symbol
 _atom_site_label
 _atom_site_symmetry_multiplicity
 _atom_site_fract_x
 _atom_site_fract_y
 _atom_site_fract_z
 _atom_site_occupancy
 _atom_site_pbe_bader_spin_density
 _atom_site_pbe_cm5_charge
 _atom_site_pbe_ddec_charge
 _atom_site_pbe_ddec_spin_density
 _atom_site_pbe_ddec_sum_bond_order
 _atom_site_pbe_magmom
Cu  Cu0  1  0.99999949  0.00000184  0.99999921  1  0  0.68313  0.603061  0  2.183761  0
H  H1  1  0.80344909  0.43063901  0.24043460  1  0  0.127005  0.113767  0  1.009199  0
H  H2  1  0.19655319  0.19033742  0.75904531  1  0  0.127101  0.1139  0  1.009685  0
H  H3  1  0.19651847  0.56933163  0.75956584  1  0  0.126876  0.113612  0  1.00967  0
H  H4  1  0.80347029  0.80963165  0.24093524  1  0  0.127121  0.113869  0  1.009814  0
C  C5  1  0.88919292  0.46116082  0.13158190  1  0  0.061637  0.059456  0  3.875732  0
C  C6  1  0.11098004  0.32951990  0.86837228  1  0  0.061464  0.059234  0  3.876352  0
C  C7  1  0.11087089  0.53886280  0.86845123  1  0  0.061816  0.059734  0  3.875162  0
C  C8  1  0.88901387  0.67044778  0.13158005  1  0  0.061561  0.059328  0  3.876524  0
N  N9  1  0.99984964  0.29210018  0.99975113  1  0  -0.340394  -0.176085  0  3.671875  0
N  N10  1  0.00017407  0.70796633  0.00027510  1  0  -0.340573  -0.17615  0  3.671412  0
N  N11  1  0.51235339  0.77464762  0.54965566  1  0  -0.053489  0.218583  0  3.53958  0
N  N12  1  0.48764429  0.22537086  0.45036481  1  0  -0.053463  0.218745  0  3.538675  0
O  O13  1  0.77790576  0.79948003  0.59992789  1  0  -0.168941  -0.344287  0  2.302731  0
O  O14  1  0.22204460  0.20050351  0.40004159  1  0  -0.169096  -0.344606  0  2.302241  0
O  O15  1  0.45360376  0.86641284  0.73233485  1  0  -0.155919  -0.346123  0  2.19695  0
O  O16  1  0.54637274  0.13358965  0.26768354  1  0  -0.155835  -0.346039  0  2.196841  0
