# generated using pymatgen
data_UPH4(CO2)3
_symmetry_space_group_name_H-M   'P 1'
_cell_length_a   6.92156371
_cell_length_b   15.34929843
_cell_length_c   15.35024865
_cell_angle_alpha   87.09355929
_cell_angle_beta   76.98182131
_cell_angle_gamma   76.97472339
_symmetry_Int_Tables_number   1
_chemical_formula_structural   UPH4(CO2)3
_chemical_formula_sum   'U8 P8 H32 C24 O48'
_cell_volume   1548.03194299
_cell_formula_units_Z   8
loop_
 _symmetry_equiv_pos_site_id
 _symmetry_equiv_pos_as_xyz
  1  'x, y, z'
loop_
 _atom_site_type_symbol
 _atom_site_label
 _atom_site_symmetry_multiplicity
 _atom_site_fract_x
 _atom_site_fract_y
 _atom_site_fract_z
 _atom_site_occupancy
 _atom_site_hle17_bader_spin_density
 _atom_site_hle17_ddec_charge
 _atom_site_hle17_ddec_spin_density
 _atom_site_hle17_ddec_sum_bond_order
 _atom_site_hle17_magmom
 _atom_site_hse06_10hf_bader_spin_density
 _atom_site_hse06_10hf_ddec_charge
 _atom_site_hse06_10hf_ddec_spin_density
 _atom_site_hse06_10hf_ddec_sum_bond_order
 _atom_site_hse06_10hf_magmom
 _atom_site_hse06_bader_spin_density
 _atom_site_hse06_ddec_charge
 _atom_site_hse06_ddec_spin_density
 _atom_site_hse06_ddec_sum_bond_order
 _atom_site_hse06_magmom
 _atom_site_pbe_bader_spin_density
 _atom_site_pbe_cm5_charge
 _atom_site_pbe_ddec_charge
 _atom_site_pbe_ddec_spin_density
 _atom_site_pbe_ddec_sum_bond_order
 _atom_site_pbe_magmom
U  U0  1  0.72964594  0.93949475  0.46181059  1  0  2.604393  0  4.055288  0  0  2.677797  0  4.681063  0  0  2.785155  0  4.648228  0  0  2.275005  2.601492  0  4.704833  0
U  U1  1  0.13097279  0.06046139  0.53817150  1  0  2.606926  0  4.053437  0  0  2.681585  0  4.677341  0  0  2.788028  0  4.645768  0  0  2.275694  2.604788  0  4.701908  0
U  U2  1  0.33089920  0.53821574  0.93955878  1  0  2.606189  0  4.052774  0  0  2.680263  0  4.677174  0  0  2.787408  0  4.644554  0  0  2.275538  2.6033  0  4.701949  0
U  U3  1  0.80850919  0.46181164  0.06045283  1  0  2.607929  0  4.049459  0  0  2.68105  0  4.675162  0  0  2.789032  0  4.641477  0  0  2.275751  2.605255  0  4.698172  0
U  U4  1  0.41147798  0.80018943  0.19918635  1  0  2.645933  0  3.99883  0  0  2.712906  0  4.631885  0  0  2.81748  0  4.599758  0  0  2.232651  2.639697  0  4.653067  0
U  U5  1  0.41098119  0.19980731  0.80082474  1  0  2.647525  0  3.998647  0  0  2.713996  0  4.63217  0  0  2.81833  0  4.600377  0  0  2.233209  2.640286  0  4.654113  0
U  U6  1  0.78827389  0.80087441  0.80028759  1  0  2.649358  0  3.995162  0  0  2.715575  0  4.629135  0  0  2.82028  0  4.596672  0  0  2.233751  2.64138  0  4.651827  0
U  U7  1  0.38907393  0.19912269  0.19971707  1  0  2.649  0  3.994424  0  0  2.715038  0  4.628259  0  0  2.8197  0  4.595887  0  0  2.23311  2.641354  0  4.650244  0
P  P8  1  0.88965460  0.77234492  0.29105861  1  0  1.552594  0  4.7305  0  0  1.432067  0  5.227389  0  0  1.493756  0  5.181936  0  0  0.413004  1.388161  0  5.257663  0
P  P9  1  0.95303097  0.22760928  0.70894049  1  0  1.552245  0  4.729384  0  0  1.431694  0  5.226393  0  0  1.493344  0  5.180865  0  0  0.411947  1.387768  0  5.256627  0
P  P10  1  0.33806091  0.70902355  0.77244699  1  0  1.552455  0  4.729127  0  0  1.431824  0  5.225997  0  0  1.493484  0  5.180541  0  0  0.411921  1.387863  0  5.256268  0
P  P11  1  0.81913913  0.29097117  0.22754203  1  0  1.553214  0  4.72454  0  0  1.432521  0  5.221377  0  0  1.494198  0  5.175932  0  0  0.412462  1.388643  0  5.251633  0
P  P12  1  0.28413340  0.44196774  0.13281694  1  0  1.539682  0  4.79863  0  0  1.41334  0  5.287656  0  0  1.473094  0  5.240161  0  0  0.386325  1.371008  0  5.319709  0
P  P13  1  0.85904008  0.55802501  0.86722158  1  0  1.538371  0  4.798282  0  0  1.411965  0  5.287611  0  0  1.471866  0  5.239626  0  0  0.386214  1.369457  0  5.32016  0
P  P14  1  0.27382631  0.86709843  0.44203148  1  0  1.540293  0  4.796031  0  0  1.414064  0  5.285004  0  0  1.474008  0  5.236755  0  0  0.387327  1.371574  0  5.317448  0
P  P15  1  0.58307078  0.13283904  0.55795846  1  0  1.540039  0  4.797254  0  0  1.414322  0  5.285871  0  0  1.474292  0  5.237597  0  0  0.386658  1.371802  0  5.318394  0
H  H16  1  0.09835293  0.63524275  0.15771136  1  0  0.101623  0  0.948628  0  0  0.110559  0  1.013165  0  0  0.11267  0  1.011484  0  0  0.123649  0.109128  0  1.01429  0
H  H17  1  0.89101970  0.36471543  0.84235086  1  0  0.101948  0  0.949529  0  0  0.110863  0  1.013974  0  0  0.112983  0  1.012293  0  0  0.123807  0.109399  0  1.015137  0
H  H18  1  0.26596671  0.84227310  0.63537147  1  0  0.101359  0  0.949553  0  0  0.110716  0  1.013726  0  0  0.112847  0  1.012021  0  0  0.123954  0.10923  0  1.014919  0
H  H19  1  0.74400118  0.15768192  0.36467097  1  0  0.101085  0  0.95032  0  0  0.110593  0  1.014338  0  0  0.112749  0  1.012599  0  0  0.123496  0.109112  0  1.015538  0
H  H20  1  0.87539425  0.64668009  0.44361131  1  0  0.099588  0  0.942385  0  0  0.112509  0  0.998175  0  0  0.115389  0  0.996776  0  0  0.111157  0.110421  0  0.999198  0
H  H21  1  0.96613523  0.35325383  0.55639108  1  0  0.100145  0  0.942264  0  0  0.113173  0  0.997725  0  0  0.116095  0  0.996303  0  0  0.111421  0.11107  0  0.998763  0
H  H22  1  0.47877140  0.55641486  0.64680580  1  0  0.099278  0  0.943892  0  0  0.112404  0  0.999373  0  0  0.115222  0  0.998054  0  0  0.111033  0.110359  0  1.000326  0
H  H23  1  0.68022946  0.44365172  0.35306563  1  0  0.099374  0  0.942238  0  0  0.112499  0  0.99782  0  0  0.115337  0  0.996506  0  0  0.110806  0.110461  0  0.998778  0
H  H24  1  0.40624252  0.81333565  0.99733423  1  0  0.4509  0  0.823118  0  0  0.433716  0  0.863167  0  0  0.444318  0  0.847641  0  0  0.330104  0.426178  0  0.874258  0
H  H25  1  0.21685103  0.18682873  0.00265902  1  0  0.45214  0  0.821564  0  0  0.434866  0  0.861783  0  0  0.445465  0  0.846254  0  0  0.330703  0.427314  0  0.872901  0
H  H26  1  0.78034838  0.00276010  0.81324083  1  0  0.450288  0  0.824028  0  0  0.433195  0  0.863883  0  0  0.443778  0  0.848399  0  0  0.33011  0.425655  0  0.874962  0
H  H27  1  0.59602745  0.99716996  0.18675090  1  0  0.451616  0  0.822119  0  0  0.434317  0  0.862384  0  0  0.444935  0  0.846823  0  0  0.330475  0.426773  0  0.873491  0
H  H28  1  0.26164642  0.74682532  0.03273940  1  0  0.458184  0  0.820197  0  0  0.44119  0  0.860059  0  0  0.452791  0  0.842945  0  0  0.322032  0.432829  0  0.872443  0
H  H29  1  0.04110356  0.25326361  0.96719300  1  0  0.458137  0  0.820126  0  0  0.441099  0  0.860045  0  0  0.452708  0  0.842921  0  0  0.322244  0.432745  0  0.872411  0
H  H30  1  0.99154051  0.96726267  0.74685800  1  0  0.458094  0  0.819851  0  0  0.441218  0  0.859728  0  0  0.452834  0  0.842575  0  0  0.322285  0.432833  0  0.872156  0
H  H31  1  0.70547167  0.03264618  0.25312906  1  0  0.458753  0  0.819134  0  0  0.441558  0  0.859392  0  0  0.453174  0  0.842252  0  0  0.322922  0.433191  0  0.871785  0
H  H32  1  0.72759166  0.77432294  0.01786336  1  0  0.454207  0  0.831957  0  0  0.434287  0  0.87728  0  0  0.445881  0  0.86022  0  0  0.318619  0.426035  0  0.889467  0
H  H33  1  0.51967809  0.22577672  0.98219800  1  0  0.454178  0  0.832074  0  0  0.43425  0  0.877478  0  0  0.445845  0  0.860403  0  0  0.318815  0.426008  0  0.889651  0
H  H34  1  0.49807451  0.98222977  0.77422966  1  0  0.453074  0  0.833491  0  0  0.433074  0  0.878954  0  0  0.44467  0  0.861887  0  0  0.317933  0.424816  0  0.891146  0
H  H35  1  0.25410731  0.01785941  0.22576884  1  0  0.453205  0  0.833458  0  0  0.433331  0  0.878654  0  0  0.444913  0  0.861627  0  0  0.318666  0.425094  0  0.890813  0
H  H36  1  0.76126866  0.68576850  0.07906663  1  0  0.449268  0  0.83707  0  0  0.42946  0  0.883355  0  0  0.440738  0  0.866746  0  0  0.321497  0.421449  0  0.895173  0
H  H37  1  0.52607907  0.31430886  0.92097250  1  0  0.449709  0  0.836636  0  0  0.429605  0  0.883445  0  0  0.44089  0  0.866821  0  0  0.321552  0.421541  0  0.895362  0
H  H38  1  0.55303188  0.92094238  0.68571746  1  0  0.44852  0  0.838284  0  0  0.428766  0  0.884412  0  0  0.440042  0  0.867815  0  0  0.321122  0.42074  0  0.896241  0
H  H39  1  0.15945020  0.07913898  0.31428057  1  0  0.448986  0  0.837747  0  0  0.428877  0  0.884547  0  0  0.440158  0  0.867935  0  0  0.32097  0.420831  0  0.896431  0
H  H40  1  0.99850431  0.47941814  0.44949504  1  0  0.082543  0  1.012427  0  0  0.094824  0  1.070721  0  0  0.096953  0  1.070812  0  0  0.101015  0.093364  0  1.070676  0
H  H41  1  0.92792473  0.52053008  0.55053466  1  0  0.082559  0  1.012962  0  0  0.095143  0  1.07078  0  0  0.097152  0  1.071058  0  0  0.101094  0.093704  0  1.070723  0
H  H42  1  0.52364201  0.55054849  0.47950322  1  0  0.082345  0  1.012439  0  0  0.094639  0  1.070752  0  0  0.096666  0  1.071008  0  0  0.101024  0.093247  0  1.070622  0
H  H43  1  0.55103046  0.44958540  0.52034026  1  0  0.082709  0  1.012664  0  0  0.094929  0  1.070921  0  0  0.096952  0  1.07118  0  0  0.101099  0.093531  0  1.070786  0
H  H44  1  0.17624096  0.39384764  0.31528470  1  0  0.105224  0  0.954929  0  0  0.11403  0  1.017269  0  0  0.117159  0  1.014943  0  0  0.118942  0.111802  0  1.018998  0
H  H45  1  0.88526406  0.60611413  0.68479754  1  0  0.105166  0  0.954109  0  0  0.114101  0  1.016286  0  0  0.117239  0  1.013944  0  0  0.119472  0.111879  0  1.017998  0
H  H46  1  0.43089042  0.68467620  0.39394403  1  0  0.105457  0  0.953467  0  0  0.114074  0  1.016088  0  0  0.117189  0  1.013804  0  0  0.119468  0.111842  0  1.017813  0
H  H47  1  0.50854336  0.31535707  0.60599286  1  0  0.105209  0  0.954125  0  0  0.114117  0  1.0163  0  0  0.117311  0  1.013896  0  0  0.119087  0.111829  0  1.018081  0
C  C48  1  0.97605403  0.65203949  0.29997565  1  0  -0.247055  0  3.708092  0  0  -0.206091  0  3.946867  0  0  -0.219226  0  3.968411  0  0  -0.00628  -0.197339  0  3.932154  0
C  C49  1  0.92797114  0.34791913  0.70005435  1  0  -0.245603  0  3.706863  0  0  -0.204713  0  3.94571  0  0  -0.217834  0  3.967277  0  0  -0.005405  -0.195978  0  3.931021  0
C  C50  1  0.37211686  0.70004954  0.65216761  1  0  -0.244467  0  3.705229  0  0  -0.203122  0  3.943604  0  0  -0.216245  0  3.965192  0  0  -0.004964  -0.194371  0  3.928882  0
C  C51  1  0.72377548  0.29996275  0.34780722  1  0  -0.244256  0  3.705857  0  0  -0.203045  0  3.944407  0  0  -0.21615  0  3.965967  0  0  -0.005095  -0.19431  0  3.929709  0
C  C52  1  0.07536384  0.60193853  0.22235204  1  0  0.047189  0  3.673594  0  0  0.009413  0  3.919739  0  0  0.01466  0  3.939321  0  0  -0.040022  0.006568  0  3.90586  0
C  C53  1  0.89946095  0.39802172  0.77769948  1  0  0.046154  0  3.671585  0  0  0.008412  0  3.917757  0  0  0.01356  0  3.937418  0  0  -0.040242  0.005675  0  3.903829  0
C  C54  1  0.32259471  0.77764111  0.60206468  1  0  0.048099  0  3.672001  0  0  0.009531  0  3.918444  0  0  0.014719  0  3.9381  0  0  -0.040379  0.006749  0  3.904545  0
C  C55  1  0.70224877  0.22233358  0.39794500  1  0  0.045317  0  3.674415  0  0  0.007074  0  3.920927  0  0  0.012219  0  3.940606  0  0  -0.041303  0.004329  0  3.906975  0
C  C56  1  0.94974361  0.60800745  0.38283376  1  0  -0.011416  0  3.717683  0  0  -0.037124  0  3.96197  0  0  -0.03411  0  3.982459  0  0  -0.066188  -0.038713  0  3.947823  0
C  C57  1  0.94079630  0.39194693  0.61718225  1  0  -0.013856  0  3.720167  0  0  -0.039727  0  3.964626  0  0  -0.036738  0  3.985038  0  0  -0.06727  -0.041318  0  3.950512  0
C  C58  1  0.44290590  0.61718712  0.60813656  1  0  -0.013167  0  3.721018  0  0  -0.039187  0  3.96555  0  0  -0.036112  0  3.98598  0  0  -0.066845  -0.040822  0  3.951417  0
C  C59  1  0.66687111  0.38286071  0.39178275  1  0  -0.013036  0  3.718495  0  0  -0.03911  0  3.963164  0  0  -0.03608  0  3.983617  0  0  -0.066234  -0.040739  0  3.949027  0
C  C60  1  0.14851570  0.50920452  0.22784584  1  0  -0.264992  0  3.765245  0  0  -0.225251  0  4.007579  0  0  -0.239883  0  4.029985  0  0  -0.008867  -0.215463  0  3.992333  0
C  C61  1  0.88544528  0.49076007  0.77221441  1  0  -0.262856  0  3.760494  0  0  -0.223285  0  4.003176  0  0  -0.237812  0  4.025456  0  0  -0.00873  -0.213612  0  3.988099  0
C  C62  1  0.34238498  0.77213571  0.50931072  1  0  -0.266938  0  3.765931  0  0  -0.226656  0  4.008085  0  0  -0.241313  0  4.030519  0  0  -0.00873  -0.21684  0  3.992794  0
C  C63  1  0.62365231  0.22785755  0.49067554  1  0  -0.264515  0  3.761909  0  0  -0.225393  0  4.005444  0  0  -0.24001  0  4.027826  0  0  -0.008464  -0.215605  0  3.990202  0
C  C64  1  0.01955798  0.51549512  0.38685526  1  0  -0.088137  0  3.771774  0  0  -0.100687  0  4.025651  0  0  -0.106848  0  4.048642  0  0  -0.091282  -0.096683  0  4.009916  0
C  C65  1  0.92219873  0.48445337  0.61317134  1  0  -0.08773  0  3.772467  0  0  -0.100347  0  4.026247  0  0  -0.106457  0  4.049292  0  0  -0.091552  -0.096367  0  4.010504  0
C  C66  1  0.46591760  0.61315308  0.51561150  1  0  -0.087544  0  3.771883  0  0  -0.099981  0  4.026024  0  0  -0.106085  0  4.04901  0  0  -0.091358  -0.09603  0  4.010295  0
C  C67  1  0.59297973  0.38692993  0.48429009  1  0  -0.08796  0  3.770754  0  0  -0.100296  0  4.0248  0  0  -0.1064  0  4.047831  0  0  -0.091483  -0.096336  0  4.009041  0
C  C68  1  0.11986932  0.46577688  0.31052735  1  0  -0.010306  0  3.739964  0  0  -0.035804  0  3.982786  0  0  -0.032404  0  4.003028  0  0  -0.062509  -0.037786  0  3.968888  0
C  C69  1  0.89619800  0.53417636  0.68952138  1  0  -0.01063  0  3.737458  0  0  -0.036255  0  3.98082  0  0  -0.0329  0  4.000998  0  0  -0.062748  -0.038178  0  3.966932  0
C  C70  1  0.41500185  0.68945449  0.46589492  1  0  -0.009464  0  3.739033  0  0  -0.035069  0  3.982449  0  0  -0.031675  0  4.002673  0  0  -0.062403  -0.037038  0  3.968543  0
C  C71  1  0.56943171  0.31057991  0.53405541  1  0  -0.00944  0  3.73666  0  0  -0.034824  0  3.979563  0  0  -0.031504  0  3.999823  0  0  -0.062296  -0.036725  0  3.965685  0
O  O72  1  0.83589319  0.81023311  0.38875220  1  0  -0.848868  0  1.93215  0  0  -0.835034  0  2.228862  0  0  -0.875521  0  2.214882  0  0  -0.454431  -0.805517  0  2.237144  0
O  O73  1  0.03445099  0.18976056  0.61122097  1  0  -0.84897  0  1.931842  0  0  -0.835085  0  2.227833  0  0  -0.875592  0  2.214348  0  0  -0.454158  -0.805478  0  2.236147  0
O  O74  1  0.35409079  0.61132983  0.81034228  1  0  -0.849013  0  1.932626  0  0  -0.835062  0  2.228753  0  0  -0.875625  0  2.21504  0  0  -0.454033  -0.805409  0  2.237054  0
O  O75  1  0.77534615  0.38866157  0.18963611  1  0  -0.849882  0  1.931612  0  0  -0.835657  0  2.228037  0  0  -0.876286  0  2.214084  0  0  -0.454205  -0.806262  0  2.236338  0
O  O76  1  0.79448193  0.99799699  0.35639530  1  0  -0.737626  0  1.547456  0  0  -0.740191  0  1.820018  0  0  -0.761991  0  1.803648  0  0  -0.732216  -0.72674  0  1.832128  0
O  O77  1  0.14867320  0.00202156  0.64364876  1  0  -0.738359  0  1.546876  0  0  -0.741074  0  1.818851  0  0  -0.762674  0  1.802674  0  0  -0.731685  -0.72748  0  1.831039  0
O  O78  1  0.20777099  0.64364353  0.99810121  1  0  -0.738102  0  1.546956  0  0  -0.740917  0  1.81919  0  0  -0.762578  0  1.802766  0  0  -0.731826  -0.727366  0  1.831502  0
O  O79  1  0.84894035  0.35640882  0.00188186  1  0  -0.739176  0  1.545352  0  0  -0.741533  0  1.817594  0  0  -0.763466  0  1.801074  0  0  -0.732124  -0.728223  0  1.829613  0
O  O80  1  0.65192425  0.88977590  0.57015249  1  0  -0.710781  0  1.615418  0  0  -0.716687  0  1.903803  0  0  -0.739834  0  1.891008  0  0  -0.725448  -0.702219  0  1.913478  0
O  O81  1  0.11188842  0.11017715  0.42982448  1  0  -0.712312  0  1.615943  0  0  -0.71812  0  1.903792  0  0  -0.741021  0  1.891093  0  0  -0.726188  -0.703544  0  1.913591  0
O  O82  1  0.45831758  0.42989441  0.88976173  1  0  -0.711686  0  1.615276  0  0  -0.717159  0  1.903058  0  0  -0.740183  0  1.890195  0  0  -0.725815  -0.702526  0  1.912819  0
O  O83  1  0.77792763  0.57011393  0.11027639  1  0  -0.711439  0  1.613243  0  0  -0.717278  0  1.901473  0  0  -0.740546  0  1.888523  0  0  -0.725871  -0.702933  0  1.911039  0
O  O84  1  0.78684405  0.06260410  0.55407562  1  0  -0.943721  0  2.104455  0  0  -0.922842  0  2.413318  0  0  -0.961391  0  2.399865  0  0  -0.460457  -0.893958  0  2.420805  0
O  O85  1  0.40354576  0.93734895  0.44580192  1  0  -0.945059  0  2.102583  0  0  -0.923568  0  2.410675  0  0  -0.96233  0  2.397654  0  0  -0.461683  -0.894656  0  2.417979  0
O  O86  1  0.15059936  0.44585866  0.06256943  1  0  -0.943509  0  2.104005  0  0  -0.922464  0  2.413143  0  0  -0.961231  0  2.399828  0  0  -0.460868  -0.893513  0  2.420059  0
O  O87  1  0.65913550  0.55420472  0.93744576  1  0  -0.943125  0  2.104121  0  0  -0.921966  0  2.412952  0  0  -0.960683  0  2.39959  0  0  -0.461067  -0.893157  0  2.420462  0
O  O88  1  0.46562656  0.07908212  0.51258911  1  0  -0.941368  0  2.111412  0  0  -0.920921  0  2.421158  0  0  -0.959299  0  2.407339  0  0  -0.468718  -0.892019  0  2.428757  0
O  O89  1  0.05734264  0.92083481  0.48747977  1  0  -0.941253  0  2.110294  0  0  -0.920667  0  2.419976  0  0  -0.959149  0  2.406355  0  0  -0.469049  -0.891859  0  2.4277  0
O  O90  1  0.45526086  0.48738311  0.07911159  1  0  -0.94216  0  2.111144  0  0  -0.921278  0  2.42085  0  0  -0.960055  0  2.40749  0  0  -0.469039  -0.892468  0  2.428354  0
O  O91  1  0.02185295  0.51255516  0.92091908  1  0  -0.94209  0  2.112228  0  0  -0.921288  0  2.421776  0  0  -0.95992  0  2.408154  0  0  -0.468692  -0.892307  0  2.429074  0
O  O92  1  0.06190604  0.80853326  0.22996235  1  0  -0.849349  0  1.939867  0  0  -0.831263  0  2.220102  0  0  -0.870789  0  2.205005  0  0  -0.419016  -0.801655  0  2.228695  0
O  O93  1  0.10077673  0.19142389  0.76988337  1  0  -0.849957  0  1.940732  0  0  -0.831659  0  2.22121  0  0  -0.871163  0  2.206163  0  0  -0.418858  -0.801916  0  2.22974  0
O  O94  1  0.12956304  0.77009647  0.80858036  1  0  -0.849612  0  1.939391  0  0  -0.831233  0  2.219679  0  0  -0.87079  0  2.204604  0  0  -0.418356  -0.801454  0  2.228316  0
O  O95  1  0.70793419  0.22987622  0.19135051  1  0  -0.850658  0  1.937568  0  0  -0.83229  0  2.217846  0  0  -0.871829  0  2.202728  0  0  -0.419144  -0.80259  0  2.226469  0
O  O96  1  0.69491248  0.79343097  0.25529517  1  0  -0.872979  0  2.012787  0  0  -0.852993  0  2.305452  0  0  -0.893439  0  2.290695  0  0  -0.436069  -0.822861  0  2.313862  0
O  O97  1  0.74379841  0.20643084  0.74489065  1  0  -0.872887  0  2.012959  0  0  -0.853115  0  2.306091  0  0  -0.893496  0  2.291361  0  0  -0.435829  -0.822925  0  2.314544  0
O  O98  1  0.51157314  0.74484552  0.79360188  1  0  -0.875386  0  2.013427  0  0  -0.855701  0  2.307012  0  0  -0.896119  0  2.292159  0  0  -0.437421  -0.825434  0  2.315554  0
O  O99  1  0.04959254  0.25518683  0.20646676  1  0  -0.873499  0  2.011312  0  0  -0.853683  0  2.304589  0  0  -0.894088  0  2.289734  0  0  -0.436143  -0.823509  0  2.313103  0
O  O100  1  0.28639602  0.83815664  0.34850824  1  0  -0.867029  0  2.093837  0  0  -0.831892  0  2.386158  0  0  -0.865155  0  2.367588  0  0  -0.411959  -0.807477  0  2.397634  0
O  O101  1  0.47345857  0.16175050  0.65150866  1  0  -0.868099  0  2.094825  0  0  -0.8328  0  2.387208  0  0  -0.866  0  2.368538  0  0  -0.412307  -0.808315  0  2.398718  0
O  O102  1  0.87540872  0.65156473  0.83836443  1  0  -0.868617  0  2.094806  0  0  -0.83302  0  2.387298  0  0  -0.866224  0  2.368592  0  0  -0.41212  -0.808521  0  2.398932  0
O  O103  1  0.36491069  0.34839224  0.16165582  1  0  -0.868111  0  2.096144  0  0  -0.832402  0  2.388173  0  0  -0.865577  0  2.369471  0  0  -0.411561  -0.808025  0  2.39981  0
O  O104  1  0.31457137  0.79610567  0.05076086  1  0  -0.865449  0  1.812793  0  0  -0.841939  0  1.959225  0  0  -0.863641  0  1.926947  0  0  -0.588337  -0.826039  0  1.981519  0
O  O105  1  0.16141383  0.20403553  0.94920089  1  0  -0.866589  0  1.810981  0  0  -0.843004  0  1.957655  0  0  -0.864661  0  1.925376  0  0  -0.589178  -0.827047  0  1.979976  0
O  O106  1  0.88928680  0.94931221  0.79613354  1  0  -0.864865  0  1.812858  0  0  -0.841613  0  1.958837  0  0  -0.863314  0  1.926572  0  0  -0.588743  -0.825589  0  1.981198  0
O  O107  1  0.63433203  0.05063233  0.20391376  1  0  -0.86706  0  1.810024  0  0  -0.843409  0  1.956667  0  0  -0.865119  0  1.924351  0  0  -0.589511  -0.827438  0  1.978985  0
O  O108  1  0.43176759  0.68268238  0.22290455  1  0  -0.683576  0  1.539181  0  0  -0.693192  0  1.816824  0  0  -0.714492  0  1.807215  0  0  -0.742501  -0.681098  0  1.824251  0
O  O109  1  0.33770120  0.31728356  0.77699846  1  0  -0.68374  0  1.539602  0  0  -0.693103  0  1.817181  0  0  -0.714374  0  1.807665  0  0  -0.742726  -0.680908  0  1.82468  0
O  O110  1  0.88536178  0.77702780  0.68281460  1  0  -0.68426  0  1.538165  0  0  -0.693749  0  1.816053  0  0  -0.715091  0  1.806405  0  0  -0.742737  -0.681417  0  1.823678  0
O  O111  1  0.34504475  0.22301213  0.31718179  1  0  -0.684162  0  1.538337  0  0  -0.693626  0  1.816225  0  0  -0.714973  0  1.806604  0  0  -0.74247  -0.681404  0  1.823738  0
O  O112  1  0.71830857  0.75158199  0.07986876  1  0  -0.867039  0  1.841277  0  0  -0.841208  0  2.002469  0  0  -0.864342  0  1.970847  0  0  -0.601449  -0.824345  0  2.024094  0
O  O113  1  0.54973208  0.24849435  0.92019423  1  0  -0.867043  0  1.841373  0  0  -0.841102  0  2.002527  0  0  -0.864197  0  1.970897  0  0  -0.601136  -0.824184  0  2.024226  0
O  O114  1  0.53020807  0.92020032  0.75152812  1  0  -0.864799  0  1.843035  0  0  -0.838706  0  2.004344  0  0  -0.861848  0  1.972707  0  0  -0.599859  -0.821716  0  2.026052  0
O  O115  1  0.20144810  0.07987881  0.24846343  1  0  -0.865347  0  1.843185  0  0  -0.839232  0  2.004705  0  0  -0.862406  0  1.9731  0  0  -0.600513  -0.822288  0  2.026351  0
O  O116  1  0.40392052  0.91917637  0.17254613  1  0  -0.780856  0  1.533519  0  0  -0.783409  0  1.794084  0  0  -0.80781  0  1.777392  0  0  -0.738554  -0.768483  0  1.806289  0
O  O117  1  0.49570449  0.08081257  0.82752735  1  0  -0.781443  0  1.532705  0  0  -0.784027  0  1.793383  0  0  -0.808395  0  1.776725  0  0  -0.738696  -0.768977  0  1.805685  0
O  O118  1  0.67677598  0.82756737  0.91926187  1  0  -0.781661  0  1.531772  0  0  -0.784068  0  1.792424  0  0  -0.808521  0  1.775686  0  0  -0.738601  -0.76889  0  1.804821  0
O  O119  1  0.42300162  0.17244643  0.08076531  1  0  -0.781836  0  1.531359  0  0  -0.784222  0  1.792176  0  0  -0.808647  0  1.775422  0  0  -0.739124  -0.769168  0  1.804492  0
