# generated using pymatgen
data_Zn2H15C16O9
_symmetry_space_group_name_H-M   'P 1'
_cell_length_a   18.26501734
_cell_length_b   18.30096796
_cell_length_c   18.31278194
_cell_angle_alpha   60.25660848
_cell_angle_beta   60.08727571
_cell_angle_gamma   60.08680762
_symmetry_Int_Tables_number   1
_chemical_formula_structural   Zn2H15C16O9
_chemical_formula_sum   'Zn8 H60 C64 O36'
_cell_volume   4342.51152594
_cell_formula_units_Z   4
loop_
 _symmetry_equiv_pos_site_id
 _symmetry_equiv_pos_as_xyz
  1  'x, y, z'
loop_
 _atom_site_type_symbol
 _atom_site_label
 _atom_site_symmetry_multiplicity
 _atom_site_fract_x
 _atom_site_fract_y
 _atom_site_fract_z
 _atom_site_occupancy
 _atom_site_pbe_bader_charge
 _atom_site_pbe_bader_spin_density
 _atom_site_pbe_cm5_charge
 _atom_site_pbe_ddec_charge
 _atom_site_pbe_ddec_spin_density
 _atom_site_pbe_ddec_sum_bond_order
 _atom_site_pbe_magmom
Zn  Zn0  1  0.70512168  0.38261597  0.20248647  1  1.311039  0  0.670651  0.956132  0  2.385611  0
Zn  Zn1  1  0.29181949  0.79210897  0.79580534  1  1.311732  0  0.669676  0.949363  0  2.399758  0
Zn  Zn2  1  0.87667792  0.21055699  0.20919391  1  1.294045  0  0.671239  0.94994  0  2.409821  0
Zn  Zn3  1  0.70342466  0.20680493  0.20823996  1  1.312997  0  0.677948  0.968991  0  2.350239  0
Zn  Zn4  1  0.11933928  0.79575377  0.79400920  1  1.30207  0  0.672933  0.955983  0  2.39422  0
Zn  Zn5  1  0.70006586  0.21017224  0.38309425  1  1.311095  0  0.673179  0.970026  0  2.347127  0
Zn  Zn6  1  0.29548350  0.61764430  0.78721964  1  1.320035  0  0.672107  0.968061  0  2.34548  0
Zn  Zn7  1  0.29160126  0.79463096  0.61818925  1  1.31081  0  0.674259  0.964107  0  2.375246  0
H  H8  1  0.47930400  0.36654100  0.54350303  1  0.028663  0  0.094502  0.095452  0  0.98132  0
H  H9  1  0.49383590  0.57024281  0.34176686  1  0.035013  0  0.089203  0.084739  0  0.993795  0
H  H10  1  0.77869826  0.92159922  0.51373579  1  0.065015  0  0.10604  0.113737  0  0.986357  0
H  H11  1  0.74450338  0.95741942  0.42156493  1  0.047999  0  0.097051  0.098026  0  1.006319  0
H  H12  1  0.74132503  0.85157617  0.50701808  1  0.028568  0  0.095318  0.088592  0  0.990154  0
H  H13  1  0.11266156  0.59257406  0.04044564  1  0.007745  0  0.092091  0.087063  0  1.024959  0
H  H14  1  0.20430052  0.50387366  0.07730841  1  0.058773  0  0.108108  0.118433  0  0.973379  0
H  H15  1  0.09083580  0.50620103  0.14596387  1  0.031911  0  0.093277  0.086761  0  0.994595  0
H  H16  1  0.21471991  0.07005373  0.48746990  1  0.064631  0  0.104688  0.111347  0  0.990058  0
H  H17  1  0.12486906  0.03451024  0.58124683  1  0.045294  0  0.095369  0.094229  0  1.003828  0
H  H18  1  0.10021112  0.13990955  0.49560255  1  0.041815  0  0.093964  0.086763  0  0.994425  0
H  H19  1  0.74304058  0.08453584  0.07149647  1  0.049462  0  0.092954  0.091086  0  1.022945  0
H  H20  1  0.40975137  0.66165590  0.43073350  1  0.012799  0  0.092185  0.092258  0  0.979007  0
H  H21  1  0.70716616  0.99536943  0.16568119  1  0.081604  0  0.109372  0.120559  0  0.966085  0
H  H22  1  0.77973302  0.97778031  0.05992571  1  0.051863  0  0.095926  0.094554  0  1.018509  0
H  H23  1  0.94769916  0.78407309  0.14509830  1  0.039189  0  0.096428  0.092814  0  0.990139  0
H  H24  1  0.04292873  0.76324676  0.04841963  1  0.022977  0  0.09106  0.084234  0  1.013497  0
H  H25  1  0.94166467  0.75070542  0.07122831  1  0.073814  0  0.110472  0.120505  0  0.969299  0
H  H26  1  0.34042111  0.54034866  0.55081883  1  -0.026254  0  0.091323  0.086442  0  0.977605  0
H  H27  1  0.42780326  0.44916060  0.46231062  1  0.012476  0  0.09142  0.086279  0  0.978357  0
H  H28  1  0.62026446  0.36710311  0.53736814  1  0.048456  0  0.093512  0.094769  0  0.985562  0
H  H29  1  0.66589549  0.45244414  0.45415899  1  0.026925  0  0.089278  0.082893  0  0.980143  0
H  H30  1  0.57869408  0.53833478  0.54782253  1  0.002621  0  0.089927  0.083605  0  0.979829  0
H  H31  1  0.59255895  0.57087667  0.33584054  1  0.03915  0  0.089744  0.087444  0  0.982779  0
H  H32  1  0.52979662  0.45511139  0.63033568  1  0.041135  0  0.092926  0.093224  0  0.985483  0
H  H33  1  0.49831584  0.44530518  0.90151266  1  0.094023  0  0.111472  0.134604  0  0.99138  0
H  H34  1  0.38349074  0.01765783  0.45672646  1  0.090771  0  0.109903  0.129174  0  1.005678  0
H  H35  1  0.86090990  0.54080050  0.97610852  1  0.081122  0  0.113331  0.137793  0  0.983195  0
H  H36  1  0.85218438  0.98195272  0.54627705  1  0.100351  0  0.109759  0.128003  0  1.008822  0
H  H37  1  0.50840706  0.65877216  0.42837687  1  0.00364  0  0.09078  0.08983  0  0.980929  0
H  H38  1  0.15283518  0.00223096  0.90397510  1  0.091833  0  0.10838  0.115735  0  0.988177  0
H  H39  1  0.05574479  0.10259057  0.99750155  1  0.09266  0  0.109591  0.116378  0  0.984969  0
H  H40  1  0.55007157  0.28820056  0.96678260  1  0.049502  0  0.09706  0.091517  0  0.999297  0
H  H41  1  0.56856695  0.23304684  0.07240335  1  0.063365  0  0.09904  0.099811  0  0.988076  0
H  H42  1  0.66040529  0.21811962  0.97214409  1  0.072893  0  0.10739  0.111289  0  0.982182  0
H  H43  1  0.38982496  0.45751809  0.63351679  1  0.05518  0  0.094263  0.09601  0  0.983049  0
H  H44  1  0.41205836  0.23759298  0.38485968  1  0.036063  0  0.09657  0.094459  0  0.985688  0
H  H45  1  0.33974145  0.19233939  0.39269197  1  0.03575  0  0.091072  0.081624  0  1.005309  0
H  H46  1  0.40269791  0.25165531  0.28533521  1  0.038048  0  0.108643  0.116194  0  0.97223  0
H  H47  1  0.95145500  0.58610037  0.79122178  1  0.035738  0  0.093328  0.088085  0  0.993528  0
H  H48  1  0.05823805  0.59391069  0.75990007  1  0.064445  0  0.095891  0.09593  0  0.987682  0
H  H49  1  0.96973930  0.69217024  0.72639737  1  0.101308  0  0.106642  0.117714  0  1.005371  0
H  H50  1  0.81256490  0.92445252  0.71600238  1  0.055802  0  0.093887  0.089468  0  0.994618  0
H  H51  1  0.89191042  0.91473181  0.75434236  1  0.046348  0  0.0982  0.104075  0  0.992899  0
H  H52  1  0.86923454  0.81770441  0.78225153  1  0.075054  0  0.107159  0.118233  0  0.998485  0
H  H53  1  0.37541782  0.72202706  0.99251652  1  0.068132  0  0.096155  0.135603  0  0.986403  0
H  H54  1  0.28974788  0.68119967  0.02902437  1  0.04085  0  0.090994  0.13116  0  1.001909  0
H  H55  1  0.33414886  0.66086239  0.10740164  1  0.061685  0  0.093814  0.128973  0  1.008798  0
H  H56  1  0.53262820  0.78984714  0.67432524  1  0.035449  0  0.091783  0.131211  0  0.99782  0
H  H57  1  0.60666489  0.83716685  0.65887174  1  0.068513  0  0.091857  0.124495  0  1.024342  0
H  H58  1  0.49150285  0.87077907  0.72317346  1  0.070529  0  0.098321  0.143199  0  0.978431  0
H  H59  1  0.98968135  0.34541996  0.21449057  1  0.026539  0  0.090337  0.125029  0  1.007641  0
H  H60  1  0.07648419  0.28736174  0.14022448  1  0.059411  0  0.099748  0.145974  0  0.980379  0
H  H61  1  0.09818607  0.35577326  0.16464684  1  0.051745  0  0.09264  0.126379  0  1.019699  0
H  H62  1  0.99434655  0.20984653  0.33662305  1  0.04524  0  0.089788  0.125237  0  1.014478  0
H  H63  1  0.10214231  0.15688061  0.34937989  1  0.044656  0  0.091259  0.123322  0  1.024913  0
H  H64  1  0.07880566  0.13068232  0.28370828  1  0.07151  0  0.099456  0.144408  0  0.978199  0
H  H65  1  0.57935639  0.58434285  0.08207272  1  0.061618  0  0.096666  0.103828  0  1.005032  0
H  H66  1  0.49323253  0.61829479  0.17620436  1  0.054519  0  0.106325  0.113934  0  0.981221  0
H  H67  1  0.47670726  0.67433102  0.06997739  1  0.048196  0  0.094286  0.088666  0  1.010367  0
C  C68  1  0.88152228  0.11434672  0.39437772  1  1.564587  0  0.229698  0.611765  0  4.147403  0
C  C69  1  0.44896652  0.94206513  0.55561566  1  -0.001812  0  -0.017223  -0.067037  0  3.972036  0
C  C70  1  0.91436854  0.99080415  0.52865602  1  -0.013063  0  -0.098659  -0.227384  0  4.000146  0
C  C71  1  0.59730751  0.26553645  0.00029687  1  0.371675  0  -0.133251  -0.162243  0  3.920637  0
C  C72  1  0.40342965  0.20632071  0.35271617  1  0.432141  0  -0.134866  -0.161007  0  3.929723  0
C  C73  1  0.98522290  0.62868458  0.77951054  1  0.351277  0  -0.13742  -0.168252  0  3.908107  0
C  C74  1  0.87556709  0.88159173  0.73083974  1  0.376726  0  -0.138186  -0.166704  0  3.897406  0
C  C75  1  0.35103754  0.66523390  0.03919233  1  -0.072688  0  -0.24207  -0.399609  0  3.996404  0
C  C76  1  0.94521894  0.45015302  0.05812430  1  -0.000611  0  -0.016895  -0.065242  0  3.974067  0
C  C77  1  0.53905619  0.85123845  0.66350791  1  -0.077801  0  -0.241798  -0.397811  0  3.993066  0
C  C78  1  0.04794942  0.35034505  0.15322525  1  -0.028151  0  -0.241663  -0.400921  0  3.99361  0
C  C79  1  0.05038714  0.14698348  0.34478919  1  -0.04323  0  -0.242152  -0.398127  0  3.996366  0
C  C80  1  0.50664155  0.60983387  0.11498513  1  0.385292  0  -0.138329  -0.167212  0  3.903754  0
C  C81  1  0.73177417  0.92101684  0.49354613  1  0.408297  0  -0.13485  -0.165204  0  3.913801  0
C  C82  1  0.13783216  0.52083138  0.07690311  1  0.446404  0  -0.137224  -0.169701  0  3.925607  0
C  C83  1  0.94035323  0.05892425  0.45100098  1  -0.049313  0  -0.015507  -0.062333  0  3.964074  0
C  C84  1  0.14676260  0.07049426  0.50898771  1  0.39334  0  -0.135476  -0.166169  0  3.927464  0
C  C85  1  0.76231788  0.01176715  0.10465768  1  0.376622  0  -0.139507  -0.170044  0  3.902804  0
C  C86  1  0.96918814  0.78928716  0.07526750  1  0.417401  0  -0.134073  -0.163389  0  3.91667  0
C  C87  1  0.43027716  0.54848971  0.96072405  1  -0.066251  0  -0.017072  -0.063525  0  3.977264  0
C  C88  1  0.42048219  0.57915183  0.02341200  1  0.014357  0  -0.01258  0.045003  0  3.9323  0
C  C89  1  0.51940851  0.92433993  0.58078934  1  0.104647  0  -0.007451  0.055882  0  3.921453  0
C  C90  1  0.02169567  0.42857525  0.07604377  1  0.013753  0  -0.009225  0.05386  0  3.934616  0
C  C91  1  0.88655377  0.39340026  0.11380027  1  1.551144  0  0.229941  0.616016  0  4.151132  0
C  C92  1  0.02020173  0.07333469  0.42577417  1  0.048829  0  -0.008242  0.054045  0  3.924159  0
C  C93  1  0.47733490  0.52339605  0.07514954  1  0.576629  0  0.085905  0.1856  0  4.002838  0
C  C94  1  0.57474377  0.97750391  0.52294822  1  0.464655  0  0.086988  0.184761  0  3.996735  0
C  C95  1  0.07337790  0.48521613  0.01898819  1  0.515374  0  0.084889  0.181295  0  4.00347  0
C  C96  1  0.07282144  0.01559063  0.48147404  1  0.489362  0  0.087424  0.186448  0  3.994113  0
C  C97  1  0.38510475  0.89079442  0.61265209  1  1.549609  0  0.228944  0.612269  0  4.148758  0
C  C98  1  0.54151900  0.44095450  0.06486024  1  0.001624  0  -0.024951  -0.225715  0  3.94909  0
C  C99  1  0.56020434  0.04665286  0.44427673  1  0.001841  0  -0.023145  -0.224184  0  3.947418  0
C  C100  1  0.05193073  0.55859760  0.94541123  1  -0.007587  0  -0.024477  -0.226618  0  3.961625  0
C  C101  1  0.04856063  0.94528320  0.55841596  1  0.025238  0  -0.023417  -0.223411  0  3.946963  0
C  C102  1  0.37881766  0.60574903  0.89700089  1  1.553107  0  0.228527  0.610589  0  4.151993  0
C  C103  1  0.91444290  0.99320601  0.06703617  1  0.525199  0  0.085072  0.137347  0  4.030739  0
C  C104  1  0.96851527  0.93774070  0.01349484  1  0.587979  0  0.084612  0.135576  0  4.012318  0
C  C105  1  0.05418656  0.94245558  0.95375400  1  -0.069577  0  -0.021691  -0.122191  0  3.980359  0
C  C106  1  0.94562894  0.05438945  0.05856732  1  -0.022339  0  -0.017814  -0.113471  0  3.974633  0
C  C107  1  0.08575459  0.00096175  0.94937245  1  -0.037221  0  -0.089369  -0.096262  0  4.016372  0
C  C108  1  0.03209245  0.05639751  0.00108744  1  0.021063  0  -0.087848  -0.095486  0  4.016503  0
C  C109  1  0.60258766  0.38401303  0.11909020  1  1.585831  0  0.234206  0.649766  0  4.142775  0
C  C110  1  0.61579543  0.10665943  0.38736619  1  1.573173  0  0.229441  0.636732  0  4.169017  0
C  C111  1  0.11021812  0.61573679  0.88428375  1  1.586689  0  0.231064  0.640763  0  4.170159  0
C  C112  1  0.10663572  0.88452561  0.61560652  1  1.583395  0  0.231028  0.637538  0  4.168299  0
C  C113  1  0.88803628  0.11728869  0.11076429  1  1.585884  0  0.232525  0.629785  0  4.147706  0
C  C114  1  0.11267407  0.88778738  0.89313054  1  1.58714  0  0.225228  0.612757  0  4.180543  0
C  C115  1  0.60880509  0.39655789  0.38356908  1  1.553562  0  0.236331  0.60575  0  4.091161  0
C  C116  1  0.39708764  0.61386206  0.60343627  1  1.535515  0  0.236035  0.603653  0  4.095963  0
C  C117  1  0.46345964  0.43755209  0.50292192  1  -0.025686  0  -0.155835  -0.170811  0  3.852272  0
C  C118  1  0.52992161  0.55682054  0.38276440  1  -0.027704  0  -0.164756  -0.177672  0  3.888289  0
C  C119  1  0.47346378  0.61615778  0.44295820  1  0.015714  0  -0.164374  -0.178762  0  3.881911  0
C  C120  1  0.40492454  0.49775570  0.56245698  1  0.039996  0  -0.156604  -0.172077  0  3.853048  0
C  C121  1  0.60266245  0.43845239  0.49820982  1  -0.01404  0  -0.157407  -0.170668  0  3.857599  0
C  C122  1  0.54401994  0.49665722  0.55965585  1  -0.035672  0  -0.157475  -0.1717  0  3.860235  0
C  C123  1  0.55205022  0.45770243  0.44015008  1  0.025046  0  -0.016576  0.020402  0  3.808493  0
C  C124  1  0.45420480  0.55778970  0.54180879  1  0.035604  0  -0.016315  0.021484  0  3.808913  0
C  C125  1  0.54942728  0.41271552  0.00178405  1  0.49202  0  0.084659  0.246948  0  4.073223  0
C  C126  1  0.49064381  0.06109311  0.42052829  1  0.542516  0  0.082367  0.243596  0  4.067947  0
C  C127  1  0.97529029  0.57821116  0.92962278  1  0.538194  0  0.082095  0.241648  0  4.072702  0
C  C128  1  0.96855477  0.93313396  0.58170902  1  0.507348  0  0.083363  0.24615  0  4.069158  0
C  C129  1  0.49246282  0.46580621  0.95132234  1  0.007075  0  -0.100956  -0.233953  0  3.999772  0
C  C130  1  0.43618865  0.00819817  0.47576550  1  -0.069265  0  -0.09946  -0.227095  0  4.003202  0
C  C131  1  0.92146551  0.52479590  0.98694293  1  0.00625  0  -0.096652  -0.223775  0  3.994832  0
O  O132  1  0.74602374  0.25219757  0.25203355  1  -1.209033  0  -0.575843  -1.033151  0  2.553876  0
O  O133  1  0.80227661  0.43412064  0.13126091  1  -1.175608  0  -0.314645  -0.543441  0  2.321607  0
O  O134  1  0.35335712  0.87894425  0.57242729  1  -1.161854  0  -0.316191  -0.548531  0  2.325372  0
O  O135  1  0.35495965  0.56633506  0.87538298  1  -1.148763  0  -0.314381  -0.546138  0  2.311468  0
O  O136  1  0.64661432  0.42146977  0.11751502  1  -1.163883  0  -0.308242  -0.544819  0  2.343858  0
O  O137  1  0.61532429  0.14945427  0.42531763  1  -1.158212  0  -0.311165  -0.54147  0  2.307073  0
O  O138  1  0.19079370  0.57832307  0.84217382  1  -1.16821  0  -0.310498  -0.540777  0  2.307957  0
O  O139  1  0.18913959  0.84809611  0.57719019  1  -1.170386  0  -0.309947  -0.537106  0  2.327148  0
O  O140  1  0.25068613  0.74891199  0.74919707  1  -1.22675  0  -0.574457  -1.032071  0  2.549842  0
O  O141  1  0.92566171  0.30898278  0.13790156  1  -1.180824  0  -0.309442  -0.539978  0  2.351676  0
O  O142  1  0.92054860  0.14355753  0.31059411  1  -1.17624  0  -0.307058  -0.533923  0  2.375612  0
O  O143  1  0.36536273  0.68921847  0.86767235  1  -1.176602  0  -0.309369  -0.536859  0  2.359469  0
O  O144  1  0.36617333  0.86447830  0.69689651  1  -1.163334  0  -0.307712  -0.536134  0  2.366204  0
O  O145  1  0.65799945  0.11012262  0.30609728  1  -1.164365  0  -0.309755  -0.542004  0  2.324281  0
O  O146  1  0.60624124  0.30267847  0.16169384  1  -1.164441  0  -0.308641  -0.54241  0  2.308497  0
O  O147  1  0.06779974  0.87560850  0.69850005  1  -1.15605  0  -0.307113  -0.54084  0  2.352502  0
O  O148  1  0.07297128  0.69728527  0.88056741  1  -1.160222  0  -0.310027  -0.541825  0  2.334093  0
O  O149  1  0.92798104  0.13046438  0.14161822  1  -1.160786  0  -0.313921  -0.541703  0  2.317414  0
O  O150  1  0.19724496  0.86067830  0.87642184  1  -1.167974  0  -0.317572  -0.550133  0  2.322115  0
O  O151  1  0.63484545  0.31292012  0.42555225  1  -1.177389  0  -0.316911  -0.554284  0  2.343572  0
O  O152  1  0.62558688  0.43322346  0.29938046  1  -1.177002  0  -0.312174  -0.54532  0  2.35794  0
O  O153  1  0.37459257  0.69840980  0.56715909  1  -1.161568  0  -0.310551  -0.54067  0  2.360528  0
O  O154  1  0.37629327  0.57132095  0.68731215  1  -1.18721  0  -0.317643  -0.555198  0  2.340251  0
O  O155  1  0.80545891  0.15420820  0.11780111  1  -1.168524  0  -0.309875  -0.543519  0  2.34426  0
O  O156  1  0.79754863  0.12676357  0.43398110  1  -1.163463  0  -0.315787  -0.547842  0  2.309738  0
O  O157  1  0.07410693  0.87437935  0.86149787  1  -1.174559  0  -0.309717  -0.532736  0  2.367644  0
O  O158  1  0.61980623  0.33765858  0.98541065  1  -1.080586  0  -0.208773  -0.191012  0  2.531132  0
O  O159  1  0.47812122  0.12658749  0.34192906  1  -1.071745  0  -0.21329  -0.198187  0  2.520171  0
O  O160  1  0.95349836  0.65078462  0.85796366  1  -1.084146  0  -0.212918  -0.20467  0  2.524005  0
O  O161  1  0.94818854  0.86041953  0.65328553  1  -1.078337  0  -0.214087  -0.210057  0  2.532983  0
O  O162  1  0.46669152  0.54532495  0.14280773  1  -1.072225  0  -0.215618  -0.202466  0  2.52989  0
O  O163  1  0.64344098  0.96275951  0.54609000  1  -1.070808  0  -0.208874  -0.188426  0  2.534968  0
O  O164  1  0.14902429  0.46658543  0.03387067  1  -1.069478  0  -0.20915  -0.185996  0  2.528353  0
O  O165  1  0.15146847  0.02770241  0.45830071  1  -1.071012  0  -0.208798  -0.185153  0  2.539059  0
O  O166  1  0.83637437  0.98116433  0.13330454  1  -1.072288  0  -0.208157  -0.183599  0  2.554961  0
O  O167  1  0.93463630  0.88021548  0.02282632  1  -1.071195  0  -0.203119  -0.174967  0  2.57226  0
