# generated using pymatgen
data_SrH9C9SNO5
_symmetry_space_group_name_H-M   'P 1'
_cell_length_a   5.98953718
_cell_length_b   11.37861178
_cell_length_c   17.11027595
_cell_angle_alpha   89.99923208
_cell_angle_beta   90.00049509
_cell_angle_gamma   91.94772684
_symmetry_Int_Tables_number   1
_chemical_formula_structural   SrH9C9SNO5
_chemical_formula_sum   'Sr4 H36 C36 S4 N4 O20'
_cell_volume   1165.43638863
_cell_formula_units_Z   4
loop_
 _symmetry_equiv_pos_site_id
 _symmetry_equiv_pos_as_xyz
  1  'x, y, z'
loop_
 _atom_site_type_symbol
 _atom_site_label
 _atom_site_symmetry_multiplicity
 _atom_site_fract_x
 _atom_site_fract_y
 _atom_site_fract_z
 _atom_site_occupancy
 _atom_site_hle17_bader_spin_density
 _atom_site_hle17_ddec_charge
 _atom_site_hle17_ddec_spin_density
 _atom_site_hle17_ddec_sum_bond_order
 _atom_site_hle17_magmom
 _atom_site_hse06_10hf_bader_spin_density
 _atom_site_hse06_10hf_ddec_charge
 _atom_site_hse06_10hf_ddec_spin_density
 _atom_site_hse06_10hf_ddec_sum_bond_order
 _atom_site_hse06_10hf_magmom
 _atom_site_hse06_bader_spin_density
 _atom_site_hse06_ddec_charge
 _atom_site_hse06_ddec_spin_density
 _atom_site_hse06_ddec_sum_bond_order
 _atom_site_hse06_magmom
 _atom_site_pbe_bader_spin_density
 _atom_site_pbe_cm5_charge
 _atom_site_pbe_ddec_charge
 _atom_site_pbe_ddec_spin_density
 _atom_site_pbe_ddec_sum_bond_order
 _atom_site_pbe_magmom
Sr  Sr0  1  0.78238864  0.09851935  0.50064434  1  0  1.611898  0  1.150124  0  0  1.474099  0  1.519653  0  0  1.514383  0  1.473009  0  0  0.969321  1.444192  0  1.553136  0
Sr  Sr1  1  0.71760569  0.40148206  0.00064218  1  0  1.611921  0  1.150139  0  0  1.474152  0  1.519632  0  0  1.514433  0  1.472988  0  0  0.96935  1.444248  0  1.553105  0
Sr  Sr2  1  0.21759879  0.90149400  0.49935410  1  0  1.611918  0  1.150069  0  0  1.474233  0  1.519403  0  0  1.514514  0  1.472765  0  0  0.969367  1.444352  0  1.552884  0
Sr  Sr3  1  0.28240929  0.59851642  0.99935685  1  0  1.611911  0  1.150181  0  0  1.474176  0  1.519621  0  0  1.514452  0  1.472979  0  0  0.969342  1.444276  0  1.553094  0
H  H4  1  0.33913565  0.75410260  0.67861506  1  0  0.108949  0  0.970118  0  0  0.112834  0  1.044725  0  0  0.116963  0  1.04108  0  0  0.10962  0.110071  0  1.046874  0
H  H5  1  0.16086692  0.74588860  0.17862113  1  0  0.108944  0  0.970094  0  0  0.112848  0  1.044675  0  0  0.116971  0  1.041049  0  0  0.109609  0.110075  0  1.04684  0
H  H6  1  0.66085419  0.24589405  0.32138748  1  0  0.108931  0  0.970237  0  0  0.112814  0  1.044845  0  0  0.116942  0  1.041203  0  0  0.109634  0.110049  0  1.047  0
H  H7  1  0.83913254  0.25410104  0.82138608  1  0  0.108917  0  0.97019  0  0  0.112819  0  1.044767  0  0  0.116957  0  1.041094  0  0  0.10961  0.110049  0  1.046937  0
H  H8  1  0.38975082  0.64216794  0.81347027  1  0  0.119248  0  0.948464  0  0  0.128534  0  1.010643  0  0  0.132117  0  1.008162  0  0  0.116978  0.125956  0  1.01248  0
H  H9  1  0.11024834  0.85782325  0.31347460  1  0  0.119282  0  0.948409  0  0  0.128577  0  1.010578  0  0  0.132163  0  1.008094  0  0  0.116992  0.125953  0  1.012478  0
H  H10  1  0.61025940  0.35783492  0.18653460  1  0  0.11929  0  0.948332  0  0  0.128516  0  1.010588  0  0  0.1321  0  1.00811  0  0  0.11699  0.125945  0  1.012422  0
H  H11  1  0.88975108  0.14216552  0.68653202  1  0  0.119297  0  0.94837  0  0  0.128521  0  1.010622  0  0  0.132103  0  1.008145  0  0  0.116994  0.125948  0  1.012459  0
H  H12  1  0.20896013  0.32469640  0.48582212  1  0  0.042736  0  0.927726  0  0  0.053824  0  0.994071  0  0  0.05555  0  0.989515  0  0  0.129804  0.052356  0  0.997516  0
H  H13  1  0.29101615  0.17529541  0.98582771  1  0  0.042735  0  0.927627  0  0  0.053833  0  0.99397  0  0  0.055561  0  0.989418  0  0  0.129776  0.052364  0  0.99742  0
H  H14  1  0.79103806  0.67530027  0.51417048  1  0  0.042556  0  0.927594  0  0  0.053667  0  0.993933  0  0  0.055395  0  0.989374  0  0  0.129702  0.052196  0  0.997386  0
H  H15  1  0.70897368  0.82470124  0.01417541  1  0  0.042768  0  0.927518  0  0  0.053846  0  0.993884  0  0  0.055578  0  0.989325  0  0  0.129769  0.052377  0  0.997339  0
H  H16  1  0.04491103  0.49662852  0.28877927  1  0  0.104634  0  0.927953  0  0  0.125788  0  0.988639  0  0  0.125386  0  0.990387  0  0  0.106444  0.126073  0  0.987338  0
H  H17  1  0.45507474  0.00337950  0.78877989  1  0  0.104598  0  0.928002  0  0  0.125768  0  0.988691  0  0  0.125366  0  0.990437  0  0  0.106449  0.12606  0  0.987384  0
H  H18  1  0.95508230  0.50337078  0.71121742  1  0  0.104616  0  0.92799  0  0  0.125748  0  0.988693  0  0  0.125345  0  0.990444  0  0  0.106453  0.126029  0  0.987395  0
H  H19  1  0.54492085  0.99663035  0.21121797  1  0  0.104594  0  0.927976  0  0  0.125713  0  0.988687  0  0  0.125309  0  0.990438  0  0  0.106451  0.126003  0  0.987384  0
H  H20  1  0.81794967  0.43903872  0.34719765  1  0  0.10309  0  0.966899  0  0  0.121466  0  1.034487  0  0  0.122426  0  1.034155  0  0  0.107181  0.120611  0  1.034948  0
H  H21  1  0.68203510  0.06096993  0.84719692  1  0  0.10306  0  0.966975  0  0  0.121447  0  1.034563  0  0  0.122405  0  1.034231  0  0  0.107158  0.120598  0  1.035015  0
H  H22  1  0.18205033  0.56096059  0.65279962  1  0  0.103044  0  0.96688  0  0  0.121446  0  1.034446  0  0  0.122403  0  1.034116  0  0  0.107186  0.120592  0  1.034897  0
H  H23  1  0.31795881  0.93903992  0.15280152  1  0  0.103073  0  0.966907  0  0  0.121441  0  1.034507  0  0  0.1224  0  1.034174  0  0  0.107162  0.120586  0  1.034966  0
H  H24  1  0.93257464  0.58431224  0.36439678  1  0  0.093292  0  0.957383  0  0  0.113543  0  1.021586  0  0  0.112598  0  1.023901  0  0  0.100391  0.114125  0  1.02005  0
H  H25  1  0.56742090  0.91569554  0.86439544  1  0  0.093325  0  0.957384  0  0  0.113592  0  1.021582  0  0  0.112649  0  1.023891  0  0  0.100409  0.114173  0  1.020051  0
H  H26  1  0.06742703  0.41568708  0.63559874  1  0  0.093296  0  0.957375  0  0  0.113542  0  1.021564  0  0  0.112596  0  1.02388  0  0  0.100382  0.114121  0  1.020019  0
H  H27  1  0.43257950  0.08431081  0.13559950  1  0  0.093267  0  0.957454  0  0  0.113542  0  1.021604  0  0  0.112598  0  1.023917  0  0  0.100385  0.114124  0  1.020063  0
H  H28  1  0.42305524  0.48955289  0.34159551  1  0  0.088725  0  0.969115  0  0  0.104751  0  1.041292  0  0  0.104744  0  1.042748  0  0  0.095374  0.104594  0  1.040512  0
H  H29  1  0.07694324  0.01045061  0.84159491  1  0  0.088721  0  0.969125  0  0  0.104717  0  1.041336  0  0  0.104707  0  1.042788  0  0  0.095328  0.104567  0  1.040541  0
H  H30  1  0.57695994  0.51044910  0.65840176  1  0  0.088776  0  0.969135  0  0  0.104803  0  1.041303  0  0  0.104796  0  1.04276  0  0  0.095404  0.104651  0  1.040507  0
H  H31  1  0.92305657  0.98954519  0.15840587  1  0  0.088728  0  0.969106  0  0  0.104718  0  1.041311  0  0  0.104709  0  1.042766  0  0  0.095338  0.10457  0  1.040519  0
H  H32  1  0.35832068  0.58704982  0.41947858  1  0  0.111606  0  0.946727  0  0  0.128248  0  1.014256  0  0  0.129718  0  1.013312  0  0  0.105097  0.127107  0  1.015029  0
H  H33  1  0.14166695  0.91295772  0.91947515  1  0  0.111627  0  0.946913  0  0  0.128304  0  1.014385  0  0  0.129773  0  1.013437  0  0  0.105108  0.127161  0  1.015162  0
H  H34  1  0.64167619  0.41295301  0.58052045  1  0  0.111585  0  0.9468  0  0  0.128246  0  1.014298  0  0  0.129716  0  1.013355  0  0  0.105087  0.127103  0  1.015068  0
H  H35  1  0.85834136  0.08704073  0.08052388  1  0  0.111662  0  0.946818  0  0  0.128317  0  1.014301  0  0  0.129788  0  1.013353  0  0  0.105117  0.127177  0  1.015068  0
H  H36  1  0.46111625  0.44348521  0.44017163  1  0  0.104224  0  0.946931  0  0  0.123654  0  1.012577  0  0  0.124693  0  1.011976  0  0  0.110084  0.122686  0  1.013328  0
H  H37  1  0.03888275  0.05651459  0.94016582  1  0  0.104301  0  0.947037  0  0  0.123764  0  1.012623  0  0  0.124803  0  1.012017  0  0  0.110097  0.122778  0  1.013393  0
H  H38  1  0.53888719  0.55651587  0.55982799  1  0  0.104226  0  0.947045  0  0  0.123662  0  1.012674  0  0  0.124701  0  1.012073  0  0  0.110076  0.12269  0  1.013431  0
H  H39  1  0.96112030  0.94347946  0.05983496  1  0  0.104265  0  0.947061  0  0  0.123712  0  1.012661  0  0  0.124752  0  1.012056  0  0  0.110089  0.122734  0  1.013424  0
C  C40  1  0.71507498  0.89543636  0.62185554  1  0  0.688742  0  3.969889  0  0  0.639748  0  4.262139  0  0  0.674945  0  4.251684  0  0  0.214874  0.615756  0  4.268519  0
C  C41  1  0.78493945  0.60456656  0.12185742  1  0  0.688901  0  3.969578  0  0  0.63994  0  4.261783  0  0  0.675138  0  4.251327  0  0  0.214903  0.615941  0  4.268173  0
C  C42  1  0.28490710  0.10457082  0.37814641  1  0  0.688633  0  3.970416  0  0  0.6396  0  4.262728  0  0  0.674796  0  4.252278  0  0  0.214735  0.615612  0  4.269105  0
C  C43  1  0.21507735  0.39543456  0.87814395  1  0  0.688736  0  3.969857  0  0  0.639728  0  4.262148  0  0  0.674923  0  4.251698  0  0  0.214856  0.61573  0  4.268539  0
C  C44  1  0.68461521  0.81635635  0.68979865  1  0  -0.156649  0  3.724663  0  0  -0.138272  0  3.988743  0  0  -0.144743  0  4.007674  0  0  -0.022198  -0.134018  0  3.976084  0
C  C45  1  0.81539373  0.68363819  0.18979816  1  0  -0.156691  0  3.724835  0  0  -0.13835  0  3.988953  0  0  -0.14482  0  4.007878  0  0  -0.022174  -0.134095  0  3.976303  0
C  C46  1  0.31538627  0.18363945  0.31020447  1  0  -0.156701  0  3.724687  0  0  -0.138317  0  3.988776  0  0  -0.144789  0  4.007706  0  0  -0.022244  -0.134069  0  3.976134  0
C  C47  1  0.18461757  0.31635412  0.81020380  1  0  -0.156623  0  3.72486  0  0  -0.138244  0  3.988943  0  0  -0.144714  0  4.007874  0  0  -0.022193  -0.133997  0  3.976298  0
C  C48  1  0.49227565  0.75456750  0.71283917  1  0  -0.086198  0  3.758127  0  0  -0.116414  0  4.025321  0  0  -0.115211  0  4.041837  0  0  -0.093666  -0.116888  0  4.013425  0
C  C49  1  0.00772119  0.74542565  0.21284478  1  0  -0.086185  0  3.758291  0  0  -0.116416  0  4.025473  0  0  -0.11521  0  4.041978  0  0  -0.093663  -0.11688  0  4.013566  0
C  C50  1  0.50772077  0.24542741  0.28716453  1  0  -0.086121  0  3.758361  0  0  -0.116337  0  4.025538  0  0  -0.115129  0  4.04205  0  0  -0.09363  -0.116813  0  4.013652  0
C  C51  1  0.99227842  0.25456663  0.78716301  1  0  -0.086186  0  3.758432  0  0  -0.116411  0  4.025629  0  0  -0.115201  0  4.042147  0  0  -0.093663  -0.116885  0  4.013739  0
C  C52  1  0.51966963  0.69509354  0.78441109  1  0  -0.082468  0  3.741408  0  0  -0.112236  0  4.00619  0  0  -0.111104  0  4.021838  0  0  -0.090258  -0.11299  0  3.995394  0
C  C53  1  0.98032126  0.80489558  0.28441410  1  0  -0.082508  0  3.741483  0  0  -0.112315  0  4.006206  0  0  -0.11118  0  4.021842  0  0  -0.090333  -0.113032  0  3.995442  0
C  C54  1  0.48033691  0.30490316  0.21559145  1  0  -0.082509  0  3.74125  0  0  -0.112242  0  4.00608  0  0  -0.111115  0  4.021732  0  0  -0.090322  -0.112998  0  3.995292  0
C  C55  1  0.01967010  0.19509844  0.71559077  1  0  -0.082513  0  3.741567  0  0  -0.112228  0  4.006357  0  0  -0.111097  0  4.022009  0  0  -0.090279  -0.112988  0  3.995574  0
C  C56  1  0.73216115  0.71304748  0.81550318  1  0  -0.158014  0  3.713658  0  0  -0.141424  0  3.980551  0  0  -0.146484  0  3.997283  0  0  -0.021701  -0.138202  0  3.969576  0
C  C57  1  0.76782408  0.78694629  0.31550395  1  0  -0.15798  0  3.713922  0  0  -0.141285  0  3.980669  0  0  -0.14634  0  3.997393  0  0  -0.021577  -0.138064  0  3.969684  0
C  C58  1  0.26784033  0.28694833  0.18449878  1  0  -0.158165  0  3.713864  0  0  -0.141574  0  3.98078  0  0  -0.146632  0  3.997512  0  0  -0.021719  -0.138352  0  3.969806  0
C  C59  1  0.23216267  0.21305475  0.68449976  1  0  -0.158003  0  3.713874  0  0  -0.141397  0  3.980716  0  0  -0.146457  0  3.997451  0  0  -0.021677  -0.138176  0  3.969741  0
C  C60  1  0.82004576  0.67456363  0.89226963  1  0  0.695407  0  3.957906  0  0  0.645459  0  4.258593  0  0  0.680899  0  4.246784  0  0  0.219538  0.6213  0  4.265973  0
C  C61  1  0.67994297  0.82542951  0.39226512  1  0  0.695651  0  3.957799  0  0  0.64566  0  4.258519  0  0  0.6811  0  4.246699  0  0  0.219645  0.6215  0  4.265903  0
C  C62  1  0.17996726  0.32542956  0.10772647  1  0  0.695362  0  3.95785  0  0  0.645383  0  4.2586  0  0  0.680822  0  4.246791  0  0  0.219509  0.621224  0  4.265974  0
C  C63  1  0.32004064  0.17457504  0.60773333  1  0  0.695411  0  3.958054  0  0  0.645469  0  4.258742  0  0  0.680909  0  4.246936  0  0  0.219637  0.621315  0  4.26611  0
C  C64  1  0.06940058  0.35622393  0.45005788  1  0  0.397053  0  3.834676  0  0  0.321113  0  4.128685  0  0  0.349403  0  4.129024  0  0  0.178169  0.302194  0  4.127726  0
C  C65  1  0.43059830  0.14376952  0.95006067  1  0  0.397141  0  3.834149  0  0  0.321173  0  4.12821  0  0  0.349466  0  4.128545  0  0  0.17816  0.302252  0  4.127254  0
C  C66  1  0.93063803  0.64377899  0.54993765  1  0  0.397137  0  3.834406  0  0  0.321276  0  4.128428  0  0  0.349569  0  4.128754  0  0  0.178224  0.302354  0  4.127481  0
C  C67  1  0.56939684  0.85623242  0.04994070  1  0  0.396971  0  3.834107  0  0  0.321107  0  4.128151  0  0  0.349396  0  4.128488  0  0  0.178148  0.302187  0  4.127193  0
C  C68  1  0.97122040  0.49400639  0.34757811  1  0  -0.170946  0  3.652242  0  0  -0.272415  0  3.895229  0  0  -0.268567  0  3.907119  0  0  -0.135873  -0.274724  0  3.887052  0
C  C69  1  0.52877244  0.00599699  0.84757390  1  0  -0.170873  0  3.652341  0  0  -0.272408  0  3.89539  0  0  -0.268554  0  3.907272  0  0  -0.13592  -0.274721  0  3.887207  0
C  C70  1  0.02878118  0.50599117  0.65241975  1  0  -0.170989  0  3.652282  0  0  -0.272375  0  3.895356  0  0  -0.268527  0  3.907251  0  0  -0.135904  -0.274679  0  3.887164  0
C  C71  1  0.47122958  0.99400848  0.15242103  1  0  -0.170901  0  3.65234  0  0  -0.272285  0  3.89539  0  0  -0.268433  0  3.907278  0  0  -0.135872  -0.27459  0  3.887198  0
C  C72  1  0.35566529  0.49428828  0.40119057  1  0  -0.186505  0  3.663092  0  0  -0.28996  0  3.915515  0  0  -0.286957  0  3.926552  0  0  -0.135563  -0.291704  0  3.908103  0
C  C73  1  0.14430427  0.00570958  0.90118671  1  0  -0.186571  0  3.663364  0  0  -0.290063  0  3.915747  0  0  -0.287076  0  3.926832  0  0  -0.13557  -0.291799  0  3.908362  0
C  C74  1  0.64432981  0.50571278  0.59880729  1  0  -0.186578  0  3.663357  0  0  -0.289986  0  3.915823  0  0  -0.286977  0  3.926851  0  0  -0.135604  -0.291736  0  3.908403  0
C  C75  1  0.85568556  0.99428707  0.09881232  1  0  -0.186598  0  3.663321  0  0  -0.289959  0  3.915713  0  0  -0.286962  0  3.926771  0  0  -0.135525  -0.291701  0  3.908307  0
S  S76  1  0.89916456  0.79975706  0.75528660  1  0  0.177971  0  2.634108  0  0  0.184054  0  2.952005  0  0  0.184225  0  2.959222  0  0  0.122774  0.183537  0  2.946975  0
S  S77  1  0.60082757  0.70023703  0.25528355  1  0  0.177925  0  2.634076  0  0  0.183976  0  2.95194  0  0  0.184145  0  2.959159  0  0  0.122706  0.183463  0  2.946915  0
S  S78  1  0.10083392  0.20024489  0.24470834  1  0  0.178032  0  2.634143  0  0  0.184111  0  2.952047  0  0  0.18428  0  2.959265  0  0  0.122775  0.183591  0  2.947029  0
S  S79  1  0.39916212  0.29975699  0.74471840  1  0  0.177892  0  2.634424  0  0  0.183955  0  2.952325  0  0  0.18412  0  2.959546  0  0  0.122682  0.183436  0  2.947297  0
N  N80  1  0.12873383  0.44475981  0.40216588  1  0  -0.084529  0  3.511981  0  0  0.021524  0  3.743775  0  0  0.000648  0  3.769909  0  0  -0.28019  0.035578  0  3.72557  0
N  N81  1  0.37124901  0.05523630  0.90216227  1  0  -0.084693  0  3.511666  0  0  0.021376  0  3.743488  0  0  0.000495  0  3.769614  0  0  -0.280113  0.035441  0  3.725274  0
N  N82  1  0.87126740  0.55523160  0.59783256  1  0  -0.084524  0  3.511566  0  0  0.021288  0  3.743611  0  0  0.000406  0  3.769746  0  0  -0.280241  0.035356  0  3.725398  0
N  N83  1  0.62874613  0.94476564  0.09783675  1  0  -0.084512  0  3.511681  0  0  0.021323  0  3.7437  0  0  0.000443  0  3.76983  0  0  -0.280157  0.035387  0  3.725486  0
O  O84  1  0.54142062  0.92624705  0.58522043  1  0  -0.737073  0  2.010321  0  0  -0.67157  0  2.25564  0  0  -0.69862  0  2.243884  0  0  -0.405275  -0.652467  0  2.263416  0
O  O85  1  0.95859463  0.57375659  0.08522195  1  0  -0.737129  0  2.010219  0  0  -0.671617  0  2.255485  0  0  -0.698666  0  2.243728  0  0  -0.405268  -0.652509  0  2.26326  0
O  O86  1  0.45855483  0.07376099  0.41478269  1  0  -0.736935  0  2.010459  0  0  -0.67136  0  2.255684  0  0  -0.698407  0  2.243926  0  0  -0.405144  -0.652257  0  2.26346  0
O  O87  1  0.04142728  0.42624630  0.91477825  1  0  -0.737  0  2.010338  0  0  -0.671468  0  2.255622  0  0  -0.69852  0  2.24387  0  0  -0.405222  -0.652363  0  2.263395  0
O  O88  1  0.91208695  0.93274478  0.60465782  1  0  -0.740604  0  2.008826  0  0  -0.681406  0  2.253933  0  0  -0.70697  0  2.242655  0  0  -0.386919  -0.66334  0  2.261369  0
O  O89  1  0.58792183  0.56725407  0.10465651  1  0  -0.740666  0  2.008678  0  0  -0.68147  0  2.253774  0  0  -0.707039  0  2.242499  0  0  -0.386906  -0.663406  0  2.26121  0
O  O90  1  0.08789380  0.06726856  0.39534354  1  0  -0.740569  0  2.009096  0  0  -0.681363  0  2.254237  0  0  -0.706928  0  2.242965  0  0  -0.386891  -0.663302  0  2.261669  0
O  O91  1  0.41209139  0.43274264  0.89534135  1  0  -0.74063  0  2.008802  0  0  -0.681424  0  2.253939  0  0  -0.70699  0  2.242662  0  0  -0.386932  -0.663364  0  2.261375  0
O  O92  1  0.68182125  0.62567636  0.93977384  1  0  -0.743577  0  2.024916  0  0  -0.681821  0  2.274804  0  0  -0.709124  0  2.264621  0  0  -0.374184  -0.662355  0  2.281158  0
O  O93  1  0.81816749  0.87432641  0.43976639  1  0  -0.743713  0  2.024805  0  0  -0.681925  0  2.274654  0  0  -0.709262  0  2.26454  0  0  -0.374193  -0.662455  0  2.281011  0
O  O94  1  0.31819702  0.37432124  0.06022752  1  0  -0.743525  0  2.024955  0  0  -0.681712  0  2.274774  0  0  -0.709007  0  2.264579  0  0  -0.374171  -0.662266  0  2.281171  0
O  O95  1  0.18181483  0.12568517  0.56023206  1  0  -0.743571  0  2.024963  0  0  -0.681787  0  2.274787  0  0  -0.709079  0  2.264584  0  0  -0.37423  -0.662361  0  2.281205  0
O  O96  1  0.02663443  0.69604767  0.90557728  1  0  -0.708603  0  1.934174  0  0  -0.655978  0  2.180384  0  0  -0.680457  0  2.167309  0  0  -0.386937  -0.63869  0  2.188889  0
O  O97  1  0.47334746  0.80395310  0.40557444  1  0  -0.708707  0  1.933947  0  0  -0.656101  0  2.180178  0  0  -0.680579  0  2.167104  0  0  -0.387014  -0.638807  0  2.188682  0
O  O98  1  0.97337883  0.30394992  0.09441882  1  0  -0.708565  0  1.934186  0  0  -0.655933  0  2.180416  0  0  -0.680414  0  2.167339  0  0  -0.386902  -0.63864  0  2.18892  0
O  O99  1  0.52663457  0.19605321  0.59442809  1  0  -0.708596  0  1.934167  0  0  -0.655986  0  2.180384  0  0  -0.680471  0  2.167314  0  0  -0.386962  -0.638695  0  2.188886  0
O  O100  1  0.87677936  0.31014455  0.45520652  1  0  -0.592434  0  2.00168  0  0  -0.537234  0  2.251657  0  0  -0.560545  0  2.244059  0  0  -0.352908  -0.52083  0  2.256306  0
O  O101  1  0.62322245  0.18985323  0.95521672  1  0  -0.592395  0  2.001537  0  0  -0.537197  0  2.251538  0  0  -0.560508  0  2.243937  0  0  -0.35287  -0.520805  0  2.256214  0
O  O102  1  0.12322894  0.68985391  0.54478491  1  0  -0.592213  0  2.002063  0  0  -0.53705  0  2.252006  0  0  -0.56035  0  2.244401  0  0  -0.352802  -0.52068  0  2.25671  0
O  O103  1  0.37677613  0.81015048  0.04478581  1  0  -0.592367  0  2.001525  0  0  -0.53717  0  2.251472  0  0  -0.560475  0  2.243872  0  0  -0.352881  -0.520783  0  2.256157  0
