# generated using pymatgen
data_TmH7C8SO9
_symmetry_space_group_name_H-M   'P 1'
_cell_length_a   6.33553624
_cell_length_b   8.51519499
_cell_length_c   10.54958683
_cell_angle_alpha   90.31622134
_cell_angle_beta   99.79578755
_cell_angle_gamma   107.49162845
_symmetry_Int_Tables_number   1
_chemical_formula_structural   TmH7C8SO9
_chemical_formula_sum   'Tm2 H14 C16 S2 O18'
_cell_volume   533.92953645
_cell_formula_units_Z   2
loop_
 _symmetry_equiv_pos_site_id
 _symmetry_equiv_pos_as_xyz
  1  'x, y, z'
loop_
 _atom_site_type_symbol
 _atom_site_label
 _atom_site_symmetry_multiplicity
 _atom_site_fract_x
 _atom_site_fract_y
 _atom_site_fract_z
 _atom_site_occupancy
 _atom_site_hle17_bader_spin_density
 _atom_site_hle17_ddec_charge
 _atom_site_hle17_ddec_spin_density
 _atom_site_hle17_ddec_sum_bond_order
 _atom_site_hle17_magmom
 _atom_site_hse06_10hf_bader_spin_density
 _atom_site_hse06_10hf_ddec_charge
 _atom_site_hse06_10hf_ddec_spin_density
 _atom_site_hse06_10hf_ddec_sum_bond_order
 _atom_site_hse06_10hf_magmom
 _atom_site_hse06_bader_spin_density
 _atom_site_hse06_ddec_charge
 _atom_site_hse06_ddec_spin_density
 _atom_site_hse06_ddec_sum_bond_order
 _atom_site_hse06_magmom
 _atom_site_pbe_bader_spin_density
 _atom_site_pbe_cm5_charge
 _atom_site_pbe_ddec_charge
 _atom_site_pbe_ddec_spin_density
 _atom_site_pbe_ddec_sum_bond_order
 _atom_site_pbe_magmom
Tm  Tm0  1  0.15640637  0.25126566  0.61786939  1  0  2.316997  0  1.579403  0  0  2.263416  0  1.888517  0  0  2.308943  0  1.84971  0  0  1.56456  2.146335  0  2.073863  0
Tm  Tm1  1  0.84359691  0.74873473  0.38213269  1  0  2.317059  0  1.579281  0  0  2.26349  0  1.888383  0  0  2.309015  0  1.849574  0  0  1.56461  2.146389  0  2.073758  0
H  H2  1  0.61745997  0.41253670  0.14574038  1  0  0.110264  0  0.941276  0  0  0.117967  0  1.005125  0  0  0.12167  0  1.003073  0  0  0.115445  0.115373  0  1.006371  0
H  H3  1  0.38254062  0.58746492  0.85425954  1  0  0.110291  0  0.941251  0  0  0.117985  0  1.00511  0  0  0.121696  0  1.003047  0  0  0.115451  0.11539  0  1.006357  0
H  H4  1  0.65873259  0.36848095  0.91957296  1  0  0.11613  0  0.94639  0  0  0.127148  0  1.00464  0  0  0.13088  0  1.001799  0  0  0.114464  0.124068  0  1.007377  0
H  H5  1  0.34126325  0.63151697  0.08042645  1  0  0.116115  0  0.946428  0  0  0.12718  0  1.004631  0  0  0.130913  0  1.001788  0  0  0.114469  0.124098  0  1.007375  0
H  H6  1  0.18322687  0.15292165  0.05564331  1  0  0.126248  0  0.946368  0  0  0.133713  0  1.007905  0  0  0.137538  0  1.005602  0  0  0.115551  0.130574  0  1.010355  0
H  H7  1  0.81677429  0.84707750  0.94435665  1  0  0.126272  0  0.946354  0  0  0.133738  0  1.007886  0  0  0.137562  0  1.005583  0  0  0.115563  0.130598  0  1.010339  0
H  H8  1  0.52073901  0.08109964  0.67725364  1  0  0.465892  0  0.803873  0  0  0.439332  0  0.861253  0  0  0.448954  0  0.847086  0  0  0.320265  0.431763  0  0.872291  0
H  H9  1  0.47925947  0.91890075  0.32274700  1  0  0.465918  0  0.803801  0  0  0.439349  0  0.861228  0  0  0.448971  0  0.847061  0  0  0.320285  0.431778  0  0.872271  0
H  H10  1  0.29173543  0.95647048  0.60478108  1  0  0.449005  0  0.848879  0  0  0.417594  0  0.913466  0  0  0.427931  0  0.898343  0  0  0.305151  0.409827  0  0.924605  0
H  H11  1  0.70826253  0.04352868  0.39521855  1  0  0.448893  0  0.849035  0  0  0.417515  0  0.913553  0  0  0.427849  0  0.898439  0  0  0.305137  0.409747  0  0.924691  0
H  H12  1  0.65430392  0.35834351  0.70827457  1  0  0.451256  0  0.842909  0  0  0.424044  0  0.899549  0  0  0.434718  0  0.884036  0  0  0.30413  0.415772  0  0.911458  0
H  H13  1  0.34569833  0.64165442  0.29172455  1  0  0.451265  0  0.8429  0  0  0.424053  0  0.899542  0  0  0.434726  0  0.884029  0  0  0.304146  0.41578  0  0.911452  0
H  H14  1  0.58119597  0.50968435  0.64692595  1  0  0.447219  0  0.843988  0  0  0.418842  0  0.903074  0  0  0.428823  0  0.888462  0  0  0.305908  0.411278  0  0.913925  0
H  H15  1  0.41880943  0.49031728  0.35307351  1  0  0.447224  0  0.843978  0  0  0.418853  0  0.903053  0  0  0.428833  0  0.888443  0  0  0.305933  0.411288  0  0.913905  0
C  C16  1  0.02236316  0.22275679  0.20127868  1  0  -0.133896  0  3.686767  0  0  -0.115767  0  3.935598  0  0  -0.122555  0  3.956455  0  0  -0.007109  -0.111898  0  3.92331  0
C  C17  1  0.97763480  0.77724236  0.79872285  1  0  -0.133897  0  3.686827  0  0  -0.115785  0  3.935643  0  0  -0.122574  0  3.956499  0  0  -0.007114  -0.111918  0  3.923355  0
C  C18  1  0.86818439  0.30243861  0.22860220  1  0  -0.036401  0  3.666181  0  0  -0.026999  0  3.899179  0  0  -0.028586  0  3.917297  0  0  0.00485  -0.0264  0  3.888955  0
C  C19  1  0.13181569  0.69756179  0.77139766  1  0  -0.036484  0  3.666252  0  0  -0.027027  0  3.899181  0  0  -0.028615  0  3.917298  0  0  0.004826  -0.026428  0  3.888955  0
C  C20  1  0.73728301  0.35166169  0.12482169  1  0  -0.044398  0  3.674577  0  0  -0.069298  0  3.931317  0  0  -0.071639  0  3.949517  0  0  -0.068139  -0.068135  0  3.919691  0
C  C21  1  0.26271495  0.64833746  0.87517890  1  0  -0.044375  0  3.674605  0  0  -0.069289  0  3.931362  0  0  -0.071632  0  3.949558  0  0  -0.068118  -0.068127  0  3.919736  0
C  C22  1  0.76148880  0.32762324  0.99807107  1  0  -0.0383  0  3.6546  0  0  -0.064353  0  3.899681  0  0  -0.06182  0  3.916974  0  0  -0.065354  -0.065995  0  3.889315  0
C  C23  1  0.23850973  0.67237345  0.00192766  1  0  -0.038245  0  3.654657  0  0  -0.064338  0  3.899755  0  0  -0.061808  0  3.917052  0  0  -0.065331  -0.065985  0  3.889392  0
C  C24  1  0.92569781  0.25820819  0.97325332  1  0  -0.043473  0  3.728973  0  0  -0.017408  0  3.960547  0  0  -0.026039  0  3.983327  0  0  -0.006635  -0.012749  0  3.946671  0
C  C25  1  0.07429963  0.74178974  0.02674625  1  0  -0.043497  0  3.728992  0  0  -0.017434  0  3.960599  0  0  -0.026065  0  3.983378  0  0  -0.006673  -0.012769  0  3.946712  0
C  C26  1  0.05367091  0.20451179  0.07524722  1  0  -0.051743  0  3.696068  0  0  -0.089322  0  3.94501  0  0  -0.087194  0  3.964022  0  0  -0.069768  -0.090828  0  3.933748  0
C  C27  1  0.94632814  0.79548613  0.92475346  1  0  -0.051765  0  3.696127  0  0  -0.089337  0  3.94506  0  0  -0.087207  0  3.964068  0  0  -0.069771  -0.090846  0  3.933802  0
C  C28  1  0.84659848  0.34532306  0.36355851  1  0  0.749597  0  3.807443  0  0  0.698715  0  4.106878  0  0  0.735096  0  4.09171  0  0  0.249371  0.672965  0  4.112411  0
C  C29  1  0.15340417  0.65468349  0.63644354  1  0  0.749603  0  3.807506  0  0  0.698704  0  4.106928  0  0  0.735085  0  4.09176  0  0  0.24934  0.672953  0  4.11246  0
C  C30  1  0.98657218  0.25160839  0.84339792  1  0  0.644627  0  3.926486  0  0  0.593114  0  4.234891  0  0  0.626825  0  4.227169  0  0  0.199286  0.571606  0  4.229736  0
C  C31  1  0.01342635  0.74838830  0.15660176  1  0  0.644603  0  3.926447  0  0  0.593067  0  4.234894  0  0  0.626778  0  4.227172  0  0  0.199291  0.571559  0  4.229738  0
S  S32  1  0.20944183  0.15868976  0.32158987  1  0  1.364243  0  5.555225  0  0  1.264138  0  6.074876  0  0  1.313079  0  6.04922  0  0  0.542324  1.22947  0  6.083256  0
S  S33  1  0.79055721  0.84130816  0.67841082  1  0  1.364276  0  5.555083  0  0  1.264187  0  6.074714  0  0  1.31313  0  6.049054  0  0  0.542372  1.22952  0  6.08309  0
O  O34  1  0.08000623  0.01507212  0.38326519  1  0  -0.802802  0  2.19835  0  0  -0.764018  0  2.491104  0  0  -0.785392  0  2.474973  0  0  -0.409706  -0.732907  0  2.498095  0
O  O35  1  0.91998905  0.98492827  0.61673323  1  0  -0.802838  0  2.198184  0  0  -0.764055  0  2.490953  0  0  -0.785432  0  2.474824  0  0  -0.409759  -0.732951  0  2.497945  0
O  O36  1  0.30497946  0.29937030  0.42059293  1  0  -0.764502  0  2.064443  0  0  -0.714324  0  2.320867  0  0  -0.735419  0  2.304878  0  0  -0.378339  -0.689764  0  2.333089  0
O  O37  1  0.69502971  0.70062886  0.57940784  1  0  -0.764471  0  2.064493  0  0  -0.714315  0  2.32094  0  0  -0.735408  0  2.304944  0  0  -0.378329  -0.689753  0  2.333161  0
O  O38  1  0.37472906  0.12333765  0.25633788  1  0  -0.617345  0  1.97722  0  0  -0.558577  0  2.211678  0  0  -0.581412  0  2.201402  0  0  -0.303744  -0.543687  0  2.220007  0
O  O39  1  0.62527261  0.87666274  0.74366498  1  0  -0.617329  0  1.977203  0  0  -0.558565  0  2.211653  0  0  -0.581401  0  2.201378  0  0  -0.303741  -0.543665  0  2.219959  0
O  O40  1  0.86069099  0.24321311  0.45072449  1  0  -0.742268  0  2.086122  0  0  -0.698734  0  2.331817  0  0  -0.723125  0  2.318258  0  0  -0.38368  -0.670912  0  2.34436  0
O  O41  1  0.13931115  0.75679221  0.54928035  1  0  -0.742312  0  2.086276  0  0  -0.698747  0  2.331968  0  0  -0.723142  0  2.318411  0  0  -0.383655  -0.67093  0  2.344524  0
O  O42  1  0.81772193  0.48248655  0.38422587  1  0  -0.710752  0  2.093624  0  0  -0.676138  0  2.361994  0  0  -0.701438  0  2.349682  0  0  -0.396016  -0.645169  0  2.373938  0
O  O43  1  0.18227763  0.51751261  0.61577298  1  0  -0.710762  0  2.093521  0  0  -0.67616  0  2.36191  0  0  -0.701461  0  2.3496  0  0  -0.396018  -0.645192  0  2.373853  0
O  O44  1  0.17442425  0.22852621  0.83622052  1  0  -0.700284  0  1.980787  0  0  -0.66504  0  2.222894  0  0  -0.690109  0  2.21497  0  0  -0.393393  -0.636912  0  2.22887  0
O  O45  1  0.82557583  0.77147417  0.16378029  1  0  -0.700306  0  1.980672  0  0  -0.665048  0  2.222787  0  0  -0.690122  0  2.214865  0  0  -0.393406  -0.636916  0  2.228762  0
O  O46  1  0.85998930  0.27207676  0.74014399  1  0  -0.710048  0  2.047389  0  0  -0.664234  0  2.28539  0  0  -0.688787  0  2.275512  0  0  -0.346211  -0.638652  0  2.291382  0
O  O47  1  0.14000815  0.72792117  0.25985558  1  0  -0.710029  0  2.047448  0  0  -0.664209  0  2.285467  0  0  -0.688761  0  2.275586  0  0  -0.346211  -0.638623  0  2.291458  0
O  O48  1  0.36890125  0.07420594  0.63383168  1  0  -0.926627  0  1.893085  0  0  -0.889342  0  2.089483  0  0  -0.907313  0  2.057764  0  0  -0.660105  -0.865154  0  2.11915  0
O  O49  1  0.63110254  0.92579569  0.36616288  1  0  -0.926567  0  1.893175  0  0  -0.889284  0  2.089592  0  0  -0.907257  0  2.057869  0  0  -0.660114  -0.865092  0  2.119261  0
O  O50  1  0.52804762  0.40741069  0.69166126  1  0  -0.918631  0  1.858578  0  0  -0.884477  0  2.053721  0  0  -0.903633  0  2.022554  0  0  -0.653118  -0.859868  0  2.08248  0
O  O51  1  0.47195457  0.59259093  0.30833976  1  0  -0.918649  0  1.858525  0  0  -0.884522  0  2.053702  0  0  -0.903666  0  2.022512  0  0  -0.653172  -0.859907  0  2.082464  0
