# generated using pymatgen
data_HgH6C8S2N4O
_symmetry_space_group_name_H-M   'P 1'
_cell_length_a   5.83386666
_cell_length_b   13.22919891
_cell_length_c   15.11824281
_cell_angle_alpha   96.48651252
_cell_angle_beta   89.99911295
_cell_angle_gamma   90.00028975
_symmetry_Int_Tables_number   1
_chemical_formula_structural   HgH6C8S2N4O
_chemical_formula_sum   'Hg4 H24 C32 S8 N16 O4'
_cell_volume   1159.31719715
_cell_formula_units_Z   4
loop_
 _symmetry_equiv_pos_site_id
 _symmetry_equiv_pos_as_xyz
  1  'x, y, z'
loop_
 _atom_site_type_symbol
 _atom_site_label
 _atom_site_symmetry_multiplicity
 _atom_site_fract_x
 _atom_site_fract_y
 _atom_site_fract_z
 _atom_site_occupancy
 _atom_site_hle17_bader_spin_density
 _atom_site_hle17_ddec_charge
 _atom_site_hle17_ddec_spin_density
 _atom_site_hle17_ddec_sum_bond_order
 _atom_site_hle17_magmom
 _atom_site_hse06_10hf_bader_spin_density
 _atom_site_hse06_10hf_ddec_charge
 _atom_site_hse06_10hf_ddec_spin_density
 _atom_site_hse06_10hf_ddec_sum_bond_order
 _atom_site_hse06_10hf_magmom
 _atom_site_hse06_bader_spin_density
 _atom_site_hse06_ddec_charge
 _atom_site_hse06_ddec_spin_density
 _atom_site_hse06_ddec_sum_bond_order
 _atom_site_hse06_magmom
 _atom_site_pbe_bader_spin_density
 _atom_site_pbe_cm5_charge
 _atom_site_pbe_ddec_charge
 _atom_site_pbe_ddec_spin_density
 _atom_site_pbe_ddec_sum_bond_order
 _atom_site_pbe_magmom
Hg  Hg0  1  0.83400519  0.45885822  0.12035304  1  0  0.652567  0  2.139757  0  0  0.503189  0  2.636589  0  0  0.543557  0  2.612283  0  0  0.543196  0.476217  0  2.65228  0
Hg  Hg1  1  0.33399938  0.04113859  0.87963994  1  0  0.652643  0  2.139879  0  0  0.503303  0  2.636713  0  0  0.543666  0  2.612404  0  0  0.543228  0.476325  0  2.652421  0
Hg  Hg2  1  0.16599874  0.54114054  0.87964261  1  0  0.652632  0  2.139897  0  0  0.50328  0  2.63672  0  0  0.543643  0  2.612416  0  0  0.543223  0.476309  0  2.652419  0
Hg  Hg3  1  0.66599770  0.95886325  0.12036659  1  0  0.652643  0  2.139843  0  0  0.503309  0  2.636656  0  0  0.543666  0  2.612358  0  0  0.54323  0.476336  0  2.65237  0
H  H4  1  0.00573907  0.29344723  0.24365087  1  0  0.086252  0  0.968133  0  0  0.090307  0  1.041858  0  0  0.092431  0  1.039515  0  0  0.109782  0.088726  0  1.043591  0
H  H5  1  0.50573696  0.20655076  0.75634486  1  0  0.086209  0  0.968161  0  0  0.090285  0  1.04187  0  0  0.092404  0  1.039531  0  0  0.109735  0.0887  0  1.0436  0
H  H6  1  0.99427001  0.70655230  0.75634882  1  0  0.086257  0  0.968087  0  0  0.090299  0  1.04186  0  0  0.092403  0  1.039535  0  0  0.109769  0.088717  0  1.043593  0
H  H7  1  0.49426184  0.79344799  0.24364748  1  0  0.086279  0  0.968146  0  0  0.09034  0  1.041855  0  0  0.092459  0  1.039512  0  0  0.109766  0.088757  0  1.043588  0
H  H8  1  0.89513029  0.21496230  0.38032637  1  0  0.117649  0  0.945546  0  0  0.124456  0  1.009053  0  0  0.128383  0  1.00694  0  0  0.111626  0.121661  0  1.010737  0
H  H9  1  0.39513282  0.28503825  0.61967251  1  0  0.11765  0  0.945454  0  0  0.124423  0  1.008999  0  0  0.128347  0  1.006892  0  0  0.111621  0.121624  0  1.010679  0
H  H10  1  0.10486851  0.78503266  0.61967090  1  0  0.117628  0  0.945466  0  0  0.12441  0  1.009  0  0  0.128337  0  1.006886  0  0  0.111607  0.121613  0  1.010682  0
H  H11  1  0.60485055  0.71495975  0.38032174  1  0  0.117635  0  0.945454  0  0  0.124404  0  1.009021  0  0  0.128327  0  1.006919  0  0  0.111601  0.121608  0  1.010701  0
H  H12  1  0.55517202  0.28573077  0.46901928  1  0  0.111892  0  0.938633  0  0  0.120724  0  1.001743  0  0  0.12459  0  0.997703  0  0  0.115159  0.117889  0  1.00465  0
H  H13  1  0.05516811  0.21427098  0.53098164  1  0  0.111951  0  0.938607  0  0  0.120736  0  1.00176  0  0  0.1246  0  0.997722  0  0  0.115176  0.117903  0  1.004659  0
H  H14  1  0.44483535  0.71426648  0.53097953  1  0  0.111922  0  0.938625  0  0  0.12071  0  1.001785  0  0  0.124577  0  0.997744  0  0  0.115156  0.117868  0  1.004717  0
H  H15  1  0.94480326  0.78572322  0.46901688  1  0  0.111985  0  0.938704  0  0  0.120764  0  1.001821  0  0  0.124629  0  0.99778  0  0  0.115157  0.11793  0  1.004724  0
H  H16  1  0.47375780  0.50201659  0.27746516  1  0  0.079333  0  0.985617  0  0  0.087684  0  1.054305  0  0  0.089828  0  1.051946  0  0  0.11328  0.086117  0  1.055995  0
H  H17  1  0.97375151  0.99798069  0.72253408  1  0  0.079266  0  0.985646  0  0  0.087614  0  1.054347  0  0  0.089756  0  1.051995  0  0  0.11326  0.086052  0  1.056023  0
H  H18  1  0.52625471  0.49798371  0.72253725  1  0  0.079284  0  0.985638  0  0  0.087641  0  1.054323  0  0  0.089784  0  1.051966  0  0  0.113273  0.086082  0  1.055999  0
H  H19  1  0.02626099  0.00201275  0.27746569  1  0  0.079325  0  0.985663  0  0  0.087669  0  1.05436  0  0  0.089807  0  1.052017  0  0  0.113295  0.086108  0  1.056033  0
H  H20  1  0.03553938  0.55263767  0.44490666  1  0  0.342156  0  0.921383  0  0  0.324886  0  0.980207  0  0  0.334579  0  0.97201  0  0  0.294358  0.318041  0  0.985921  0
H  H21  1  0.53553577  0.94736094  0.55509754  1  0  0.342148  0  0.921362  0  0  0.324883  0  0.980173  0  0  0.334575  0  0.97198  0  0  0.294395  0.318036  0  0.985881  0
H  H22  1  0.96447312  0.44736187  0.55509700  1  0  0.34218  0  0.921449  0  0  0.324923  0  0.980232  0  0  0.334613  0  0.972038  0  0  0.294398  0.318078  0  0.985937  0
H  H23  1  0.46446473  0.05263633  0.44490656  1  0  0.342166  0  0.921365  0  0  0.324914  0  0.980153  0  0  0.334607  0  0.971955  0  0  0.29438  0.318071  0  0.985857  0
H  H24  1  0.23576468  0.56177429  0.35931465  1  0  0.326822  0  0.946024  0  0  0.307661  0  1.013765  0  0  0.315079  0  1.008127  0  0  0.293657  0.30243  0  1.017744  0
H  H25  1  0.73576529  0.93822786  0.64068608  1  0  0.326944  0  0.945895  0  0  0.307725  0  1.013708  0  0  0.315143  0  1.008069  0  0  0.293668  0.302492  0  1.017693  0
H  H26  1  0.76424611  0.43822220  0.64068673  1  0  0.326929  0  0.945921  0  0  0.307698  0  1.013732  0  0  0.315116  0  1.00809  0  0  0.293662  0.302468  0  1.0177  0
H  H27  1  0.26423350  0.06178158  0.35932118  1  0  0.326924  0  0.945838  0  0  0.307752  0  1.013577  0  0  0.315171  0  1.007936  0  0  0.293638  0.302516  0  1.017563  0
C  C28  1  0.35741352  0.37177060  0.06979647  1  0  0.256502  0  3.967532  0  0  0.238632  0  4.272635  0  0  0.260017  0  4.287186  0  0  0.13884  0.224175  0  4.26272  0
C  C29  1  0.85740391  0.12822313  0.93019234  1  0  0.25664  0  3.966963  0  0  0.23877  0  4.272109  0  0  0.26016  0  4.286655  0  0  0.138935  0.224308  0  4.262194  0
C  C30  1  0.64258185  0.62823575  0.93019396  1  0  0.256475  0  3.966744  0  0  0.238611  0  4.271889  0  0  0.260001  0  4.286439  0  0  0.138778  0.224151  0  4.261973  0
C  C31  1  0.14256745  0.87177411  0.06980449  1  0  0.256408  0  3.966956  0  0  0.23854  0  4.272107  0  0  0.259931  0  4.286656  0  0  0.138903  0.224084  0  4.262186  0
C  C32  1  0.12114008  0.64222624  0.20684594  1  0  0.258389  0  3.922662  0  0  0.245344  0  4.224556  0  0  0.262374  0  4.240759  0  0  0.138668  0.233758  0  4.213521  0
C  C33  1  0.62115428  0.85777073  0.79315316  1  0  0.258431  0  3.922589  0  0  0.245394  0  4.224457  0  0  0.262424  0  4.240653  0  0  0.138668  0.233806  0  4.213424  0
C  C34  1  0.87885871  0.35777558  0.79315662  1  0  0.258445  0  3.922583  0  0  0.245408  0  4.224461  0  0  0.262438  0  4.240663  0  0  0.138701  0.233817  0  4.213426  0
C  C35  1  0.37884966  0.14222499  0.20684352  1  0  0.258377  0  3.922441  0  0  0.245334  0  4.224327  0  0  0.262367  0  4.240526  0  0  0.138657  0.233739  0  4.213295  0
C  C36  1  0.86016380  0.32191985  0.28416036  1  0  0.125408  0  3.691576  0  0  0.087816  0  3.949345  0  0  0.097274  0  3.966958  0  0  0.043307  0.081873  0  3.937167  0
C  C37  1  0.36016285  0.17807770  0.71583743  1  0  0.125445  0  3.691575  0  0  0.087849  0  3.949351  0  0  0.097314  0  3.966965  0  0  0.043356  0.08191  0  3.937163  0
C  C38  1  0.13984185  0.67807892  0.71583926  1  0  0.125452  0  3.69162  0  0  0.087843  0  3.949387  0  0  0.097318  0  3.967007  0  0  0.043301  0.081904  0  3.937201  0
C  C39  1  0.63982738  0.82192335  0.28416043  1  0  0.12531  0  3.691519  0  0  0.087765  0  3.949266  0  0  0.097236  0  3.966881  0  0  0.043392  0.08183  0  3.937082  0
C  C40  1  0.79808354  0.27893731  0.36050765  1  0  -0.097802  0  3.699346  0  0  -0.109388  0  3.954362  0  0  -0.117668  0  3.973949  0  0  -0.073639  -0.104269  0  3.941261  0
C  C41  1  0.29808875  0.22106108  0.63948997  1  0  -0.097742  0  3.699289  0  0  -0.109288  0  3.954293  0  0  -0.117567  0  3.973877  0  0  -0.073623  -0.104164  0  3.941179  0
C  C42  1  0.20192211  0.72105994  0.63949116  1  0  -0.09783  0  3.699385  0  0  -0.109372  0  3.954353  0  0  -0.117651  0  3.973934  0  0  -0.073592  -0.10425  0  3.941249  0
C  C43  1  0.70189976  0.77893769  0.36050700  1  0  -0.097641  0  3.699176  0  0  -0.109261  0  3.954204  0  0  -0.117543  0  3.973791  0  0  -0.073606  -0.104133  0  3.941091  0
C  C44  1  0.60981875  0.31814230  0.40940537  1  0  0.011107  0  3.648895  0  0  -0.021845  0  3.89708  0  0  -0.014354  0  3.911427  0  0  -0.051758  -0.026342  0  3.887238  0
C  C45  1  0.10981939  0.18185786  0.59059429  1  0  0.010998  0  3.648942  0  0  -0.021919  0  3.897124  0  0  -0.014428  0  3.911469  0  0  -0.05176  -0.026415  0  3.887292  0
C  C46  1  0.39018862  0.68185495  0.59059344  1  0  0.011219  0  3.648953  0  0  -0.021711  0  3.897088  0  0  -0.014216  0  3.911433  0  0  -0.051711  -0.026215  0  3.88725  0
C  C47  1  0.89015883  0.81814320  0.40940753  1  0  0.010881  0  3.649188  0  0  -0.021949  0  3.897306  0  0  -0.014461  0  3.911654  0  0  -0.05176  -0.026454  0  3.887465  0
C  C48  1  0.48828125  0.40008088  0.38137549  1  0  -0.102378  0  3.722485  0  0  -0.074461  0  3.95477  0  0  -0.086995  0  3.978921  0  0  -0.005358  -0.066632  0  3.938671  0
C  C49  1  0.98827854  0.09991880  0.61862434  1  0  -0.102327  0  3.722408  0  0  -0.074401  0  3.95467  0  0  -0.086929  0  3.978818  0  0  -0.005342  -0.066582  0  3.938586  0
C  C50  1  0.51172783  0.59991713  0.61862405  1  0  -0.102517  0  3.72245  0  0  -0.074563  0  3.954735  0  0  -0.087104  0  3.978889  0  0  -0.0054  -0.066716  0  3.938615  0
C  C51  1  0.01170483  0.90008227  0.38138079  1  0  -0.10215  0  3.72238  0  0  -0.074276  0  3.954677  0  0  -0.086797  0  3.978827  0  0  -0.005272  -0.066421  0  3.938549  0
C  C52  1  0.56064286  0.43874570  0.30374812  1  0  0.112927  0  3.655777  0  0  0.073333  0  3.895505  0  0  0.082743  0  3.913932  0  0  0.05035  0.067142  0  3.883369  0
C  C53  1  0.06063513  0.06125300  0.69625187  1  0  0.112983  0  3.655732  0  0  0.073419  0  3.895459  0  0  0.082829  0  3.913878  0  0  0.050326  0.067241  0  3.883314  0
C  C54  1  0.43936794  0.56125384  0.69625290  1  0  0.112954  0  3.655744  0  0  0.073353  0  3.895476  0  0  0.082767  0  3.9139  0  0  0.0503  0.067155  0  3.883344  0
C  C55  1  0.93935852  0.93874654  0.30375113  1  0  0.112828  0  3.655705  0  0  0.073286  0  3.895401  0  0  0.082691  0  3.913821  0  0  0.050294  0.067086  0  3.883282  0
C  C56  1  0.28442111  0.44118923  0.43468698  1  0  0.605669  0  3.875877  0  0  0.556057  0  4.167537  0  0  0.585778  0  4.168722  0  0  0.238214  0.536133  0  4.165976  0
C  C57  1  0.78441767  0.05881222  0.56531286  1  0  0.60554  0  3.875883  0  0  0.555928  0  4.167554  0  0  0.585645  0  4.168742  0  0  0.238186  0.536005  0  4.165992  0
C  C58  1  0.71559140  0.55880955  0.56531595  1  0  0.605785  0  3.875681  0  0  0.556123  0  4.167426  0  0  0.585843  0  4.168609  0  0  0.238245  0.536187  0  4.165875  0
C  C59  1  0.21556912  0.94119112  0.43468918  1  0  0.60564  0  3.875663  0  0  0.556006  0  4.167377  0  0  0.585722  0  4.168569  0  0  0.238218  0.536073  0  4.165819  0
S  S60  1  0.58365617  0.36114627  0.00462913  1  0  -0.208267  0  2.374562  0  0  -0.175053  0  2.745247  0  0  -0.19439  0  2.743844  0  0  -0.090791  -0.162114  0  2.745862  0
S  S61  1  0.08364618  0.13885085  0.99536220  1  0  -0.208349  0  2.37465  0  0  -0.17513  0  2.745299  0  0  -0.19446  0  2.743881  0  0  -0.090825  -0.162194  0  2.745933  0
S  S62  1  0.41634605  0.63886160  0.99536277  1  0  -0.208198  0  2.37466  0  0  -0.174974  0  2.745306  0  0  -0.194307  0  2.743897  0  0  -0.090743  -0.162051  0  2.745957  0
S  S63  1  0.91633376  0.86114489  0.00464109  1  0  -0.208226  0  2.374739  0  0  -0.17501  0  2.745398  0  0  -0.194339  0  2.743984  0  0  -0.090811  -0.162066  0  2.746028  0
S  S64  1  0.91712398  0.64401885  0.13109688  1  0  -0.218173  0  2.371631  0  0  -0.179386  0  2.740789  0  0  -0.198175  0  2.739199  0  0  -0.096999  -0.166728  0  2.741699  0
S  S65  1  0.41712940  0.85598232  0.86890582  1  0  -0.218156  0  2.371481  0  0  -0.179395  0  2.740677  0  0  -0.198185  0  2.739084  0  0  -0.096989  -0.166731  0  2.741582  0
S  S66  1  0.08288338  0.35598145  0.86890289  1  0  -0.218197  0  2.371627  0  0  -0.17943  0  2.740821  0  0  -0.198218  0  2.73923  0  0  -0.097018  -0.16677  0  2.741724  0
S  S67  1  0.58286768  0.14401949  0.13109079  1  0  -0.218169  0  2.371649  0  0  -0.179396  0  2.740827  0  0  -0.198183  0  2.739234  0  0  -0.096997  -0.166725  0  2.741732  0
N  N68  1  0.19417287  0.37651354  0.11641572  1  0  -0.4495  0  2.851562  0  0  -0.399263  0  3.127947  0  0  -0.41886  0  3.136265  0  0  -0.357927  -0.386132  0  3.122151  0
N  N69  1  0.69415613  0.12348039  0.88357178  1  0  -0.449639  0  2.851071  0  0  -0.399417  0  3.127518  0  0  -0.419014  0  3.135832  0  0  -0.358004  -0.386279  0  3.121716  0
N  N70  1  0.80584649  0.62349356  0.88357082  1  0  -0.44962  0  2.850761  0  0  -0.399404  0  3.127218  0  0  -0.419003  0  3.135531  0  0  -0.357952  -0.386268  0  3.121418  0
N  N71  1  0.30582895  0.87651990  0.11642798  1  0  -0.449527  0  2.850802  0  0  -0.399308  0  3.127228  0  0  -0.418908  0  3.135544  0  0  -0.357987  -0.386171  0  3.121431  0
N  N72  1  0.26705241  0.64287847  0.26088856  1  0  -0.456323  0  2.69256  0  0  -0.425535  0  2.927255  0  0  -0.439154  0  2.93737  0  0  -0.335543  -0.416286  0  2.920453  0
N  N73  1  0.76706041  0.85711374  0.73910935  1  0  -0.456411  0  2.692662  0  0  -0.425606  0  2.927347  0  0  -0.439223  0  2.937456  0  0  -0.335577  -0.416359  0  2.920552  0
N  N74  1  0.73294466  0.35712564  0.73911621  1  0  -0.456353  0  2.692509  0  0  -0.425555  0  2.927191  0  0  -0.439173  0  2.937305  0  0  -0.335563  -0.416309  0  2.920389  0
N  N75  1  0.23293324  0.14287743  0.26089152  1  0  -0.456369  0  2.692327  0  0  -0.425578  0  2.927023  0  0  -0.439198  0  2.937137  0  0  -0.335558  -0.416326  0  2.920224  0
N  N76  1  0.74219674  0.40010206  0.25662106  1  0  -0.282216  0  3.286616  0  0  -0.194537  0  3.549322  0  0  -0.217313  0  3.571441  0  0  -0.310528  -0.17918  0  3.533653  0
N  N77  1  0.24218861  0.09989640  0.74337633  1  0  -0.282246  0  3.28659  0  0  -0.19463  0  3.549367  0  0  -0.217406  0  3.571488  0  0  -0.310545  -0.179279  0  3.533708  0
N  N78  1  0.25781405  0.59989824  0.74337871  1  0  -0.282234  0  3.286693  0  0  -0.194566  0  3.549418  0  0  -0.217337  0  3.571526  0  0  -0.310498  -0.179212  0  3.533753  0
N  N79  1  0.75780504  0.90010542  0.25662490  1  0  -0.282172  0  3.286697  0  0  -0.194564  0  3.549461  0  0  -0.21734  0  3.57158  0  0  -0.310591  -0.179217  0  3.533808  0
N  N80  1  0.18023039  0.52403848  0.41076473  1  0  -0.6806  0  3.113463  0  0  -0.639006  0  3.339644  0  0  -0.664206  0  3.336392  0  0  -0.564416  -0.621509  0  3.341426  0
N  N81  1  0.68022574  0.97596298  0.58923769  1  0  -0.680647  0  3.113332  0  0  -0.638989  0  3.33957  0  0  -0.664192  0  3.336319  0  0  -0.564437  -0.62149  0  3.341352  0
N  N82  1  0.81977869  0.47596106  0.58923827  1  0  -0.680792  0  3.113485  0  0  -0.639127  0  3.339796  0  0  -0.664327  0  3.336543  0  0  -0.5645  -0.621623  0  3.341571  0
N  N83  1  0.31976448  0.02403961  0.41076759  1  0  -0.680694  0  3.113325  0  0  -0.639088  0  3.339541  0  0  -0.664283  0  3.336281  0  0  -0.564408  -0.621587  0  3.341323  0
O  O84  1  0.21886862  0.39667752  0.49935480  1  0  -0.591422  0  1.92456  0  0  -0.541627  0  2.141083  0  0  -0.565532  0  2.136857  0  0  -0.303486  -0.524987  0  2.14341  0
O  O85  1  0.71887186  0.10332326  0.50064537  1  0  -0.591324  0  1.924595  0  0  -0.541563  0  2.141152  0  0  -0.565469  0  2.136928  0  0  -0.303455  -0.524923  0  2.143476  0
O  O86  1  0.78114217  0.60332126  0.50064680  1  0  -0.59142  0  1.92445  0  0  -0.541589  0  2.140968  0  0  -0.565495  0  2.136743  0  0  -0.303442  -0.524943  0  2.1433  0
O  O87  1  0.28112179  0.89667704  0.49935638  1  0  -0.591454  0  1.924443  0  0  -0.541639  0  2.140969  0  0  -0.565546  0  2.136749  0  0  -0.303526  -0.524998  0  2.143301  0
