# generated using pymatgen
data_Cd2CuH6C10N4(ClO)4
_symmetry_space_group_name_H-M   'P 1'
_cell_length_a   8.83686011
_cell_length_b   8.83686951
_cell_length_c   13.53228493
_cell_angle_alpha   80.31938164
_cell_angle_beta   80.31944253
_cell_angle_gamma   61.83580519
_symmetry_Int_Tables_number   1
_chemical_formula_structural   Cd2CuH6C10N4(ClO)4
_chemical_formula_sum   'Cd4 Cu2 H12 C20 N8 Cl8 O8'
_cell_volume   913.54810339
_cell_formula_units_Z   2
loop_
 _symmetry_equiv_pos_site_id
 _symmetry_equiv_pos_as_xyz
  1  'x, y, z'
loop_
 _atom_site_type_symbol
 _atom_site_label
 _atom_site_symmetry_multiplicity
 _atom_site_fract_x
 _atom_site_fract_y
 _atom_site_fract_z
 _atom_site_occupancy
 _atom_site_hle17_ddec_charge
 _atom_site_hle17_ddec_spin_density
 _atom_site_hle17_ddec_sum_bond_order
 _atom_site_hle17_magmom
 _atom_site_hse06_10hf_ddec_charge
 _atom_site_hse06_10hf_ddec_spin_density
 _atom_site_hse06_10hf_ddec_sum_bond_order
 _atom_site_hse06_10hf_magmom
 _atom_site_hse06_ddec_charge
 _atom_site_hse06_ddec_spin_density
 _atom_site_hse06_ddec_sum_bond_order
 _atom_site_hse06_magmom
 _atom_site_pbe_cm5_charge
 _atom_site_pbe_ddec_charge
 _atom_site_pbe_ddec_spin_density
 _atom_site_pbe_ddec_sum_bond_order
 _atom_site_pbe_magmom
Cd  Cd0  1  0.13830176  0.96567317  0.36613102  1  1.031181  -0.000212  1.903188  0.0  0.881489  2e-06  2.363244  0.0  0.931183  -6e-06  2.315714  0.0  0.589604  0.846068  3.7e-05  2.395663  0.0
Cd  Cd1  1  0.96567608  0.13829994  0.86613137  1  1.031169  0.000213  1.903221  0.0  0.881487  -1e-06  2.363276  0.0  0.931177  6e-06  2.31575  0.0  0.589594  0.846065  -3.7e-05  2.395688  0.0
Cd  Cd2  1  0.86169698  0.03432684  0.63386899  1  1.031172  -0.000212  1.903173  0.0  0.881472  2e-06  2.363236  0.0  0.931168  -6e-06  2.315706  0.0  0.589593  0.846059  3.7e-05  2.395621  0.0
Cd  Cd3  1  0.03432670  0.86169879  0.13386907  1  1.031158  0.000213  1.903222  0.0  0.881476  -2e-06  2.363274  0.0  0.931167  6e-06  2.315748  0.0  0.589586  0.846054  -3.7e-05  2.395683  0.0
Cu  Cu4  1  0.00000029  0.49999976  0.49999974  1  0.847004  -0.748805  1.906862  -0.525  0.826712  -0.823415  2.299997  -0.637  0.911177  -0.897565  2.233956  -0.722  0.720277  0.776776  -0.766691  2.343395  -0.578
Cu  Cu5  1  0.49999995  0.99999926  0.00000024  1  0.846976  0.748809  1.906877  0.525  0.826738  0.823417  2.300062  0.637  0.911146  0.897566  2.234009  0.722  0.720231  0.776733  0.76669  2.343439  0.578
H  H6  1  0.52519037  0.85182242  0.28889778  1  0.118595  -0.00045  0.976612  -0.001  0.120833  -0.000311  1.04594  -0.001  0.126015  -0.00017  1.041071  -0.001  0.122362  0.11706  -0.000461  1.049511  -0.001
H  H7  1  0.85182173  0.52518926  0.78889752  1  0.118589  0.000448  0.976612  0.001  0.120827  0.000311  1.045935  0.001  0.126011  0.00017  1.041062  0.001  0.122358  0.117059  0.000461  1.049508  0.001
H  H8  1  0.47480951  0.14817757  0.71109988  1  0.11861  -0.000449  0.976606  -0.001  0.120851  -0.000311  1.04593  -0.001  0.126032  -0.00017  1.041062  -0.001  0.122378  0.11708  -0.000461  1.049512  -0.001
H  H9  1  0.14817473  0.47481075  0.21110349  1  0.118644  0.000449  0.976605  0.001  0.120843  0.000311  1.045974  0.001  0.126025  0.00017  1.041106  0.001  0.122378  0.117075  0.000461  1.049546  0.001
H  H10  1  0.33390531  0.78846323  0.58869472  1  0.104428  -0.000557  0.961051  -0.001  0.10633  -0.000486  1.032572  -0.001  0.109403  -0.000344  1.029839  0.0  0.10944  0.103932  -0.000609  1.034788  -0.001
H  H11  1  0.78846421  0.33390171  0.08869358  1  0.104438  0.000557  0.961  0.001  0.106316  0.000487  1.032543  0.001  0.109403  0.000344  1.029794  0.0  0.109433  0.103917  0.000609  1.034748  0.001
H  H12  1  0.66609398  0.21153806  0.41130361  1  0.10444  -0.000559  0.960945  -0.001  0.106292  -0.000487  1.032521  -0.001  0.109391  -0.000343  1.029763  0.0  0.109423  0.10389  -0.000609  1.034721  -0.001
H  H13  1  0.21153865  0.66609186  0.91130891  1  0.10444  0.000556  0.961049  0.001  0.106285  0.000487  1.032616  0.001  0.109359  0.000344  1.029881  0.0  0.10944  0.103885  0.000609  1.034826  0.001
H  H14  1  0.64243045  0.60773221  0.63579796  1  0.119493  -0.001126  0.925966  -0.002  0.124886  -0.000932  0.987823  -0.002  0.128106  -0.000682  0.985098  -0.001  0.126328  0.12232  -0.001118  0.990177  -0.002
H  H15  1  0.60773024  0.64242800  0.13579684  1  0.11946  0.001122  0.926027  0.002  0.124866  0.000932  0.987882  0.002  0.128084  0.000682  0.985161  0.001  0.1263  0.122295  0.001118  0.990222  0.002
H  H16  1  0.35756712  0.39227038  0.36420189  1  0.11948  -0.001126  0.925974  -0.002  0.124879  -0.000932  0.987831  -0.002  0.128098  -0.000682  0.985106  -0.001  0.126318  0.122307  -0.001118  0.990175  -0.002
H  H17  1  0.39227254  0.35757073  0.86420360  1  0.11947  0.001127  0.926037  0.002  0.124868  0.000932  0.987895  0.002  0.128086  0.000682  0.985174  0.001  0.126301  0.122302  0.001118  0.99025  0.002
C  C18  1  0.71704737  0.70317045  0.39289366  1  0.060816  0.00567  3.705131  0.006  0.068499  0.000989  3.94453  0.002  0.066689  0.001861  3.964186  0.003  0.120729  0.068954  0.000347  3.932666  0.001
C  C19  1  0.70316953  0.71704746  0.89289389  1  0.060829  -0.005668  3.705235  -0.006  0.068546  -0.00099  3.944611  -0.002  0.066735  -0.00186  3.964269  -0.003  0.120752  0.068996  -0.000348  3.932771  -0.001
C  C20  1  0.28295193  0.29683085  0.60710541  1  0.060842  0.005651  3.705262  0.006  0.068533  0.000989  3.944657  0.002  0.066724  0.00186  3.964311  0.003  0.120733  0.068985  0.000347  3.932826  0.001
C  C21  1  0.29683154  0.28294997  0.10710615  1  0.060754  -0.005665  3.705192  -0.006  0.068446  -0.000991  3.944604  -0.002  0.066631  -0.001859  3.964265  -0.003  0.120733  0.068907  -0.000349  3.932752  -0.001
C  C22  1  0.54938345  0.79969327  0.36689491  1  0.094743  -0.00567  3.624574  -0.005  0.061161  -0.002045  3.864233  -0.002  0.06552  -0.00219  3.87879  -0.002  0.064477  0.058065  -0.001995  3.855114  -0.002
C  C23  1  0.79969157  0.54938403  0.86689454  1  0.094744  0.005667  3.624634  0.005  0.06116  0.002047  3.86429  0.002  0.065518  0.002189  3.878848  0.002  0.064484  0.058058  0.001995  3.855197  0.002
C  C24  1  0.45061412  0.20030931  0.63310494  1  0.094742  -0.005652  3.624558  -0.005  0.061147  -0.002045  3.864219  -0.002  0.065508  -0.00219  3.878777  -0.002  0.064465  0.058043  -0.001995  3.855137  -0.002
C  C25  1  0.20030371  0.45061856  0.13310631  1  0.094694  0.005664  3.624775  0.005  0.061152  0.002046  3.864435  0.002  0.065511  0.002188  3.878996  0.002  0.064488  0.05805  0.001995  3.855329  0.002
C  C26  1  0.44502783  0.76313570  0.53236105  1  0.100739  -0.008817  3.610364  -0.009  0.071073  -0.00388  3.861259  -0.005  0.074776  -0.003581  3.876534  -0.004  0.067866  0.068566  -0.004076  3.851334  -0.005
C  C27  1  0.76313355  0.44502720  0.03235987  1  0.100763  0.008812  3.610307  0.009  0.071132  0.00388  3.861199  0.005  0.074824  0.00358  3.876467  0.004  0.067901  0.06863  0.004076  3.851264  0.005
C  C28  1  0.55496915  0.23686818  0.46763873  1  0.100713  -0.008788  3.610292  -0.009  0.071074  -0.00388  3.861228  -0.005  0.074755  -0.00358  3.876492  -0.004  0.067883  0.068578  -0.004076  3.851277  -0.005
C  C29  1  0.23686457  0.55497667  0.96763903  1  0.100844  0.008814  3.610044  0.009  0.071233  0.003882  3.860941  0.005  0.074936  0.003579  3.876214  0.004  0.06789  0.068731  0.004078  3.851008  0.005
C  C30  1  0.61393883  0.66514052  0.55911037  1  0.113811  0.006699  3.581477  0.007  0.086368  0.000687  3.836239  0.001  0.091789  0.001807  3.851457  0.003  0.072261  0.08251  -0.000217  3.827009  0.0
C  C31  1  0.66513927  0.61393740  0.05910908  1  0.113842  -0.006688  3.581517  -0.007  0.086379  -0.000685  3.836294  -0.001  0.091797  -0.001807  3.851516  -0.003  0.072292  0.082528  0.000217  3.827043  0.0
C  C32  1  0.38606104  0.33486207  0.44088922  1  0.113865  0.00668  3.581425  0.007  0.086422  0.000688  3.836189  0.001  0.091842  0.001806  3.851411  0.003  0.072283  0.082573  -0.000217  3.826941  0.0
C  C33  1  0.33486473  0.38605617  0.94089181  1  0.113755  -0.006694  3.581593  -0.007  0.086318  -0.000687  3.836337  -0.001  0.091734  -0.001805  3.851559  -0.003  0.072302  0.082463  0.000217  3.827106  0.0
C  C34  1  0.87367768  0.66466291  0.31817371  1  0.616037  0.003999  3.909555  0.006  0.568924  -0.000512  4.208612  0.001  0.605943  -0.000305  4.203368  0.001  0.212005  0.543678  -0.000714  4.211485  0.001
C  C35  1  0.66466524  0.87367605  0.81817147  1  0.616171  -0.003996  3.909455  -0.006  0.569038  0.000513  4.208536  -0.001  0.606055  0.000302  4.203295  -0.001  0.212087  0.543791  0.000714  4.211417  -0.001
C  C36  1  0.12632278  0.33533839  0.68182596  1  0.616024  0.003999  3.909582  0.006  0.568914  -0.000512  4.20865  0.001  0.605934  -0.000305  4.203404  0.001  0.212002  0.543667  -0.000714  4.211534  0.001
C  C37  1  0.33533352  0.12632397  0.18183002  1  0.616267  -0.003997  3.909364  -0.006  0.569136  0.000513  4.208462  -0.001  0.606153  0.000302  4.203219  -0.001  0.212114  0.543881  0.000714  4.211341  -0.001
N  N38  1  0.74775708  0.63557652  0.48857073  1  -0.240991  -0.071267  3.327975  -0.087  -0.203474  -0.050279  3.613434  -0.066  -0.226899  -0.041989  3.634757  -0.058  -0.321307  -0.190108  -0.054566  3.601482  -0.069
N  N39  1  0.63557549  0.74775620  0.98857030  1  -0.241028  0.07126  3.328117  0.087  -0.203545  0.050278  3.613623  0.066  -0.226957  0.041987  3.634928  0.058  -0.321334  -0.190159  0.054563  3.60165  0.069
N  N40  1  0.25224164  0.36442607  0.51142899  1  -0.241053  -0.07125  3.328106  -0.087  -0.203543  -0.050279  3.61359  -0.066  -0.226967  -0.041989  3.63491  -0.058  -0.321344  -0.190181  -0.054563  3.601652  -0.069
N  N41  1  0.36442496  0.25224510  0.01142937  1  -0.240958  0.071259  3.328328  0.087  -0.203464  0.05028  3.613824  0.066  -0.226875  0.041985  3.635133  0.058  -0.321327  -0.190089  0.054565  3.601862  0.069
N  N42  1  0.41408633  0.82841603  0.43670009  1  -0.259074  0.006362  3.209152  0.008  -0.194065  0.002268  3.471704  0.003  -0.208312  0.0025  3.488898  0.003  -0.298154  -0.184536  0.0021  3.460249  0.003
N  N43  1  0.82841437  0.41408712  0.93669976  1  -0.259109  -0.006356  3.209221  -0.008  -0.194103  -0.00227  3.471757  -0.003  -0.20835  -0.002498  3.488958  -0.003  -0.298181  -0.184575  -0.0021  3.460318  -0.003
N  N44  1  0.58591297  0.17158526  0.56329823  1  -0.259091  0.00634  3.209154  0.008  -0.194056  0.002269  3.471677  0.003  -0.208307  0.0025  3.488883  0.003  -0.298149  -0.184528  0.0021  3.460226  0.003
N  N45  1  0.17158387  0.58590904  0.06330371  1  -0.259124  -0.006352  3.209334  -0.008  -0.19413  -0.00227  3.471875  -0.003  -0.208378  -0.002497  3.489072  -0.003  -0.298186  -0.184596  -0.002099  3.460418  -0.003
Cl  Cl46  1  0.01778846  0.79624620  0.51043591  1  -0.586408  0.002161  1.093232  0.001  -0.539351  0.001868  1.398387  0.001  -0.560062  0.001892  1.372276  0.001  -0.303348  -0.524564  0.001742  1.416217  0.0
Cl  Cl47  1  0.79625008  0.01778596  0.01043371  1  -0.586395  -0.002162  1.09323  -0.001  -0.539363  -0.001868  1.398418  -0.001  -0.560066  -0.001892  1.372304  -0.001  -0.303349  -0.524562  -0.001743  1.416238  0.0
Cl  Cl48  1  0.98221262  0.20375124  0.48956487  1  -0.586405  0.002161  1.093224  0.001  -0.539366  0.001868  1.398405  0.001  -0.560076  0.001892  1.372292  0.001  -0.303358  -0.524579  0.001742  1.416229  0.0
Cl  Cl49  1  0.20375037  0.98221534  0.98956596  1  -0.5864  -0.002162  1.093263  -0.001  -0.539367  -0.001868  1.398455  -0.001  -0.560067  -0.001892  1.372332  -0.001  -0.303344  -0.524567  -0.001743  1.416281  0.0
Cl  Cl50  1  0.28810152  0.71189971  0.24999964  1  -0.572414  -0.0  0.993247  0.0  -0.515914  -0.0  1.26859  0.0  -0.536991  -0.0  1.248636  0.0  -0.302399  -0.50018  -0.0  1.28197  0.0
Cl  Cl51  1  0.71189665  0.28810160  0.75000177  1  -0.572413  -0.0  0.993217  0.0  -0.515918  -0.0  1.268569  0.0  -0.536987  -1e-06  1.248603  0.0  -0.302396  -0.500181  0.0  1.281944  0.0
Cl  Cl52  1  0.88787229  0.11212687  0.25000012  1  -0.577716  -0.0  0.966521  0.0  -0.511132  -0.0  1.219308  0.0  -0.531681  0.0  1.196953  0.0  -0.311827  -0.496123  -0.0  1.234431  0.0
Cl  Cl53  1  0.11212934  0.88787184  0.74999971  1  -0.577725  -0.0  0.966511  0.0  -0.511143  -0.0  1.219298  0.0  -0.53169  0.0  1.196939  0.0  -0.311827  -0.496132  -0.0  1.234416  0.0
O  O54  1  0.01776613  0.55679451  0.35226952  1  -0.555454  -0.089405  2.102027  -0.117  -0.532139  -0.057436  2.385682  -0.082  -0.574699  -0.044338  2.379597  -0.067  -0.310374  -0.504332  -0.065524  2.38988  -0.091
O  O55  1  0.55679100  0.01776754  0.85227085  1  -0.55549  0.089414  2.101831  0.117  -0.532201  0.05744  2.385532  0.082  -0.574747  0.04434  2.379424  0.067  -0.310391  -0.504374  0.065528  2.38971  0.091
O  O56  1  0.98223317  0.44320679  0.64773029  1  -0.555448  -0.089409  2.101985  -0.117  -0.532133  -0.057437  2.38563  -0.082  -0.574705  -0.044339  2.379571  -0.067  -0.310374  -0.50432  -0.065524  2.389824  -0.091
O  O57  1  0.44320890  0.98223248  0.14772977  1  -0.555526  0.089415  2.101757  0.117  -0.532227  0.05744  2.385443  0.082  -0.574775  0.04434  2.37934  0.067  -0.310409  -0.504397  0.065531  2.389614  0.091
O  O58  1  0.85505817  0.73661906  0.22969035  1  -0.566349  -0.017947  1.991588  -0.022  -0.520346  -0.008893  2.234584  -0.012  -0.550684  -0.004324  2.227252  -0.006  -0.304911  -0.497841  -0.014074  2.238095  -0.018
O  O59  1  0.73661580  0.85505868  0.72969297  1  -0.566408  0.017933  1.991742  0.022  -0.520382  0.008888  2.234735  0.012  -0.550714  0.004327  2.2274  0.006  -0.304952  -0.497876  0.014069  2.238249  0.018
O  O60  1  0.14494401  0.26338095  0.77030854  1  -0.566318  -0.017946  1.991622  -0.022  -0.520318  -0.008892  2.234621  -0.012  -0.550655  -0.004324  2.227288  -0.006  -0.304884  -0.497811  -0.014072  2.238137  -0.018
O  O61  1  0.26338179  0.14494132  0.27030644  1  -0.566447  0.017932  1.991742  0.022  -0.520427  0.008888  2.234756  0.012  -0.550759  0.004327  2.227419  0.006  -0.304966  -0.49792  0.01407  2.23827  0.018
