# generated using pymatgen
data_CuH10C7N5ClO5
_symmetry_space_group_name_H-M   'P 1'
_cell_length_a   6.98744985
_cell_length_b   9.08300665
_cell_length_c   11.33570264
_cell_angle_alpha   112.75757536
_cell_angle_beta   108.48914692
_cell_angle_gamma   99.13344584
_symmetry_Int_Tables_number   1
_chemical_formula_structural   CuH10C7N5ClO5
_chemical_formula_sum   'Cu2 H20 C14 N10 Cl2 O10'
_cell_volume   595.72806467
_cell_formula_units_Z   2
loop_
 _symmetry_equiv_pos_site_id
 _symmetry_equiv_pos_as_xyz
  1  'x, y, z'
loop_
 _atom_site_type_symbol
 _atom_site_label
 _atom_site_symmetry_multiplicity
 _atom_site_fract_x
 _atom_site_fract_y
 _atom_site_fract_z
 _atom_site_occupancy
 _atom_site_hle17_ddec_charge
 _atom_site_hle17_ddec_spin_density
 _atom_site_hle17_ddec_sum_bond_order
 _atom_site_hle17_magmom
 _atom_site_hse06_10hf_ddec_charge
 _atom_site_hse06_10hf_ddec_spin_density
 _atom_site_hse06_10hf_ddec_sum_bond_order
 _atom_site_hse06_10hf_magmom
 _atom_site_hse06_ddec_charge
 _atom_site_hse06_ddec_spin_density
 _atom_site_hse06_ddec_sum_bond_order
 _atom_site_hse06_magmom
 _atom_site_pbe_cm5_charge
 _atom_site_pbe_ddec_charge
 _atom_site_pbe_ddec_spin_density
 _atom_site_pbe_ddec_sum_bond_order
 _atom_site_pbe_magmom
Cu  Cu0  1  0.31917360  0.35570396  0.78513017  1  0.812545  0.639801  1.765776  0.438  0.793056  0.740798  2.164093  0.558  0.892063  0.837245  2.086034  0.663  0.62842  0.739022  0.677473  2.216959  0.497
Cu  Cu1  1  0.68083218  0.64429831  0.21487277  1  0.81257  -0.639798  1.765833  -0.438  0.793109  -0.740813  2.164185  -0.558  0.892106  -0.837242  2.086113  -0.663  0.628457  0.739067  -0.677444  2.217051  -0.497
H  H2  1  0.08106839  0.22802499  0.12052783  1  0.299522  -4.1e-05  0.870504  0.0  0.290655  -7.7e-05  0.916402  0.0  0.296142  -4.8e-05  0.913687  0.0  0.333427  0.286659  -0.000111  0.91851  0.0
H  H3  1  0.91892833  0.77197724  0.87947350  1  0.299525  4e-05  0.870519  0.0  0.290657  7.7e-05  0.916416  0.0  0.296142  4.8e-05  0.913704  0.0  0.333419  0.286664  0.000111  0.918521  0.0
H  H4  1  0.18327313  0.06862447  0.94629257  1  0.10308  0.000322  0.954461  0.0  0.112387  0.000252  1.02346  0.0  0.115035  0.0002  1.021797  0.0  0.105916  0.110701  0.000269  1.024524  0.0
H  H5  1  0.81671829  0.93137999  0.05370579  1  0.103111  -0.000323  0.954373  0.0  0.112399  -0.000252  1.023397  0.0  0.115043  -0.0002  1.021732  0.0  0.105922  0.110714  -0.000269  1.024459  0.0
H  H6  1  0.37575893  0.03268318  0.07021486  1  0.129742  -0.000672  0.936367  -0.001  0.138136  -0.000679  1.000512  -0.001  0.142026  -0.000506  0.996861  -0.001  0.121113  0.135244  -0.000824  1.003223  -0.001
H  H7  1  0.62423075  0.96731350  0.92977841  1  0.129711  0.000671  0.936384  0.001  0.138121  0.000679  1.000523  0.001  0.142009  0.000506  0.996876  0.001  0.121088  0.135231  0.000825  1.003233  0.001
H  H8  1  0.03138404  0.42124293  0.27518235  1  0.119268  5e-05  0.916113  0.0  0.140183  2.4e-05  0.973718  0.0  0.140173  3.6e-05  0.973911  0.0  0.11205  0.139872  3e-06  0.973932  0.0
H  H9  1  0.96862015  0.57875924  0.72481940  1  0.119213  -5.1e-05  0.916155  0.0  0.140139  -2.4e-05  0.973752  0.0  0.140127  -3.6e-05  0.973947  0.0  0.112025  0.139828  -3e-06  0.973963  0.0
H  H10  1  0.94009549  0.37689480  0.39090806  1  0.139158  5.5e-05  0.945148  0.0  0.158227  3.3e-05  1.00249  0.0  0.161155  2e-05  1.00001  0.0  0.117427  0.156147  4.6e-05  1.004261  0.0
H  H11  1  0.05990987  0.62311006  0.60909639  1  0.139159  -5.6e-05  0.945174  0.0  0.158219  -3.3e-05  1.002526  0.0  0.161157  -2e-05  1.000034  0.0  0.117424  0.156139  -4.6e-05  1.004297  0.0
H  H12  1  0.87122346  0.21094585  0.22056856  1  0.112436  -0.000219  0.952403  0.0  0.12761  -0.00024  1.023209  0.0  0.128264  -0.000191  1.022785  0.0  0.107257  0.126933  -0.000274  1.023647  0.0
H  H13  1  0.12877628  0.78905639  0.77943331  1  0.112443  0.000219  0.952429  0.0  0.127641  0.00024  1.023193  0.0  0.128296  0.000191  1.022768  0.0  0.107265  0.126964  0.000275  1.023633  0.0
H  H14  1  0.77431801  0.09082045  0.43037045  1  0.338675  0.000541  0.899751  0.001  0.317402  0.000193  0.968052  0.0  0.325226  9e-05  0.961516  0.0  0.288411  0.311895  0.000284  0.972668  0.0
H  H15  1  0.22567546  0.90917397  0.56962554  1  0.338659  -0.000541  0.89973  -0.001  0.317376  -0.000193  0.968053  0.0  0.325201  -9e-05  0.961513  0.0  0.288405  0.311871  -0.000284  0.97267  0.0
H  H16  1  0.78043154  0.16320382  0.60117790  1  0.337341  0.000798  0.910808  0.0  0.308979  0.000713  0.992072  0.0  0.317418  0.000304  0.985568  0.0  0.298816  0.303045  0.001131  0.996643  0.0
H  H17  1  0.21956586  0.83679305  0.39881856  1  0.337399  -0.000798  0.910708  0.0  0.309003  -0.000713  0.99202  0.0  0.31745  -0.000304  0.985509  0.0  0.298803  0.303062  -0.001132  0.996601  0.0
H  H18  1  0.20752254  0.44168230  0.98203979  1  0.419148  -0.00037  0.853498  -0.001  0.397428  8.6e-05  0.918786  0.0  0.409274  -1.3e-05  0.901463  0.0  0.29721  0.389404  0.000159  0.928095  0.0
H  H19  1  0.79250365  0.55831780  0.01796880  1  0.419028  0.000369  0.853745  0.001  0.397375  -8.6e-05  0.918851  0.0  0.40921  1.4e-05  0.90154  0.0  0.297203  0.389368  -0.000159  0.928216  0.0
H  H20  1  0.24212955  0.58875228  0.93978492  1  0.406323  0.000264  0.911564  -0.001  0.373574  0.000681  0.979883  0.0  0.386842  0.000484  0.96098  0.0  0.282456  0.364455  0.000806  0.992925  0.0
H  H21  1  0.75787080  0.41124376  0.06021625  1  0.40637  -0.000263  0.911486  0.001  0.373625  -0.000681  0.979797  0.0  0.386891  -0.000483  0.960896  0.0  0.282479  0.364507  -0.000806  0.992837  0.0
C  C22  1  0.28884493  0.21329026  0.28414821  1  0.564762  -0.000763  3.800693  -0.001  0.499829  -0.000658  4.098447  0.0  0.531416  -0.000455  4.102341  0.0  0.365489  0.478412  -0.000731  4.095157  0.0
C  C23  1  0.71115003  0.78670795  0.71584907  1  0.564873  0.00076  3.80035  0.001  0.499944  0.000659  4.0982  0.0  0.531533  0.000456  4.10209  0.0  0.365494  0.478526  0.00073  4.094918  0.0
C  C24  1  0.25774136  0.31087258  0.50500314  1  0.497718  -0.002638  3.856561  -0.001  0.445142  -0.001469  4.15081  0.0  0.47683  -0.000974  4.15485  0.0  0.23627  0.423873  -0.00169  4.148304  -0.001
C  C25  1  0.74225965  0.68912565  0.49499521  1  0.497564  0.002634  3.856635  0.001  0.445082  0.001469  4.150868  0.0  0.476767  0.000974  4.15491  0.0  0.236236  0.423815  0.001689  4.148347  0.001
C  C26  1  0.44040052  0.25811764  0.55291316  1  -0.15605  -0.000714  3.713187  0.004  -0.168767  0.005918  3.995349  0.009  -0.19207  0.001955  4.024815  0.004  0.071148  -0.154899  0.008967  3.978547  0.012
C  C27  1  0.55960140  0.74188303  0.44708512  1  -0.156037  0.00073  3.713242  -0.004  -0.168776  -0.005916  3.995422  -0.009  -0.192075  -0.001954  4.024876  -0.004  0.071113  -0.154905  -0.008969  3.978614  -0.012
C  C28  1  0.54241244  0.19242837  0.46005045  1  0.510722  0.004185  3.824204  0.006  0.473345  0.002637  4.099939  0.004  0.502348  0.00209  4.105035  0.003  0.260465  0.453863  0.002924  4.09672  0.004
C  C29  1  0.45758254  0.80756606  0.53994580  1  0.510777  -0.004191  3.82413  -0.006  0.4734  -0.002637  4.099853  -0.004  0.502407  -0.002091  4.104935  -0.003  0.26052  0.453923  -0.002925  4.096612  -0.004
C  C30  1  0.30387622  0.12653693  0.05535695  1  -0.117274  -0.005272  3.641781  -0.005  -0.175604  -0.00389  3.895498  -0.004  -0.175936  -0.002889  3.900704  -0.003  -0.064095  -0.17498  -0.004545  3.891428  -0.004
C  C31  1  0.69611815  0.87346370  0.94464000  1  -0.117197  0.00528  3.641771  0.005  -0.175583  0.00389  3.895533  0.004  -0.175908  0.002888  3.900735  0.003  -0.064062  -0.174961  0.004546  3.891454  0.004
C  C32  1  0.47101403  0.27279918  0.07237221  1  0.679738  -0.000257  3.835554  0.002  0.631852  -0.002359  4.145071  -0.001  0.66607  -0.001576  4.139902  0.0  0.214591  0.608625  -0.003095  4.14854  -0.001
C  C33  1  0.52897908  0.72720169  0.92762724  1  0.679529  0.000253  3.835807  -0.002  0.631748  0.002359  4.145188  0.001  0.665965  0.001577  4.140027  0.0  0.214577  0.608524  0.003094  4.148649  0.001
C  C34  1  0.99618984  0.32581872  0.30891441  1  -0.16917  -0.00024  3.609307  0.0  -0.275008  -0.000354  3.866694  0.0  -0.269572  -0.000272  3.871939  0.0  -0.141136  -0.278235  -0.000403  3.862935  0.0
C  C35  1  0.00381032  0.67418469  0.69108696  1  -0.169225  0.000242  3.60939  0.0  -0.275015  0.000354  3.86683  0.0  -0.269585  0.000272  3.872069  0.0  -0.141139  -0.278235  0.000402  3.863059  0.0
N  N36  1  0.46375566  0.17435149  0.32871577  1  -0.518394  0.005071  2.971653  0.006  -0.489308  0.002756  3.256968  0.003  -0.515127  0.001514  3.263373  0.002  -0.339447  -0.471853  0.003904  3.252305  0.004
N  N37  1  0.53623941  0.82564303  0.67128141  1  -0.518435  -0.00507  2.971606  -0.006  -0.489305  -0.002757  3.256917  -0.003  -0.515125  -0.001513  3.263312  -0.002  -0.339439  -0.471851  -0.003904  3.252252  -0.004
N  N38  1  0.18808460  0.28670989  0.36750535  1  -0.244979  -0.00177  3.437347  -0.001  -0.153448  -0.001699  3.671686  -0.001  -0.176594  -0.001404  3.687316  -0.001  -0.250724  -0.137567  -0.001827  3.660202  -0.001
N  N39  1  0.81191691  0.71328960  0.63249342  1  -0.244809  0.001772  3.437099  0.001  -0.153489  0.001699  3.671684  0.001  -0.176639  0.001405  3.687318  0.001  -0.250679  -0.137606  0.001827  3.660203  0.001
N  N40  1  0.19983139  0.18061256  0.14898021  1  -0.362681  -0.001954  3.302716  -0.002  -0.306631  -0.000858  3.55125  -0.001  -0.327281  -0.000584  3.56033  0.0  -0.402404  -0.292339  -0.00115  3.544445  -0.001
N  N41  1  0.80016676  0.81938959  0.85102047  1  -0.362779  0.001955  3.302643  0.002  -0.306706  0.000858  3.551202  0.001  -0.327357  0.000585  3.560279  0.0  -0.402435  -0.292411  0.00115  3.544396  0.001
N  N42  1  0.49518770  0.27135190  0.68286732  1  0.06216  0.116388  3.444296  0.133  0.077214  0.082653  3.781298  0.103  0.072319  0.064442  3.801031  0.087  -0.186873  0.076081  0.09127  3.770467  0.108
N  N43  1  0.50481489  0.72865018  0.31713324  1  0.062151  -0.1164  3.444455  -0.133  0.077189  -0.082653  3.781499  -0.103  0.072298  -0.064446  3.801221  -0.087  -0.186937  0.076051  -0.091281  3.770718  -0.108
N  N44  1  0.71290180  0.14732970  0.50103701  1  -0.586461  -0.004433  3.1339  -0.005  -0.548986  -0.000989  3.371518  -0.001  -0.571613  -0.001386  3.369502  -0.002  -0.531412  -0.534221  -0.000381  3.373075  0.0
N  N45  1  0.28709570  0.85266349  0.49895934  1  -0.58652  0.004441  3.133845  0.005  -0.549012  0.000989  3.371495  0.001  -0.571648  0.001386  3.369451  0.002  -0.531392  -0.534243  0.00038  3.373057  0.0
Cl  Cl46  1  0.11304499  0.09060204  0.71468070  1  -0.542507  0.10045  0.924002  0.11  -0.520532  0.068661  1.193301  0.08  -0.541849  0.057651  1.167223  0.071  -0.301128  -0.508902  0.072076  1.212615  0.08
Cl  Cl47  1  0.88695778  0.90939721  0.28531558  1  -0.542527  -0.100447  0.924005  -0.11  -0.520545  -0.068657  1.193323  -0.08  -0.541862  -0.057652  1.167246  -0.071  -0.301136  -0.508914  -0.072075  1.212639  -0.08
O  O48  1  0.61667814  0.24078555  0.03449547  1  -0.596904  -0.000738  1.987368  -0.001  -0.543071  -0.000734  2.212499  -0.001  -0.56839  -0.000356  2.203727  0.0  -0.301014  -0.525704  -0.001024  2.21853  -0.001
O  O49  1  0.38331078  0.75921262  0.96550074  1  -0.596801  0.000739  1.987309  0.001  -0.543004  0.000735  2.212384  0.001  -0.568322  0.000357  2.203617  0.0  -0.301015  -0.525643  0.001023  2.218418  0.001
O  O50  1  0.44368070  0.41784562  0.12123992  1  -0.66743  -0.052807  2.10021  -0.066  -0.626774  -0.041731  2.382923  -0.057  -0.664417  -0.034887  2.370365  -0.051  -0.340429  -0.603275  -0.045138  2.392747  -0.058
O  O51  1  0.55632070  0.58216056  0.87876508  1  -0.667335  0.052812  2.100351  0.066  -0.62673  0.041735  2.382985  0.057  -0.66437  0.034888  2.370428  0.051  -0.340412  -0.603235  0.045142  2.392817  0.058
O  O52  1  0.16593467  0.37434631  0.57999093  1  -0.523121  -0.003756  2.040555  -0.004  -0.49044  -0.000507  2.293115  0.0  -0.5209  -0.001143  2.288019  -0.001  -0.283724  -0.471184  0.000171  2.297166  0.001
O  O53  1  0.83406985  0.62565696  0.42000940  1  -0.52306  0.00376  2.040592  0.004  -0.490373  0.000506  2.29312  0.0  -0.520842  0.001142  2.288044  0.001  -0.283687  -0.471119  -0.00017  2.297167  -0.001
O  O54  1  0.65187508  0.23425386  0.73997356  1  -0.254896  0.107465  1.826616  0.126  -0.238607  0.055398  2.054458  0.071  -0.264265  0.027295  2.063799  0.037  -0.110233  -0.220244  0.077204  2.048343  0.095
O  O55  1  0.34812844  0.76574690  0.26002591  1  -0.254913  -0.107488  1.826644  -0.126  -0.238608  -0.055396  2.054482  -0.071  -0.264267  -0.027296  2.063822  -0.037  -0.110199  -0.22024  -0.077228  2.048394  -0.095
O  O56  1  0.16265409  0.46370136  0.90073738  1  -0.792509  0.047098  1.947078  0.057  -0.747866  0.037536  2.155636  0.049  -0.774614  0.03376  2.115862  0.047  -0.587875  -0.730855  0.038573  2.180955  0.048
O  O57  1  0.83735473  0.53629638  0.09927017  1  -0.792406  -0.047094  1.947297  -0.057  -0.747857  -0.037533  2.155816  -0.049  -0.774574  -0.033761  2.116046  -0.047  -0.587872  -0.730865  -0.038567  2.18116  -0.048
