# generated using pymatgen
data_CuH7C10N3O4
_symmetry_space_group_name_H-M   'P 1'
_cell_length_a   5.27870110
_cell_length_b   11.89562074
_cell_length_c   16.41990532
_cell_angle_alpha   89.99960745
_cell_angle_beta   89.99905943
_cell_angle_gamma   89.99728448
_symmetry_Int_Tables_number   1
_chemical_formula_structural   CuH7C10N3O4
_chemical_formula_sum   'Cu4 H28 C40 N12 O16'
_cell_volume   1031.06211302
_cell_formula_units_Z   4
loop_
 _symmetry_equiv_pos_site_id
 _symmetry_equiv_pos_as_xyz
  1  'x, y, z'
loop_
 _atom_site_type_symbol
 _atom_site_label
 _atom_site_symmetry_multiplicity
 _atom_site_fract_x
 _atom_site_fract_y
 _atom_site_fract_z
 _atom_site_occupancy
 _atom_site_hle17_ddec_charge
 _atom_site_hle17_ddec_spin_density
 _atom_site_hle17_ddec_sum_bond_order
 _atom_site_hle17_magmom
 _atom_site_hse06_10hf_ddec_charge
 _atom_site_hse06_10hf_ddec_spin_density
 _atom_site_hse06_10hf_ddec_sum_bond_order
 _atom_site_hse06_10hf_magmom
 _atom_site_hse06_ddec_charge
 _atom_site_hse06_ddec_spin_density
 _atom_site_hse06_ddec_sum_bond_order
 _atom_site_hse06_magmom
 _atom_site_pbe_cm5_charge
 _atom_site_pbe_ddec_charge
 _atom_site_pbe_ddec_spin_density
 _atom_site_pbe_ddec_sum_bond_order
 _atom_site_pbe_magmom
Cu  Cu0  1  0.29452423  0.93459466  0.45239725  1  0.833685  0.722666  1.831896  0.509  0.811818  0.805925  2.222863  0.627  0.906831  0.883567  2.153249  0.719  0.752737  0.751243  0.746336  2.274158  0.564
Cu  Cu1  1  0.20556753  0.06538470  0.95239267  1  0.833417  0.72254  1.831964  0.509  0.811775  0.805838  2.222599  0.627  0.90647  0.88348  2.153418  0.719  0.752718  0.75116  0.746251  2.273893  0.564
Cu  Cu2  1  0.79454070  0.56542108  0.54760037  1  0.833431  -0.722531  1.831923  -0.509  0.811692  -0.805839  2.2228  -0.627  0.906612  -0.883486  2.153296  -0.719  0.752657  0.751101  -0.746264  2.274043  -0.564
Cu  Cu3  1  0.70543812  0.43457475  0.04758608  1  0.833607  -0.722596  1.831882  -0.509  0.811738  -0.805886  2.222932  -0.627  0.906804  -0.883553  2.153243  -0.719  0.752648  0.75128  -0.746327  2.274067  -0.564
H  H4  1  0.38878780  0.56365258  0.32208606  1  0.120685  0.000959  0.930417  0.001  0.130071  0.000771  0.987683  0.001  0.132678  0.000501  0.987517  0.001  0.115383  0.128049  0.00099  0.988023  0.001
H  H5  1  0.11113285  0.43635175  0.82214024  1  0.120318  0.00096  0.930799  0.001  0.129774  0.000771  0.987987  0.001  0.132382  0.0005  0.987819  0.001  0.115297  0.127742  0.000988  0.988361  0.001
H  H6  1  0.88883300  0.93636824  0.67787201  1  0.120313  -0.000959  0.930591  -0.001  0.129731  -0.00077  0.98786  -0.001  0.132341  -0.0005  0.98769  -0.001  0.115187  0.127696  -0.000988  0.988246  -0.001
H  H7  1  0.61123167  0.06364634  0.17791704  1  0.120474  -0.000959  0.930571  -0.001  0.129882  -0.000771  0.987835  -0.001  0.132482  -0.0005  0.987688  -0.001  0.115284  0.127861  -0.000989  0.988174  -0.001
H  H8  1  0.76956223  0.61937810  0.23701569  1  0.12189  0.000169  0.95238  0.0  0.13254  -2.3e-05  1.009963  0.0  0.135817  -1.6e-05  1.007124  0.0  0.112564  0.12988  -2.5e-05  1.012446  0.0
H  H9  1  0.73039461  0.38063461  0.73707672  1  0.121783  0.000168  0.952625  0.0  0.132482  -2.3e-05  1.010145  0.0  0.13576  -1.6e-05  1.007311  0.0  0.112573  0.129829  -2.5e-05  1.012622  0.0
H  H10  1  0.26960218  0.88064353  0.76293922  1  0.12195  -0.000168  0.952469  0.0  0.132611  2.3e-05  1.010058  0.0  0.135887  1.6e-05  1.007227  0.0  0.11264  0.129961  2.5e-05  1.01254  0.0
H  H11  1  0.23042819  0.11936772  0.26297885  1  0.121989  -0.000168  0.95241  0.0  0.132637  2.3e-05  1.009985  0.0  0.135911  1.5e-05  1.007153  0.0  0.112623  0.129977  2.5e-05  1.012468  0.0
H  H12  1  0.92605228  0.81914569  0.24466894  1  0.113976  0.000929  0.937056  0.001  0.125525  0.000793  0.994441  0.001  0.127878  0.000534  0.994516  0.001  0.114084  0.123685  0.001001  0.994612  0.001
H  H13  1  0.57398517  0.18085176  0.74468422  1  0.113838  0.00093  0.936806  0.001  0.125382  0.000793  0.994226  0.001  0.12773  0.000535  0.994307  0.001  0.114049  0.123551  0.001002  0.994391  0.001
H  H14  1  0.42603000  0.68085581  0.75534040  1  0.113872  -0.00093  0.936642  -0.001  0.125386  -0.000793  0.994107  -0.001  0.127736  -0.000535  0.994185  -0.001  0.114027  0.12355  -0.001002  0.994273  -0.001
H  H15  1  0.07391975  0.31913035  0.25532727  1  0.113929  -0.000928  0.937061  -0.001  0.125492  -0.000793  0.994409  -0.001  0.127843  -0.000534  0.994483  -0.001  0.11402  0.12366  -0.001001  0.994574  -0.001
H  H16  1  0.45234732  0.05911738  0.60652622  1  0.111833  6.3e-05  0.958336  0.0  0.122137  3.1e-05  1.018739  0.0  0.125582  5.5e-05  1.015093  0.0  0.121961  0.119446  -9e-06  1.021456  0.0
H  H17  1  0.04771533  0.94087810  0.10654474  1  0.111769  6.3e-05  0.958481  0.0  0.122114  3e-05  1.018856  0.0  0.125522  5.5e-05  1.015252  0.0  0.122015  0.119439  -9e-06  1.021556  0.0
H  H18  1  0.95231385  0.44089259  0.39345442  1  0.111769  -6.3e-05  0.958407  0.0  0.122195  -3.1e-05  1.018678  0.0  0.12557  -5.5e-05  1.015112  0.0  0.122024  0.119512  9e-06  1.021375  0.0
H  H19  1  0.54766186  0.55909301  0.89345830  1  0.111773  -6.3e-05  0.958383  0.0  0.122151  -3e-05  1.018721  0.0  0.125567  -5.5e-05  1.015127  0.0  0.122039  0.119518  9e-06  1.021354  0.0
H  H20  1  0.19813537  0.24810152  0.66375615  1  0.125283  0.000312  0.976016  0.0  0.135434  0.000218  1.033988  0.0  0.138897  0.000157  1.033324  0.0  0.105075  0.133018  0.000258  1.034495  0.0
H  H21  1  0.30192670  0.75190474  0.16377039  1  0.125344  0.000312  0.97583  0.0  0.135423  0.000218  1.033901  0.0  0.138898  0.000157  1.033238  0.0  0.105032  0.133017  0.000258  1.034356  0.0
H  H22  1  0.69806360  0.25193696  0.33622221  1  0.125345  -0.000311  0.975941  0.0  0.135384  -0.000218  1.034036  0.0  0.13884  -0.000157  1.033412  0.0  0.10507  0.13299  -0.000258  1.034467  0.0
H  H23  1  0.80185398  0.74807655  0.83621360  1  0.125382  -0.000311  0.976203  0.0  0.13543  -0.000218  1.034256  0.0  0.138897  -0.000156  1.033606  0.0  0.105021  0.133031  -0.000258  1.034705  0.0
H  H24  1  0.77160207  0.25687543  0.56730402  1  0.111757  0.000568  0.950971  0.001  0.122473  0.000341  1.010355  0.0  0.124564  0.000275  1.009016  0.0  0.127125  0.120871  0.000383  1.011415  0.0
H  H25  1  0.72841785  0.74310493  0.06729861  1  0.111658  0.000569  0.950755  0.001  0.12237  0.000341  1.010186  0.0  0.124465  0.000276  1.008837  0.0  0.127104  0.120768  0.000383  1.011243  0.0
H  H26  1  0.27155350  0.24317316  0.43269888  1  0.1116  -0.000567  0.950766  -0.001  0.122358  -0.000341  1.010203  0.0  0.124456  -0.000275  1.008848  0.0  0.127058  0.12075  -0.000383  1.01127  0.0
H  H27  1  0.22840243  0.75684943  0.93267852  1  0.111517  -0.000567  0.950995  -0.001  0.122282  -0.000341  1.01041  0.0  0.124377  -0.000275  1.009067  0.0  0.127041  0.120675  -0.000383  1.011478  0.0
H  H28  1  0.80361587  0.09031920  0.46937804  1  0.293946  -0.000101  0.942633  0.0  0.272037  0.000121  1.008873  0.0  0.281095  4.6e-05  1.002417  0.0  0.316784  0.265532  0.000186  1.013706  0.0
H  H29  1  0.69644456  0.90964575  0.96937843  1  0.293799  -0.0001  0.94298  0.0  0.271906  0.000121  1.00917  0.0  0.280922  4.7e-05  1.002746  0.0  0.316816  0.265425  0.000187  1.013998  0.0
H  H30  1  0.30363312  0.40972184  0.53062713  1  0.294162  0.000101  0.942652  0.0  0.27221  -0.00012  1.008889  0.0  0.281235  -4.6e-05  1.002442  0.0  0.316908  0.265728  -0.000186  1.013709  0.0
H  H31  1  0.19633535  0.59028926  0.03061651  1  0.294058  0.000101  0.9427  0.0  0.272099  -0.00012  1.008919  0.0  0.281122  -4.6e-05  1.002478  0.0  0.316805  0.265615  -0.000186  1.013743  0.0
C  C32  1  0.12781541  0.71340084  0.42843549  1  0.61603  -0.004  3.913399  -0.006  0.575872  0.001108  4.213557  0.0  0.615036  0.001037  4.205201  0.001  0.208181  0.549385  0.001205  4.217577  0.0
C  C33  1  0.37214878  0.28659155  0.92844916  1  0.615751  -0.004008  3.913576  -0.006  0.575737  0.001106  4.213599  0.0  0.614901  0.001034  4.205242  0.001  0.208284  0.549269  0.001203  4.217575  0.0
C  C34  1  0.62784742  0.78660897  0.57155710  1  0.615935  0.00401  3.91383  0.006  0.575724  -0.001103  4.214015  0.0  0.61488  -0.001032  4.205678  -0.001  0.208316  0.549264  -0.001199  4.217991  0.0
C  C35  1  0.87219265  0.21338393  0.07156993  1  0.615873  0.004006  3.914093  0.006  0.575827  -0.001103  4.214022  0.0  0.614963  -0.001032  4.205692  -0.001  0.208206  0.549365  -0.0012  4.218012  0.0
C  C36  1  0.34653642  0.72993099  0.37079773  1  0.119793  -0.006288  3.722544  -0.007  0.123466  -0.000843  3.964154  -0.002  0.129071  -0.00186  3.979892  -0.003  0.121883  0.119343  -5.2e-05  3.954324  -0.001
C  C37  1  0.15345892  0.27007838  0.87080368  1  0.119645  -0.006278  3.723354  -0.007  0.123323  -0.000844  3.964916  -0.002  0.12893  -0.001861  3.980624  -0.003  0.121815  0.119219  -5.6e-05  3.955086  -0.001
C  C38  1  0.84652758  0.77007805  0.62920199  1  0.119209  0.006285  3.723048  0.007  0.123038  0.000845  3.964497  0.002  0.128641  0.00186  3.980227  0.003  0.121742  0.118915  5.5e-05  3.95467  0.001
C  C39  1  0.65349271  0.22991889  0.12920281  1  0.119074  0.006278  3.72268  0.007  0.122921  0.000841  3.964039  0.002  0.128522  0.00186  3.979789  0.003  0.121676  0.118808  5e-05  3.954219  0.001
C  C40  1  0.46185533  0.64916138  0.32190767  1  -0.069067  0.007532  3.621967  0.007  -0.094749  0.0029  3.871175  0.003  -0.098181  0.002932  3.888015  0.003  -0.058775  -0.092783  0.00289  3.860777  0.003
C  C41  1  0.03807679  0.35086314  0.82193678  1  -0.068591  0.007506  3.622412  0.007  -0.094413  0.002899  3.871747  0.003  -0.097836  0.002931  3.888597  0.003  -0.05882  -0.09247  0.00289  3.861376  0.003
C  C42  1  0.96189989  0.85087124  0.67806761  1  -0.068282  -0.007516  3.621797  -0.007  -0.094094  -0.002899  3.871071  -0.003  -0.097511  -0.002932  3.88791  -0.003  -0.058601  -0.092154  -0.002888  3.86072  -0.003
C  C43  1  0.53810026  0.14913998  0.17807954  1  -0.068438  -0.007521  3.621492  -0.007  -0.094245  -0.002897  3.870715  -0.003  -0.097672  -0.002931  3.88755  -0.003  -0.058601  -0.092303  -0.002887  3.860358  -0.003
C  C44  1  0.67158629  0.68065492  0.27505657  1  0.007092  -0.008335  3.629957  -0.008  -0.009896  -0.00227  3.879503  -0.002  -0.005723  -0.002672  3.894208  -0.003  -0.055175  -0.013255  -0.001943  3.870664  -0.002
C  C45  1  0.82844222  0.31936721  0.77508926  1  0.0073  -0.00831  3.630258  -0.008  -0.00972  -0.00227  3.879921  -0.002  -0.005527  -0.002671  3.89455  -0.003  -0.055073  -0.013089  -0.001945  3.871123  -0.002
C  C46  1  0.17156966  0.81937592  0.72492429  1  0.007042  0.008325  3.630068  0.008  -0.010024  0.002271  3.879842  0.002  -0.005834  0.002674  3.894483  0.003  -0.05521  -0.013394  0.001944  3.87103  0.002
C  C47  1  0.32834547  0.18064693  0.22493548  1  0.007089  0.008322  3.630238  0.008  -0.009923  0.002266  3.87981  0.002  -0.005752  0.002669  3.894511  0.003  -0.055159  -0.013284  0.001939  3.870977  0.002
C  C48  1  0.76056865  0.79128890  0.27872026  1  -0.092596  0.008019  3.671764  0.008  -0.116692  0.003224  3.920381  0.003  -0.121667  0.003146  3.940124  0.003  -0.06551  -0.113515  0.003277  3.907835  0.003
C  C49  1  0.73948606  0.20870796  0.77874291  1  -0.092248  0.007991  3.671432  0.008  -0.116368  0.00322  3.920035  0.003  -0.121326  0.003142  3.939785  0.003  -0.065283  -0.113198  0.003273  3.9075  0.003
C  C50  1  0.26052312  0.70871675  0.72127194  1  -0.09246  -0.008005  3.671258  -0.008  -0.116473  -0.003222  3.919892  -0.003  -0.121445  -0.003144  3.939649  -0.003  -0.065329  -0.113294  -0.003274  3.907348  -0.003
C  C51  1  0.23938855  0.29127421  0.22126562  1  -0.092986  -0.008011  3.672514  -0.008  -0.116958  -0.003223  3.921123  -0.003  -0.12193  -0.003144  3.940858  -0.003  -0.065562  -0.113782  -0.003277  3.90858  -0.003
C  C52  1  0.63804136  0.86718611  0.32986593  1  0.109  -0.005533  3.741373  -0.006  0.114164  -0.000314  3.981597  -0.001  0.118414  -0.001396  4.000827  -0.003  0.116008  0.110953  0.000542  3.969532  0.0
C  C53  1  0.86200888  0.13280649  0.82987006  1  0.10868  -0.005504  3.741639  -0.006  0.113876  -0.000312  3.981821  -0.001  0.118115  -0.001392  4.001025  -0.003  0.115756  0.110683  0.000544  3.969764  0.0
C  C54  1  0.13797875  0.63281109  0.67015094  1  0.108915  0.005516  3.741396  0.006  0.11405  0.000311  3.981703  0.001  0.118305  0.001393  4.000908  0.003  0.116001  0.110839  -0.000544  3.969647  0.0
C  C55  1  0.36197716  0.36717067  0.17015156  1  0.109558  0.005527  3.741818  0.006  0.114515  0.000311  3.982301  0.001  0.118773  0.001392  4.001522  0.003  0.116065  0.111302  -0.000543  3.970248  0.0
C  C56  1  0.72193738  0.98505622  0.34927744  1  0.600215  -0.002713  3.92167  -0.004  0.553346  0.000758  4.232257  0.0  0.588803  0.000762  4.22479  0.001  0.207298  0.528956  0.000762  4.236267  0.0
C  C57  1  0.77815225  0.01494192  0.84928216  1  0.600798  -0.00272  3.921193  -0.004  0.553829  0.000755  4.231782  0.0  0.589278  0.000757  4.224303  0.001  0.207525  0.52946  0.000759  4.235785  0.0
C  C58  1  0.22185506  0.51494689  0.65075598  1  0.600525  0.002724  3.920744  0.004  0.553519  -0.000752  4.231559  0.0  0.588959  -0.000757  4.224103  -0.001  0.207452  0.52915  -0.000756  4.235555  0.0
C  C59  1  0.27806335  0.48503437  0.15072595  1  0.599981  0.00272  3.921682  0.004  0.553076  -0.000755  4.232383  0.0  0.588528  -0.00076  4.224935  -0.001  0.207253  0.528685  -0.00076  4.23639  0.0
C  C60  1  0.27618853  0.09692724  0.58659154  1  0.041162  -0.004732  3.719679  -0.004  0.004406  -0.001223  3.991008  -0.001  0.015109  -0.001817  4.004324  -0.002  0.012708  -0.002126  -0.0008  3.981999  0.0
C  C61  1  0.22384263  0.90308372  0.08659246  1  0.041266  -0.00473  3.719519  -0.004  0.004442  -0.001222  3.990864  -0.001  0.015179  -0.001817  4.004172  -0.002  0.012683  -0.002109  -0.000799  3.981847  0.0
C  C62  1  0.77617196  0.40308940  0.41340003  1  0.041326  0.004731  3.719462  0.004  0.004472  0.001223  3.99081  0.001  0.015239  0.001818  4.004155  0.002  0.012682  -0.002071  0.000801  3.98177  0.0
C  C63  1  0.72380872  0.59691519  0.91339417  1  0.041123  0.004737  3.719421  0.004  0.004286  0.001226  3.990811  0.001  0.015002  0.00182  4.004168  0.002  0.012563  -0.002294  0.000803  3.98176  0.0
C  C64  1  0.14362375  0.19063792  0.61573743  1  -0.219934  0.002862  3.793889  0.003  -0.231126  0.001013  4.050845  0.001  -0.240139  0.001027  4.069031  0.001  -0.12129  -0.225193  0.000973  4.038309  0.001
C  C65  1  0.35637839  0.80937001  0.11573314  1  -0.220066  0.002861  3.793769  0.003  -0.231187  0.001013  4.050755  0.001  -0.240211  0.001028  4.068939  0.001  -0.121295  -0.225239  0.000973  4.038211  0.001
C  C66  1  0.64356166  0.30939465  0.38424541  1  -0.219992  -0.002862  3.793582  -0.003  -0.231055  -0.001013  4.050602  -0.001  -0.240082  -0.001029  4.068779  -0.001  -0.121167  -0.225111  -0.000973  4.038063  -0.001
C  C67  1  0.85639312  0.69062138  0.88423481  1  -0.219893  -0.002861  3.793838  -0.003  -0.230984  -0.001012  4.050817  -0.001  -0.240012  -0.001028  4.069017  -0.001  -0.121008  -0.225043  -0.000973  4.038292  -0.001
C  C68  1  0.92812614  0.19790333  0.56714064  1  0.053984  -0.00363  3.677404  -0.003  0.00896  -0.00043  3.937006  0.0  0.01934  -0.000958  3.949238  -0.001  0.022471  0.002428  -7.3e-05  3.928453  0.0
C  C69  1  0.57188820  0.80209469  0.06712520  1  0.054145  -0.003635  3.677031  -0.003  0.009126  -0.00043  3.936653  0.0  0.019452  -0.000959  3.94888  -0.001  0.022579  0.002624  -7.3e-05  3.928117  0.0
C  C70  1  0.42807993  0.30214783  0.43284909  1  0.054255  0.003631  3.677256  0.003  0.009105  0.000429  3.936817  0.0  0.019443  0.000957  3.94902  0.001  0.022547  0.002593  7.3e-05  3.928311  0.0
C  C71  1  0.07187780  0.69787223  0.93283403  1  0.054394  0.003629  3.677188  0.003  0.009217  0.00043  3.93675  0.0  0.019553  0.000958  3.948952  0.001  0.022441  0.002705  7.3e-05  3.928235  0.0
N  N72  1  0.15013236  0.05022907  0.52368292  1  -0.225118  0.045927  3.232138  0.054  -0.199  0.031873  3.552856  0.039  -0.222922  0.027912  3.568588  0.036  -0.284711  -0.18483  0.033364  3.54449  0.04
N  N73  1  0.34993882  0.94978215  0.02368063  1  -0.224929  0.045952  3.232008  0.054  -0.198821  0.031889  3.552808  0.039  -0.222723  0.027928  3.568468  0.036  -0.284653  -0.184611  0.033378  3.544464  0.04
N  N74  1  0.65015096  0.44978165  0.47631427  1  -0.225106  -0.045921  3.232652  -0.054  -0.199093  -0.031873  3.553438  -0.039  -0.223042  -0.027913  3.569101  -0.036  -0.2847  -0.184894  -0.03336  3.545082  -0.04
N  N75  1  0.84983706  0.55021680  0.97630891  1  -0.224993  -0.045914  3.232341  -0.054  -0.198936  -0.031869  3.55306  -0.039  -0.222907  -0.02791  3.568739  -0.036  -0.284688  -0.18477  -0.033354  3.544733  -0.04
N  N76  1  0.43548012  0.83508565  0.37267699  1  -0.30496  0.097623  3.447894  0.119  -0.2697  0.064997  3.730689  0.085  -0.300545  0.05274  3.752648  0.072  -0.357016  -0.251851  0.070752  3.719004  0.089
N  N77  1  0.06456522  0.16493293  0.87268753  1  -0.304883  0.097561  3.448118  0.119  -0.269551  0.064971  3.730742  0.085  -0.300319  0.052719  3.752675  0.072  -0.356778  -0.251733  0.07072  3.719084  0.089
N  N78  1  0.93544960  0.66492174  0.62732066  1  -0.304596  -0.097541  3.447672  -0.119  -0.269243  -0.064963  3.730302  -0.085  -0.300065  -0.052716  3.752237  -0.072  -0.356808  -0.251397  -0.070696  3.718628  -0.089
N  N79  1  0.56450931  0.33508869  0.12733443  1  -0.304766  -0.097588  3.447692  -0.119  -0.269497  -0.064984  3.730487  -0.085  -0.300348  -0.052726  3.752441  -0.072  -0.356866  -0.251684  -0.070726  3.718825  -0.089
N  N80  1  0.93923215  0.11300870  0.51269850  1  -0.154639  0.003234  3.474691  0.004  -0.087985  0.002279  3.709783  0.003  -0.099263  0.001974  3.728497  0.002  -0.274764  -0.080474  0.002436  3.697617  0.003
N  N81  1  0.56080002  0.88699363  0.01269156  1  -0.154543  0.003235  3.475158  0.004  -0.087943  0.002281  3.710289  0.003  -0.09907  0.001975  3.72885  0.002  -0.274942  -0.080541  0.002437  3.698222  0.003
N  N82  1  0.43922181  0.38703153  0.48730094  1  -0.155033  -0.003239  3.475117  -0.004  -0.088215  -0.002277  3.710151  -0.003  -0.099355  -0.001972  3.728729  -0.002  -0.275004  -0.080805  -0.002435  3.698076  -0.003
N  N83  1  0.06075218  0.61298085  0.98728719  1  -0.155142  -0.003234  3.474892  -0.004  -0.088281  -0.00228  3.709893  -0.003  -0.099421  -0.001976  3.728475  -0.002  -0.274851  -0.080866  -0.002436  3.697816  -0.003
O  O84  1  0.58331078  0.03539111  0.40428304  1  -0.60461  0.07664  2.035162  0.101  -0.573108  0.055021  2.306073  0.08  -0.615609  0.041082  2.299828  0.063  -0.317636  -0.544195  0.064174  2.310597  0.089
O  O85  1  0.91672846  0.96460187  0.90429242  1  -0.604798  0.076624  2.035001  0.101  -0.573169  0.055016  2.305811  0.08  -0.615609  0.041081  2.299593  0.063  -0.317636  -0.544233  0.064162  2.310289  0.089
O  O86  1  0.08332792  0.46460866  0.59573137  1  -0.604744  -0.07669  2.03494  -0.101  -0.573199  -0.055053  2.305892  -0.08  -0.615691  -0.041106  2.299652  -0.063  -0.317751  -0.54429  -0.064204  2.310428  -0.089
O  O87  1  0.41669582  0.53540131  0.09572922  1  -0.604742  -0.07672  2.034667  -0.101  -0.573122  -0.055061  2.30551  -0.08  -0.615644  -0.041104  2.299274  -0.063  -0.317738  -0.544242  -0.064217  2.31007  -0.089
O  O88  1  0.03945637  0.61681477  0.43834619  1  -0.571951  0.023943  2.020342  0.028  -0.546662  0.010293  2.278627  0.013  -0.581349  0.00476  2.270628  0.006  -0.301858  -0.520568  0.016914  2.282417  0.021
O  O89  1  0.46055865  0.38317156  0.93836135  1  -0.571721  0.023981  2.020234  0.028  -0.546547  0.010304  2.278623  0.013  -0.581284  0.004765  2.270647  0.006  -0.301927  -0.520467  0.016937  2.2824  0.021
O  O90  1  0.53942813  0.88318408  0.56164058  1  -0.571912  -0.023973  2.020488  -0.028  -0.54656  -0.010302  2.278794  -0.013  -0.581283  -0.004763  2.270824  -0.006  -0.30194  -0.520469  -0.016927  2.282576  -0.021
O  O91  1  0.96057438  0.11680311  0.06165991  1  -0.571822  -0.02394  2.020435  -0.028  -0.546583  -0.010291  2.278611  -0.013  -0.581222  -0.00476  2.270646  -0.006  -0.301809  -0.520501  -0.016907  2.282389  -0.021
O  O92  1  0.04712556  0.80359758  0.46368143  1  -0.566345  0.103013  2.020372  0.135  -0.551971  0.06428  2.303787  0.093  -0.597159  0.047333  2.299172  0.073  -0.31035  -0.522149  0.074594  2.307442  0.103
O  O93  1  0.45292715  0.19640345  0.96369085  1  -0.566085  0.103077  2.02035  0.135  -0.551907  0.064321  2.303754  0.093  -0.597041  0.047364  2.299161  0.073  -0.310354  -0.522084  0.074638  2.307387  0.103
O  O94  1  0.54708847  0.69642734  0.53631001  1  -0.566176  -0.103095  2.020267  -0.135  -0.551881  -0.064329  2.303692  -0.093  -0.597047  -0.047368  2.299067  -0.073  -0.310371  -0.522071  -0.074643  2.307326  -0.103
O  O95  1  0.95290287  0.30357542  0.03632332  1  -0.56622  -0.103017  2.020173  -0.135  -0.551923  -0.064277  2.30352  -0.093  -0.5971  -0.047326  2.298891  -0.073  -0.310451  -0.522138  -0.074583  2.307158  -0.103
O  O96  1  0.91345350  0.02643064  0.31700307  1  -0.571107  0.020421  1.904341  0.026  -0.551371  0.010509  2.143978  0.014  -0.576548  0.004436  2.133642  0.007  -0.307137  -0.531847  0.017858  2.149698  0.023
O  O97  1  0.58669738  0.97353696  0.81699708  1  -0.571547  0.020429  1.903939  0.026  -0.551825  0.010512  2.143625  0.014  -0.576994  0.004438  2.133274  0.007  -0.307433  -0.532303  0.017858  2.14935  0.023
O  O98  1  0.41326046  0.47352132  0.68305898  1  -0.571331  -0.020443  1.903325  -0.026  -0.551618  -0.010519  2.143164  -0.014  -0.576792  -0.00444  2.13282  -0.007  -0.307424  -0.532088  -0.017872  2.148871  -0.023
O  O99  1  0.08653989  0.52641820  0.18298971  1  -0.570942  -0.020449  1.904586  -0.026  -0.551221  -0.010519  2.144265  -0.014  -0.576408  -0.004439  2.133941  -0.007  -0.30705  -0.531698  -0.017874  2.149987  -0.023
