# generated using pymatgen
data_CoH20C20(NO2)4
_symmetry_space_group_name_H-M   'P 1'
_cell_length_a   11.52033377
_cell_length_b   13.82423050
_cell_length_c   22.04871428
_cell_angle_alpha   90.00032592
_cell_angle_beta   89.99994232
_cell_angle_gamma   102.51197991
_symmetry_Int_Tables_number   1
_chemical_formula_structural   CoH20C20(NO2)4
_chemical_formula_sum   'Co6 H120 C120 N24 O48'
_cell_volume   3428.07780331
_cell_formula_units_Z   6
loop_
 _symmetry_equiv_pos_site_id
 _symmetry_equiv_pos_as_xyz
  1  'x, y, z'
loop_
 _atom_site_type_symbol
 _atom_site_label
 _atom_site_symmetry_multiplicity
 _atom_site_fract_x
 _atom_site_fract_y
 _atom_site_fract_z
 _atom_site_occupancy
 _atom_site_pbe_bader_charge
 _atom_site_pbe_bader_spin_density
 _atom_site_pbe_cm5_charge
 _atom_site_pbe_ddec_charge
 _atom_site_pbe_ddec_spin_density
 _atom_site_pbe_ddec_sum_bond_order
 _atom_site_pbe_magmom
Co  Co0  1  0.49999754  0.99999896  0.49999997  1  1.286496  2.620581  0.643798  0.90499  2.821332  2.42069  2.607
Co  Co1  1  0.50000181  0.50000097  0.00000031  1  1.286491  2.620578  0.64382  0.904991  2.82133  2.420699  2.607
Co  Co2  1  0.60068395  0.00467533  0.81939230  1  1.307934  2.636111  0.649932  0.942592  2.839396  2.399707  2.622
Co  Co3  1  0.39932058  0.49532872  0.31939174  1  1.307782  2.636111  0.649953  0.942586  2.839388  2.399766  2.622
Co  Co4  1  0.39932165  0.99532154  0.18060722  1  1.3078  2.63613  0.649918  0.942526  2.839399  2.399685  2.622
Co  Co5  1  0.60068148  0.50467113  0.68060732  1  1.307793  2.63611  0.649994  0.942696  2.839392  2.399691  2.622
H  H6  1  0.92670426  0.27385636  0.07170738  1  0.084895  5e-06  0.107171  0.102135  -3e-06  1.028696  0.0
H  H7  1  0.07329075  0.22614918  0.57170447  1  0.08477  5e-06  0.107205  0.102155  -3e-06  1.028525  0.0
H  H8  1  0.07329386  0.72614499  0.92829622  1  0.08477  5e-06  0.107195  0.102163  -3e-06  1.028539  0.0
H  H9  1  0.92670748  0.77385588  0.42829686  1  0.08475  5e-06  0.1072  0.102166  -3e-06  1.028564  0.0
H  H10  1  0.98094581  0.24999001  0.26286994  1  0.091728  1.9e-05  0.106091  0.106291  -2e-06  1.016866  0.0
H  H11  1  0.01904739  0.25000689  0.76286896  1  0.092212  1.9e-05  0.106052  0.106264  -2e-06  1.016876  0.0
H  H12  1  0.01904951  0.75001061  0.73713321  1  0.092273  1.9e-05  0.106062  0.106259  -2e-06  1.016847  0.0
H  H13  1  0.98095214  0.74999000  0.23713282  1  0.092328  1.9e-05  0.106053  0.106236  -2e-06  1.016859  0.0
H  H14  1  0.62985601  0.24714485  0.19456310  1  0.121168  -1.7e-05  0.113197  0.118467  -0.000106  1.054367  0.0
H  H15  1  0.37014283  0.25284992  0.69456013  1  0.121132  -1.7e-05  0.113192  0.118441  -0.000106  1.054466  0.0
H  H16  1  0.37014313  0.75285056  0.80543778  1  0.12118  -1.7e-05  0.113204  0.118516  -0.000106  1.054378  0.0
H  H17  1  0.62986143  0.74714843  0.30544030  1  0.12127  -1.7e-05  0.113222  0.118503  -0.000106  1.054413  0.0
H  H18  1  0.67798393  0.27863455  0.93551247  1  0.069906  6.3e-05  0.109347  0.102301  -5e-05  0.98585  0.0
H  H19  1  0.32202006  0.22136833  0.43550915  1  0.070129  6.3e-05  0.109368  0.102363  -5e-05  0.985754  0.0
H  H20  1  0.32201419  0.72136680  0.06448977  1  0.069913  6.4e-05  0.109379  0.102339  -5e-05  0.985825  0.0
H  H21  1  0.67798050  0.77863894  0.56449127  1  0.069982  6.3e-05  0.1093  0.102247  -5e-05  0.98584  0.0
H  H22  1  0.55446849  0.22753446  0.98174322  1  0.135719  -0.000135  0.12692  0.136617  -0.000227  0.974419  0.0
H  H23  1  0.44552945  0.27246887  0.48174184  1  0.135913  -0.000135  0.126899  0.136631  -0.000227  0.974469  0.0
H  H24  1  0.44553384  0.77246316  0.01825902  1  0.135729  -0.000135  0.126905  0.136603  -0.000227  0.974436  0.0
H  H25  1  0.55446784  0.72753916  0.51825949  1  0.135751  -0.000135  0.126908  0.136573  -0.000227  0.974442  0.0
H  H26  1  0.32607631  0.30422505  0.13158047  1  0.130152  0.00022  0.118632  0.131904  2.3e-05  0.981347  0.0
H  H27  1  0.67391735  0.19577584  0.63158122  1  0.130436  0.00022  0.118663  0.131921  2.3e-05  0.981352  0.0
H  H28  1  0.67391929  0.69577334  0.86841996  1  0.13012  0.00022  0.118649  0.131935  2.3e-05  0.981326  0.0
H  H29  1  0.32607884  0.80422477  0.36841966  1  0.130136  0.00022  0.118628  0.131866  2.3e-05  0.981354  0.0
H  H30  1  0.29875320  0.19353483  0.17382900  1  0.112496  0.000853  0.11465  0.118242  0.000129  1.00764  0.0
H  H31  1  0.70123901  0.30646423  0.67382922  1  0.112464  0.000853  0.114646  0.11824  0.000129  1.007645  0.0
H  H32  1  0.70124452  0.80646503  0.82617279  1  0.112488  0.000853  0.114669  0.118323  0.000129  1.007577  0.0
H  H33  1  0.29875804  0.69353638  0.32617211  1  0.112483  0.000853  0.11466  0.118235  0.000129  1.007615  0.0
H  H34  1  0.53610824  0.29100595  0.37598829  1  0.100793  -0.000446  0.11876  0.125726  -0.00053  0.997778  0.0
H  H35  1  0.46388886  0.20899346  0.87598738  1  0.100838  -0.000446  0.118713  0.12565  -0.00053  0.997623  0.0
H  H36  1  0.46388715  0.70899171  0.62401213  1  0.100815  -0.000446  0.118715  0.125658  -0.00053  0.997707  0.0
H  H37  1  0.53610965  0.79100937  0.12401395  1  0.100799  -0.000446  0.118768  0.125745  -0.00053  0.997714  0.0
H  H38  1  0.67488291  0.27977408  0.40791345  1  0.10167  -1.4e-05  0.116829  0.117529  -7.6e-05  0.961267  0.0
H  H39  1  0.32511394  0.22022785  0.90791221  1  0.101688  -1.4e-05  0.116838  0.117539  -7.6e-05  0.961251  0.0
H  H40  1  0.32511115  0.72022507  0.59208743  1  0.101681  -1.4e-05  0.116801  0.117496  -7.6e-05  0.96124  0.0
H  H41  1  0.67488658  0.77977275  0.09208777  1  0.101693  -1.4e-05  0.116816  0.117526  -7.6e-05  0.961211  0.0
H  H42  1  0.30990006  0.03215734  0.40880341  1  0.11885  0.001636  0.123333  0.094485  0.000395  0.991856  0.001
H  H43  1  0.69009871  0.46784533  0.90880694  1  0.118841  0.001636  0.123326  0.094432  0.000395  0.991879  0.001
H  H44  1  0.69010172  0.96784473  0.59119793  1  0.118857  0.001637  0.123332  0.094484  0.000395  0.991806  0.001
H  H45  1  0.30990398  0.53216342  0.09119394  1  0.118799  0.001637  0.123312  0.094381  0.000395  0.99194  0.001
H  H46  1  0.09599127  0.03184756  0.40380045  1  0.082674  0.001228  0.107569  0.112602  0.000523  1.009226  0.0
H  H47  1  0.90400837  0.46815506  0.90380251  1  0.082777  0.001228  0.107634  0.112729  0.000523  1.009141  0.0
H  H48  1  0.90401386  0.96815079  0.59619862  1  0.082714  0.001229  0.107577  0.11261  0.000523  1.00921  0.0
H  H49  1  0.09599558  0.53185517  0.09619746  1  0.082767  0.001228  0.107568  0.112609  0.000523  1.009245  0.0
H  H50  1  0.07756484  0.96324822  0.59597251  1  0.089781  0.001249  0.109029  0.115009  0.000538  1.010167  0.0
H  H51  1  0.92243537  0.53674591  0.09597729  1  0.089652  0.001249  0.109003  0.114942  0.000538  1.010229  0.0
H  H52  1  0.92243063  0.03674646  0.40402520  1  0.089744  0.001249  0.109014  0.114998  0.000538  1.010135  0.0
H  H53  1  0.07756424  0.46324802  0.90402540  1  0.089714  0.001248  0.109009  0.114959  0.000538  1.01018  0.0
H  H54  1  0.29039910  0.96780761  0.59264075  1  0.119186  0.001507  0.120168  0.089062  0.00038  1.014511  0.001
H  H55  1  0.70960044  0.53218724  0.09264608  1  0.119063  0.001507  0.120223  0.089208  0.00038  1.014512  0.001
H  H56  1  0.70959850  0.03218855  0.40735877  1  0.119159  0.001507  0.120188  0.089125  0.00038  1.014526  0.001
H  H57  1  0.29039689  0.46781115  0.90735662  1  0.119122  0.001507  0.120245  0.0892  0.00038  1.014575  0.001
H  H58  1  0.40690809  0.00782460  0.72419134  1  0.148871  0.00163  0.119323  0.094648  0.000358  1.025289  0.001
H  H59  1  0.59309455  0.49217487  0.22418976  1  0.148914  0.00163  0.119312  0.094596  0.000358  1.02538  0.001
H  H60  1  0.59309798  0.99217077  0.27580818  1  0.149051  0.00163  0.119299  0.094641  0.000358  1.025317  0.001
H  H61  1  0.40690716  0.50783017  0.77580885  1  0.14886  0.00163  0.119316  0.094671  0.000358  1.025277  0.001
H  H62  1  0.19436715  0.01228758  0.71992268  1  0.0772  0.001087  0.107078  0.115295  0.000494  1.0012  0.0
H  H63  1  0.80563762  0.48771333  0.21992187  1  0.077121  0.001087  0.107061  0.115254  0.000494  1.001178  0.0
H  H64  1  0.80563660  0.98770558  0.28007503  1  0.077178  0.001086  0.107091  0.115301  0.000494  1.001229  0.0
H  H65  1  0.19436429  0.51229246  0.78007538  1  0.077208  0.001087  0.107085  0.115253  0.000494  1.001314  0.0
H  H66  1  0.18655218  0.98522833  0.91568322  1  0.087925  0.001203  0.112301  0.120047  0.000544  0.994208  0.0
H  H67  1  0.81344750  0.51476947  0.41568300  1  0.087961  0.001203  0.112311  0.120112  0.000544  0.994151  0.0
H  H68  1  0.81345251  0.01476186  0.08431403  1  0.088308  0.001203  0.112278  0.120095  0.000544  0.994215  0.0
H  H69  1  0.18655333  0.48523558  0.58431471  1  0.087868  0.001203  0.112283  0.120063  0.000544  0.994313  0.0
H  H70  1  0.40006990  0.98612903  0.91212287  1  0.119317  0.001615  0.116538  0.087629  0.000461  1.016768  0.001
H  H71  1  0.59993171  0.51386946  0.41211958  1  0.118967  0.001615  0.116561  0.08763  0.000461  1.016805  0.001
H  H72  1  0.59993664  0.01386486  0.08787710  1  0.119116  0.001615  0.116546  0.087602  0.000461  1.0168  0.001
H  H73  1  0.40006747  0.48613263  0.58787722  1  0.119368  0.001615  0.116562  0.087636  0.000461  1.016796  0.001
H  H74  1  0.00272567  0.94326643  0.72750170  1  0.094515  0.001014  0.106049  0.111772  0.000434  1.011289  0.0
H  H75  1  0.99728564  0.55673775  0.22750516  1  0.094604  0.001014  0.106057  0.111797  0.000434  1.011282  0.0
H  H76  1  0.99728474  0.05672892  0.27249464  1  0.094728  0.001014  0.106031  0.111756  0.000434  1.011338  0.0
H  H77  1  0.00271713  0.44326803  0.77249345  1  0.094695  0.001014  0.106003  0.111664  0.000434  1.011451  0.0
H  H78  1  0.78817290  0.95212629  0.73287325  1  0.125295  0.001312  0.115555  0.093265  0.000425  1.002717  0.001
H  H79  1  0.21183841  0.54787794  0.23287709  1  0.125226  0.001312  0.115571  0.093299  0.000425  1.002766  0.001
H  H80  1  0.21183775  0.04787648  0.26712264  1  0.125246  0.001312  0.115595  0.093345  0.000425  1.00278  0.001
H  H81  1  0.78816144  0.45212340  0.76712243  1  0.125243  0.001312  0.115572  0.093277  0.000425  1.002777  0.001
H  H82  1  0.82589992  0.06139446  0.90772493  1  0.12526  0.001225  0.114765  0.084007  0.000258  1.024356  0.001
H  H83  1  0.17409854  0.43860374  0.40772610  1  0.125239  0.001226  0.114778  0.08402  0.000259  1.024453  0.001
H  H84  1  0.17411104  0.93861276  0.09227005  1  0.125206  0.001226  0.114709  0.083988  0.000258  1.024453  0.001
H  H85  1  0.82589520  0.56139095  0.59227251  1  0.125117  0.001226  0.114752  0.084041  0.000258  1.024452  0.001
H  H86  1  0.04232698  0.06652685  0.90844673  1  0.099221  0.000982  0.114909  0.122698  0.000426  0.985361  0.0
H  H87  1  0.95767289  0.43346690  0.40844384  1  0.099197  0.000982  0.114962  0.122779  0.000426  0.985329  0.0
H  H88  1  0.95768209  0.93346999  0.09155143  1  0.099175  0.000982  0.114943  0.122763  0.000426  0.985342  0.0
H  H89  1  0.04232049  0.56653299  0.59155341  1  0.099111  0.000982  0.114939  0.122728  0.000426  0.98539  0.0
H  H90  1  0.79819400  0.21625636  0.01954463  1  0.465797  -1e-05  0.326022  0.276602  -1.4e-05  0.930611  0.0
H  H91  1  0.20180287  0.28374276  0.51954141  1  0.465909  -1e-05  0.325972  0.276545  -1.4e-05  0.930596  0.0
H  H92  1  0.20180513  0.78373905  0.98045942  1  0.465963  -1e-05  0.325991  0.276545  -1.4e-05  0.930729  0.0
H  H93  1  0.79819391  0.71626008  0.48045947  1  0.465948  -1e-05  0.325992  0.276529  -1.4e-05  0.930747  0.0
H  H94  1  0.16614774  0.32604429  0.22520460  1  0.466526  0.000244  0.310025  0.263382  5.4e-05  0.973777  0.0
H  H95  1  0.83385242  0.17395891  0.72520519  1  0.466555  0.000244  0.310033  0.2634  5.4e-05  0.973717  0.0
H  H96  1  0.83385337  0.67395853  0.77479628  1  0.466567  0.000244  0.310032  0.26337  5.4e-05  0.973776  0.0
H  H97  1  0.16614337  0.82604022  0.27479750  1  0.4665  0.000244  0.31005  0.263398  5.4e-05  0.973664  0.0
H  H98  1  0.60817577  0.28758299  0.28155645  1  0.517526  0.000113  0.302647  0.268628  3.3e-05  1.015632  0.0
H  H99  1  0.39182256  0.21241703  0.78155424  1  0.517489  0.000113  0.302666  0.268669  3.3e-05  1.015624  0.0
H  H100  1  0.39182148  0.71241836  0.71844533  1  0.517352  0.000113  0.302659  0.26866  3.3e-05  1.01566  0.0
H  H101  1  0.60817969  0.78758356  0.21844619  1  0.517483  0.000113  0.302665  0.268607  3.3e-05  1.015649  0.0
H  H102  1  0.49014700  0.96747333  0.38802060  1  0.643092  0.000665  0.288166  0.368387  0.000471  0.983526  0.001
H  H103  1  0.50985673  0.53252641  0.88802085  1  0.643098  0.000665  0.288171  0.368397  0.000471  0.983512  0.001
H  H104  1  0.50985285  0.03252801  0.61197847  1  0.643107  0.000665  0.288189  0.368404  0.000471  0.983508  0.001
H  H105  1  0.49014293  0.46747419  0.11197957  1  0.643233  0.000665  0.288142  0.368367  0.000471  0.983548  0.001
H  H106  1  0.51267713  0.86287742  0.41631094  1  0.647983  0.000152  0.29866  0.395296  -2.9e-05  0.938464  0.0
H  H107  1  0.48732468  0.63712185  0.91631204  1  0.648002  0.000153  0.298655  0.39526  -2.8e-05  0.938515  0.0
H  H108  1  0.48732166  0.13712318  0.58368812  1  0.648078  0.000153  0.298685  0.395319  -2.9e-05  0.938412  0.0
H  H109  1  0.51267584  0.36287874  0.08368884  1  0.647901  0.000153  0.298651  0.395237  -2.8e-05  0.938542  0.0
H  H110  1  0.53682657  0.90670753  0.71432295  1  0.650141  0.000345  0.287315  0.38087  0.000198  0.963268  0.001
H  H111  1  0.46317373  0.59329435  0.21432545  1  0.650183  0.000345  0.287326  0.380888  0.000198  0.963236  0.001
H  H112  1  0.46317828  0.09329304  0.28567521  1  0.650294  0.000344  0.287335  0.380872  0.000198  0.963265  0.001
H  H113  1  0.53682351  0.40670700  0.78567316  1  0.650332  0.000344  0.287292  0.380845  0.000198  0.963322  0.001
H  H114  1  0.55690366  0.82385624  0.76176230  1  0.656756  0.000671  0.285532  0.371852  0.00045  0.983088  0.001
H  H115  1  0.44309907  0.67614532  0.26176511  1  0.656737  0.000671  0.285545  0.371874  0.00045  0.983089  0.001
H  H116  1  0.44309946  0.17614434  0.23823631  1  0.656721  0.000671  0.285513  0.371833  0.00045  0.983131  0.001
H  H117  1  0.55689597  0.32385752  0.73823305  1  0.65675  0.000671  0.285527  0.371906  0.00045  0.983029  0.001
H  H118  1  0.61825530  0.94685008  0.92743701  1  0.653238  0.000589  0.288829  0.381436  0.00043  0.958872  0.001
H  H119  1  0.38174305  0.55314932  0.42743896  1  0.653155  0.00059  0.288786  0.381318  0.00043  0.959023  0.001
H  H120  1  0.38175263  0.05314900  0.07256114  1  0.653167  0.000589  0.288823  0.381375  0.00043  0.958945  0.001
H  H121  1  0.61825026  0.44685354  0.57256010  1  0.653176  0.00059  0.288822  0.381388  0.00043  0.958928  0.001
H  H122  1  0.53338292  0.84522908  0.89997358  1  0.630739  0.001406  0.297877  0.394958  0.000909  0.933692  0.002
H  H123  1  0.46662429  0.65477076  0.39997857  1  0.630687  0.001407  0.297826  0.394887  0.000909  0.933797  0.002
H  H124  1  0.46662627  0.15477148  0.10002367  1  0.630668  0.001407  0.297803  0.394821  0.000909  0.933898  0.002
H  H125  1  0.53337190  0.34522985  0.60002050  1  0.630642  0.001408  0.297845  0.394905  0.00091  0.933771  0.002
C  C126  1  0.76766559  0.26152263  0.12801907  1  -0.025463  1.5e-05  -0.020178  -0.044817  -8.3e-05  4.04954  0.0
C  C127  1  0.23232893  0.23847823  0.62801658  1  -0.024919  1.5e-05  -0.020207  -0.044907  -8.3e-05  4.049882  0.0
C  C128  1  0.23233201  0.73847352  0.87198362  1  -0.024776  1.5e-05  -0.020165  -0.044761  -8.3e-05  4.0496  0.0
C  C129  1  0.76767131  0.76152459  0.37198294  1  -0.024902  1.5e-05  -0.020166  -0.044713  -8.3e-05  4.049621  0.0
C  C130  1  0.88836480  0.26848188  0.11712862  1  -0.022258  0.000381  -0.077716  -0.1284  0.000204  3.981686  0.0
C  C131  1  0.11162798  0.23151889  0.61712662  1  -0.02275  0.000381  -0.077695  -0.128383  0.000204  3.981558  0.0
C  C132  1  0.11163213  0.73151502  0.88287498  1  -0.022423  0.000381  -0.077769  -0.128465  0.000204  3.98156  0.0
C  C133  1  0.88836793  0.76848396  0.38287562  1  -0.022406  0.000381  -0.077765  -0.128475  0.000204  3.981618  0.0
C  C134  1  0.96655844  0.26517467  0.16497447  1  0.006247  -0.000193  -0.016535  -0.024396  -0.000241  4.010561  0.0
C  C135  1  0.03343357  0.23482358  0.66497343  1  0.006726  -0.000193  -0.016568  -0.024398  -0.000241  4.010462  0.0
C  C136  1  0.03343928  0.73482520  0.83502823  1  0.006743  -0.000193  -0.016573  -0.02453  -0.000241  4.01059  0.0
C  C137  1  0.96656009  0.76517408  0.33502881  1  0.006858  -0.000193  -0.016642  -0.024589  -0.000241  4.010609  0.0
C  C138  1  0.92352421  0.25678036  0.22447181  1  -0.121312  0.000559  -0.073708  -0.117944  0.000257  3.932552  0.0
C  C139  1  0.07647122  0.24322138  0.72447078  1  -0.121745  0.000559  -0.073678  -0.117868  0.000257  3.932441  0.0
C  C140  1  0.07647470  0.74322395  0.77553088  1  -0.122133  0.000559  -0.073632  -0.117749  0.000257  3.932416  0.0
C  C141  1  0.92352725  0.75677478  0.27553192  1  -0.122384  0.000559  -0.073575  -0.117613  0.000257  3.932383  0.0
C  C142  1  0.80257034  0.25108656  0.23608566  1  0.015414  -8.5e-05  -0.01046  -0.015991  -0.000161  3.969808  0.0
C  C143  1  0.19742694  0.24891899  0.73608458  1  0.01547  -8.5e-05  -0.010436  -0.016011  -0.000161  3.96997  0.0
C  C144  1  0.19742703  0.74891851  0.76391476  1  0.015393  -8.5e-05  -0.010447  -0.01599  -0.000161  3.969914  0.0
C  C145  1  0.80257665  0.75108011  0.26391675  1  0.015506  -8.5e-05  -0.010479  -0.016171  -0.000161  3.970019  0.0
C  C146  1  0.72489554  0.25383929  0.18769556  1  -0.050776  0.0005  -0.072816  -0.108854  0.000166  3.892516  0.0
C  C147  1  0.27509834  0.24616287  0.68769307  1  -0.051318  0.0005  -0.0728  -0.10884  0.000166  3.892782  0.0
C  C148  1  0.27509978  0.74616133  0.81230622  1  -0.051324  0.0005  -0.072819  -0.108954  0.000166  3.892558  0.0
C  C149  1  0.72490144  0.75384144  0.31230690  1  -0.051522  0.0005  -0.072832  -0.108903  0.000166  3.892644  0.0
C  C150  1  0.67989211  0.25373266  0.07792772  1  1.3862  0.000926  0.250239  0.47143  0.000499  4.136002  0.001
C  C151  1  0.32010199  0.24626626  0.57792703  1  1.386407  0.000926  0.2502  0.471428  0.000499  4.136375  0.001
C  C152  1  0.32010675  0.74626497  0.92207316  1  1.386221  0.000926  0.25023  0.471457  0.000498  4.136002  0.001
C  C153  1  0.67989439  0.75373510  0.42207340  1  1.386363  0.000926  0.250247  0.471437  0.000499  4.136241  0.001
C  C154  1  0.64435148  0.22021318  0.96886896  1  0.288243  0.004386  -0.061631  -0.158215  0.002277  3.90952  0.003
C  C155  1  0.35564906  0.27979002  0.46886902  1  0.287559  0.004387  -0.06168  -0.158374  0.002277  3.909448  0.003
C  C156  1  0.35565018  0.77978518  0.03112965  1  0.28822  0.004387  -0.061674  -0.158342  0.002277  3.90957  0.003
C  C157  1  0.64435150  0.72021725  0.53113232  1  0.287854  0.004387  -0.061618  -0.158199  0.002277  3.909392  0.003
C  C158  1  0.63907125  0.11937479  0.93886885  1  1.582257  -0.001306  0.204975  0.590059  -0.002273  4.191837  -0.001
C  C159  1  0.36092388  0.38062742  0.43886790  1  1.582524  -0.001305  0.205052  0.590229  -0.002273  4.191511  -0.001
C  C160  1  0.36093021  0.88062283  0.06113067  1  1.582243  -0.001307  0.204983  0.590161  -0.002274  4.191703  -0.001
C  C161  1  0.63907243  0.61937690  0.56113525  1  1.582545  -0.001308  0.205115  0.59029  -0.002275  4.191519  -0.001
C  C162  1  0.08957904  0.25727392  0.14685299  1  1.435613  1.7e-05  0.223968  0.453109  -2.4e-05  4.195651  0.0
C  C163  1  0.91041363  0.24272341  0.64685424  1  1.435557  1.7e-05  0.22377  0.452747  -2.4e-05  4.195786  0.0
C  C164  1  0.91041655  0.74272447  0.85315061  1  1.435632  1.7e-05  0.223761  0.452831  -2.4e-05  4.195922  0.0
C  C165  1  0.08958058  0.75726980  0.35314981  1  1.43563  1.7e-05  0.223863  0.452695  -2.4e-05  4.195923  0.0
C  C166  1  0.29603339  0.27232219  0.17624016  1  0.269242  0.005927  -0.068155  -0.169331  0.003129  3.908911  0.005
C  C167  1  0.70396335  0.22767762  0.67624147  1  0.268991  0.005926  -0.068169  -0.169336  0.003128  3.908988  0.005
C  C168  1  0.70396500  0.72767693  0.82376026  1  0.269245  0.005927  -0.068226  -0.169587  0.003129  3.9091  0.005
C  C169  1  0.29603264  0.77232226  0.32376032  1  0.269187  0.005926  -0.068138  -0.169237  0.003128  3.908932  0.005
C  C170  1  0.38201147  0.32596697  0.22371375  1  1.594793  -0.000894  0.220091  0.624749  -0.001725  4.136752  0.0
C  C171  1  0.61798628  0.17403697  0.72371264  1  1.594759  -0.000894  0.220219  0.624923  -0.001725  4.136845  0.0
C  C172  1  0.61798771  0.67403511  0.77628576  1  1.594788  -0.000894  0.220185  0.624952  -0.001725  4.136582  0.0
C  C173  1  0.38200943  0.82596513  0.27628869  1  1.594724  -0.000894  0.220191  0.624898  -0.001724  4.136939  0.0
C  C174  1  0.76029212  0.23446384  0.30056605  1  1.429152  0.000663  0.228201  0.458793  0.000337  4.158982  0.0
C  C175  1  0.23970807  0.26554005  0.80056274  1  1.429135  0.000663  0.22816  0.458815  0.000337  4.1589  0.0
C  C176  1  0.23970620  0.76553825  0.69943665  1  1.429165  0.000663  0.22806  0.45862  0.000337  4.159065  0.0
C  C177  1  0.76029331  0.73446054  0.19943678  1  1.429148  0.000663  0.228171  0.458821  0.000337  4.158761  0.0
C  C178  1  0.60694141  0.24889744  0.37402436  1  0.306383  0.004136  -0.06366  -0.165799  0.00214  3.932534  0.003
C  C179  1  0.39305523  0.25110344  0.87402274  1  0.306343  0.004136  -0.063636  -0.165663  0.00214  3.932217  0.003
C  C180  1  0.39305478  0.75110318  0.62597606  1  0.306301  0.004136  -0.063547  -0.165527  0.00214  3.932232  0.003
C  C181  1  0.60694395  0.74889865  0.12597814  1  0.306289  0.004136  -0.063721  -0.165866  0.00214  3.932346  0.003
C  C182  1  0.55315164  0.14240430  0.39337860  1  1.569549  -0.002346  0.216983  0.603018  -0.003503  4.144336  -0.002
C  C183  1  0.44684886  0.35759822  0.89337688  1  1.569428  -0.002345  0.216861  0.602682  -0.003503  4.144764  -0.002
C  C184  1  0.44684628  0.85759631  0.60662137  1  1.569565  -0.002345  0.216891  0.602811  -0.003503  4.144647  -0.002
C  C185  1  0.55315205  0.64240386  0.10662309  1  1.569483  -0.002346  0.216912  0.602814  -0.003503  4.14453  -0.002
C  C186  1  0.25516277  0.01885240  0.44961711  1  0.45408  -0.00257  0.055384  0.110444  -0.003595  3.937331  -0.002
C  C187  1  0.74483398  0.48114619  0.94962157  1  0.454662  -0.002571  0.055394  0.110507  -0.003597  3.937333  -0.002
C  C188  1  0.74483629  0.98114597  0.55038150  1  0.454612  -0.002569  0.05532  0.110362  -0.003593  3.937484  -0.002
C  C189  1  0.25516713  0.51885663  0.05037885  1  0.454742  -0.002569  0.055416  0.11055  -0.003593  3.937484  -0.002
C  C190  1  0.13435231  0.01842761  0.44732087  1  0.023854  0.003452  -0.080712  -0.172903  0.001764  3.934616  0.002
C  C191  1  0.86564491  0.48156948  0.94732435  1  0.023443  0.003453  -0.080804  -0.173054  0.001764  3.93469  0.002
C  C192  1  0.86564655  0.98157003  0.55267775  1  0.023378  0.003451  -0.080711  -0.172888  0.001763  3.934658  0.002
C  C193  1  0.13435687  0.51843259  0.05267653  1  0.023411  0.003451  -0.080688  -0.172835  0.001763  3.934633  0.002
C  C194  1  0.06460599  0.00015841  0.50015069  1  -0.095126  -0.002952  0.010653  0.098387  -0.003337  3.969616  -0.002
C  C195  1  0.93539261  0.49984053  0.00015304  1  -0.059261  -0.002951  0.010544  0.098238  -0.003339  3.969854  -0.002
C  C196  1  0.93539259  0.99984146  0.49984838  1  -0.059243  -0.002947  0.010569  0.09825  -0.003334  3.969741  -0.002
C  C197  1  0.06460531  0.50016008  0.99984875  1  -0.095139  -0.002949  0.010616  0.098285  -0.003334  3.969534  -0.002
C  C198  1  0.12381230  0.98125036  0.55305075  1  0.023023  0.003668  -0.078473  -0.162823  0.001859  3.92287  0.003
C  C199  1  0.87618655  0.51874487  0.05305504  1  0.023015  0.003669  -0.078394  -0.162684  0.00186  3.922948  0.003
C  C200  1  0.87618510  0.01874506  0.44694695  1  0.023024  0.003666  -0.078405  -0.162769  0.001859  3.922794  0.003
C  C201  1  0.12381231  0.48125277  0.94694629  1  0.023061  0.003667  -0.078471  -0.1628  0.001859  3.922574  0.003
C  C202  1  0.24507483  0.98337415  0.55156447  1  0.470795  -0.002487  0.056096  0.111822  -0.003305  3.925927  -0.002
C  C203  1  0.75492635  0.51662328  0.05156927  1  0.470907  -0.002487  0.056093  0.111767  -0.003305  3.925969  -0.002
C  C204  1  0.75492423  0.01662423  0.44843414  1  0.470787  -0.002485  0.056106  0.111836  -0.003303  3.925667  -0.002
C  C205  1  0.24507551  0.48337583  0.94843207  1  0.470809  -0.002485  0.056054  0.111754  -0.003303  3.925797  -0.002
C  C206  1  0.35544996  0.00397428  0.76578924  1  0.501447  -0.00783  0.047768  0.101889  -0.009078  3.943957  -0.005
C  C207  1  0.64455357  0.49602557  0.26578855  1  0.501425  -0.007833  0.04777  0.101871  -0.009081  3.944081  -0.005
C  C208  1  0.64455891  0.99602183  0.23420937  1  0.501949  -0.007831  0.047847  0.101987  -0.00908  3.944003  -0.005
C  C209  1  0.35544707  0.50397873  0.73421006  1  0.501538  -0.007828  0.04782  0.101905  -0.009076  3.943961  -0.005
C  C210  1  0.23528305  0.00543601  0.76378689  1  -0.048329  0.005662  -0.081745  -0.166834  0.00266  3.938351  0.004
C  C211  1  0.76472327  0.49456455  0.26378659  1  -0.04825  0.005664  -0.081764  -0.166797  0.002661  3.938215  0.004
C  C212  1  0.76472649  0.99455935  0.23621172  1  -0.048427  0.005662  -0.081807  -0.166973  0.00266  3.938399  0.004
C  C213  1  0.23527958  0.50543826  0.73621202  1  -0.048363  0.005662  -0.08178  -0.166851  0.00266  3.938441  0.004
C  C214  1  0.16988645  0.00048085  0.81777825  1  -0.039886  -0.011032  0.010324  0.099618  -0.012104  3.966302  -0.007
C  C215  1  0.83011958  0.49951576  0.31777748  1  -0.03989  -0.011035  0.010219  0.099466  -0.012107  3.966362  -0.007
C  C216  1  0.83012277  0.99951006  0.18222126  1  -0.039926  -0.011033  0.010233  0.099566  -0.012105  3.966313  -0.007
C  C217  1  0.16987960  0.50048633  0.68221977  1  -0.03974  -0.011031  0.010223  0.099495  -0.012103  3.966258  -0.007
C  C218  1  0.23134109  0.99229883  0.87187749  1  -0.019396  0.006462  -0.080423  -0.164497  0.002989  3.924448  0.005
C  C219  1  0.76866050  0.50769930  0.37187591  1  -0.019468  0.006463  -0.0804  -0.164576  0.002989  3.924431  0.005
C  C220  1  0.76866525  0.00769432  0.12812157  1  -0.019893  0.006462  -0.080373  -0.164668  0.002989  3.924524  0.005
C  C221  1  0.23133482  0.49230132  0.62812225  1  -0.019555  0.006462  -0.080354  -0.16449  0.002989  3.924562  0.005
C  C222  1  0.35186747  0.99184359  0.87012679  1  0.471211  -0.007843  0.045132  0.094399  -0.008764  3.952117  -0.005
C  C223  1  0.64813266  0.50815230  0.37012481  1  0.471427  -0.007842  0.045133  0.094458  -0.008766  3.952051  -0.005
C  C224  1  0.64814219  0.00815548  0.12987227  1  0.471485  -0.007841  0.04521  0.094664  -0.008763  3.952025  -0.005
C  C225  1  0.35186088  0.49184165  0.62987198  1  0.471188  -0.007844  0.045184  0.094504  -0.008765  3.951982  -0.005
C  C226  1  0.04251636  0.00426690  0.81792887  1  0.007542  -0.001426  0.012961  0.10705  -0.001724  3.968272  -0.001
C  C227  1  0.95748852  0.49573193  0.31792938  1  0.007392  -0.001426  0.012972  0.107161  -0.001724  3.968206  -0.001
C  C228  1  0.95748979  0.99572550  0.18206793  1  0.007243  -0.001426  0.012929  0.107189  -0.001724  3.968334  -0.001
C  C229  1  0.04250999  0.50427090  0.68206787  1  0.007195  -0.001428  0.012964  0.107146  -0.001726  3.968242  -0.001
C  C230  1  0.96834672  0.97289697  0.76792790  1  -0.09789  0.00183  -0.085496  -0.181828  0.000767  3.951606  0.001
C  C231  1  0.03166161  0.52710611  0.26793039  1  -0.097779  0.001829  -0.085448  -0.181813  0.000766  3.951612  0.001
C  C232  1  0.03166101  0.02710137  0.23206799  1  -0.097762  0.00183  -0.085436  -0.181843  0.000767  3.951548  0.001
C  C233  1  0.96833923  0.47289894  0.73206731  1  -0.097715  0.001831  -0.085373  -0.181664  0.000767  3.951767  0.001
C  C234  1  0.84863041  0.97674252  0.77061834  1  0.484031  -0.001131  0.043007  0.089977  -0.001639  3.960598  -0.001
C  C235  1  0.15137871  0.52326355  0.27062076  1  0.484001  -0.001131  0.042912  0.089828  -0.001638  3.960513  -0.001
C  C236  1  0.15138004  0.02325951  0.22937936  1  0.483886  -0.001131  0.04295  0.089855  -0.001638  3.960482  -0.001
C  C237  1  0.84862154  0.47673928  0.72937921  1  0.484005  -0.001133  0.042921  0.089887  -0.00164  3.960436  -0.001
C  C238  1  0.86897583  0.03840969  0.86787312  1  0.493382  -0.001217  0.053457  0.10771  -0.002065  3.938385  -0.001
C  C239  1  0.13103187  0.46159033  0.36787258  1  0.493504  -0.001218  0.053477  0.10771  -0.002065  3.938419  -0.001
C  C240  1  0.13103569  0.96159308  0.13212458  1  0.493339  -0.001218  0.053558  0.107665  -0.002065  3.938565  -0.001
C  C241  1  0.86896585  0.53840954  0.63212648  1  0.493612  -0.001219  0.05347  0.107604  -0.002067  3.938508  -0.001
C  C242  1  0.98987716  0.03883998  0.86850533  1  -0.035902  0.001049  -0.075173  -0.157336  0.000286  3.916258  0.001
C  C243  1  0.01012609  0.46115636  0.36850485  1  -0.035793  0.001049  -0.075244  -0.157491  0.000285  3.916069  0.001
C  C244  1  0.01012986  0.96115243  0.13149283  1  -0.035715  0.001049  -0.075285  -0.157508  0.000285  3.916295  0.001
C  C245  1  0.98987262  0.53884721  0.63149376  1  -0.035638  0.00105  -0.075268  -0.15744  0.000286  3.916136  0.001
N  N246  1  0.71758988  0.23422960  0.02254304  1  -1.234958  0.001298  -0.41157  -0.311797  0.000529  3.619698  0.001
N  N247  1  0.28240653  0.26577103  0.52254289  1  -1.235217  0.001298  -0.41151  -0.311676  0.000529  3.619569  0.001
N  N248  1  0.28240926  0.76576581  0.97745693  1  -1.235238  0.001298  -0.411553  -0.311694  0.000528  3.619738  0.001
N  N249  1  0.71759092  0.73423106  0.47745844  1  -1.234961  0.001298  -0.411555  -0.311695  0.000528  3.619733  0.001
N  N250  1  0.17655520  0.28436768  0.18840827  1  -1.25335  0.0005  -0.426051  -0.339079  7e-05  3.61633  0.0
N  N251  1  0.82344167  0.21563595  0.68840902  1  -1.253435  0.0005  -0.425997  -0.338971  7e-05  3.616382  0.0
N  N252  1  0.82344146  0.71563145  0.81159306  1  -1.253321  0.0005  -0.425965  -0.338865  7e-05  3.616284  0.0
N  N253  1  0.17655538  0.78436466  0.31159367  1  -1.253233  0.0005  -0.426055  -0.338947  7e-05  3.616272  0.0
N  N254  1  0.65622697  0.25986935  0.31377142  1  -1.268684  0.001284  -0.424444  -0.339755  0.000455  3.6137  0.001
N  N255  1  0.34376791  0.24013098  0.81376933  1  -1.26861  0.001284  -0.424442  -0.339795  0.000455  3.613696  0.001
N  N256  1  0.34376894  0.74013349  0.68622991  1  -1.268418  0.001284  -0.424487  -0.339931  0.000455  3.614001  0.001
N  N257  1  0.65623068  0.75986888  0.18623155  1  -1.268532  0.001284  -0.42441  -0.339633  0.000455  3.613688  0.001
N  N258  1  0.31121848  0.00295957  0.50098923  1  -1.209385  0.050442  -0.311229  -0.238351  0.026709  3.511989  0.044
N  N259  1  0.68877906  0.49703863  0.00099396  1  -1.209505  0.05044  -0.311242  -0.238385  0.026708  3.512005  0.044
N  N260  1  0.68878184  0.99704028  0.49901120  1  -1.209374  0.050438  -0.311217  -0.238347  0.026706  3.511904  0.044
N  N261  1  0.31121886  0.50296198  0.99900782  1  -1.209501  0.050439  -0.311264  -0.23842  0.026707  3.511995  0.044
N  N262  1  0.41422089  0.99806283  0.81801808  1  -1.20389  0.057708  -0.323199  -0.266193  0.030272  3.576445  0.051
N  N263  1  0.58577748  0.50193259  0.31801566  1  -1.203486  0.057695  -0.323164  -0.266139  0.030269  3.576489  0.051
N  N264  1  0.58578490  0.00193477  0.18198234  1  -1.204015  0.057694  -0.323227  -0.266315  0.030268  3.576562  0.051
N  N265  1  0.41421791  0.49806506  0.68198114  1  -1.203606  0.057698  -0.323231  -0.266228  0.03027  3.576317  0.051
N  N266  1  0.79847420  0.00823533  0.81990566  1  -1.227274  0.046648  -0.306614  -0.23764  0.024783  3.484899  0.04
N  N267  1  0.20153534  0.49176796  0.31990882  1  -1.227508  0.046649  -0.306555  -0.237498  0.024785  3.484818  0.04
N  N268  1  0.20153724  0.99177041  0.18009113  1  -1.227364  0.04665  -0.306553  -0.237433  0.024785  3.484887  0.04
N  N269  1  0.79846258  0.50823265  0.68009070  1  -1.227629  0.046653  -0.306561  -0.237505  0.024787  3.484773  0.04
O  O270  1  0.57486870  0.26234007  0.08758865  1  -1.187219  0.001514  -0.288593  -0.505333  0.000459  2.249229  0.001
O  O271  1  0.42512273  0.23766192  0.58758696  1  -1.187205  0.001514  -0.288543  -0.505322  0.000459  2.249543  0.001
O  O272  1  0.42513115  0.73766127  0.91241178  1  -1.187181  0.001514  -0.288578  -0.505373  0.000459  2.249192  0.001
O  O273  1  0.57487365  0.76233943  0.41241256  1  -1.187234  0.001514  -0.288526  -0.505288  0.000459  2.24943  0.001
O  O274  1  0.65622001  0.04781085  0.97089734  1  -1.186428  0.003063  -0.325737  -0.556199  0.000974  2.128104  0.003
O  O275  1  0.34376113  0.45218801  0.47089575  1  -1.186413  0.003065  -0.325709  -0.556213  0.000975  2.12802  0.003
O  O276  1  0.34377818  0.95218753  0.02910308  1  -1.186328  0.003062  -0.325754  -0.556232  0.000974  2.128065  0.003
O  O277  1  0.65621925  0.54781194  0.52910604  1  -1.186509  0.003062  -0.325773  -0.556263  0.000974  2.127994  0.003
O  O278  1  0.61708468  0.11865869  0.88208913  1  -1.163974  0.060074  -0.324574  -0.585489  0.031154  2.363315  0.052
O  O279  1  0.38291614  0.38134818  0.38208907  1  -1.163985  0.060072  -0.324666  -0.585641  0.031155  2.363431  0.052
O  O280  1  0.38291139  0.88133822  0.11791084  1  -1.164041  0.060076  -0.324533  -0.585495  0.031154  2.363287  0.052
O  O281  1  0.61708950  0.61865536  0.61791453  1  -1.164175  0.060071  -0.324673  -0.585669  0.031154  2.36339  0.052
O  O282  1  0.10680339  0.22309988  0.09627401  1  -1.136399  0.000554  -0.321399  -0.495985  0.000251  2.041228  0.0
O  O283  1  0.89318938  0.27690071  0.59627358  1  -1.136387  0.000554  -0.321239  -0.495751  0.000251  2.041167  0.0
O  O284  1  0.89319066  0.77689927  0.90372868  1  -1.1365  0.000554  -0.321225  -0.495776  0.000251  2.041388  0.0
O  O285  1  0.10680503  0.72309324  0.40372866  1  -1.136564  0.000554  -0.321236  -0.495663  0.000251  2.041269  0.0
O  O286  1  0.35227816  0.39904980  0.24936527  1  -1.176345  0.064478  -0.316408  -0.561113  0.033839  2.403833  0.053
O  O287  1  0.64772221  0.10095437  0.74936706  1  -1.176268  0.064481  -0.31659  -0.561358  0.033838  2.403838  0.053
O  O288  1  0.64771996  0.60095155  0.75063424  1  -1.176236  0.064476  -0.31651  -0.561268  0.033838  2.403715  0.053
O  O289  1  0.35227484  0.89904625  0.25063563  1  -1.176294  0.064478  -0.316541  -0.561282  0.033836  2.403851  0.053
O  O290  1  0.47668634  0.29540467  0.23321627  1  -1.201839  0.002497  -0.316903  -0.563179  0.000604  2.250606  0.002
O  O291  1  0.52330811  0.20459345  0.73321169  1  -1.201943  0.002497  -0.316898  -0.563183  0.000604  2.250679  0.002
O  O292  1  0.52331205  0.70459445  0.76678370  1  -1.201905  0.002496  -0.316928  -0.563217  0.000604  2.250572  0.002
O  O293  1  0.47668615  0.79540644  0.26678737  1  -1.201817  0.002497  -0.316927  -0.563239  0.000604  2.250718  0.002
O  O294  1  0.81969824  0.19966508  0.33888339  1  -1.161231  0.000888  -0.327312  -0.521873  0.000409  2.073425  0.001
O  O295  1  0.18029865  0.30033325  0.83888523  1  -1.161185  0.000888  -0.327276  -0.521869  0.00041  2.073237  0.001
O  O296  1  0.18029601  0.80033481  0.66111431  1  -1.161243  0.000888  -0.327205  -0.521752  0.000409  2.073171  0.001
O  O297  1  0.81970140  0.69966883  0.16111519  1  -1.161187  0.000888  -0.32729  -0.521874  0.000409  2.073242  0.001
O  O298  1  0.52497910  0.07435075  0.35339203  1  -1.207766  0.001886  -0.312851  -0.561009  0.000221  2.246934  0.001
O  O299  1  0.47501839  0.42564993  0.85339144  1  -1.207723  0.001886  -0.312784  -0.560868  0.000221  2.247175  0.001
O  O300  1  0.47502055  0.92564985  0.64660794  1  -1.207785  0.001886  -0.312812  -0.560946  0.000221  2.246996  0.001
O  O301  1  0.52497866  0.57435068  0.14660898  1  -1.207687  0.001886  -0.312823  -0.560944  0.000221  2.247026  0.001
O  O302  1  0.53840120  0.12994424  0.45004175  1  -1.169824  0.059744  -0.3137  -0.562612  0.030814  2.366085  0.052
O  O303  1  0.46160087  0.37005804  0.95003961  1  -1.169736  0.059742  -0.313664  -0.562493  0.030813  2.366149  0.052
O  O304  1  0.46159293  0.87005193  0.54995867  1  -1.169837  0.059739  -0.313653  -0.562542  0.030811  2.366222  0.052
O  O305  1  0.53840285  0.62994476  0.04995991  1  -1.169803  0.059743  -0.313652  -0.562533  0.030814  2.366199  0.052
O  O306  1  0.46879784  0.91662093  0.42122834  1  -1.252758  0.065768  -0.575011  -0.7667  0.034181  2.211494  0.052
O  O307  1  0.53120330  0.58337913  0.92122922  1  -1.252798  0.065767  -0.575011  -0.766646  0.03418  2.211536  0.052
O  O308  1  0.53120114  0.08338042  0.57877163  1  -1.252862  0.065765  -0.57505  -0.766699  0.034179  2.211475  0.052
O  O309  1  0.46879742  0.41662220  0.07877120  1  -1.252833  0.065767  -0.574986  -0.766608  0.03418  2.211565  0.052
O  O310  1  0.58160894  0.89628797  0.75157090  1  -1.296408  0.055823  -0.585631  -0.788695  0.029126  2.222006  0.046
O  O311  1  0.41839158  0.60371499  0.25157346  1  -1.29639  0.055827  -0.585656  -0.788757  0.029128  2.222081  0.046
O  O312  1  0.41839264  0.10371336  0.24842817  1  -1.296497  0.055824  -0.585639  -0.788699  0.029126  2.222101  0.046
O  O313  1  0.58160327  0.39628711  0.74842424  1  -1.296586  0.055822  -0.585599  -0.788761  0.029127  2.222212  0.046
O  O314  1  0.59527537  0.90472486  0.89027469  1  -1.255919  0.062696  -0.576224  -0.777621  0.032488  2.195221  0.05
O  O315  1  0.40473864  0.59527115  0.39027723  1  -1.255811  0.06271  -0.576164  -0.777456  0.032489  2.1954  0.05
O  O316  1  0.40473776  0.09527419  0.10972302  1  -1.255759  0.062696  -0.576163  -0.777413  0.032486  2.195357  0.05
O  O317  1  0.59525600  0.40473022  0.60972229  1  -1.25576  0.062715  -0.576215  -0.777544  0.032491  2.195281  0.05
