# generated using pymatgen
data_AgH5C3SIN
_symmetry_space_group_name_H-M   'P 1'
_cell_length_a   8.09483584
_cell_length_b   9.35654964
_cell_length_c   9.57740835
_cell_angle_alpha   104.25761279
_cell_angle_beta   106.57971038
_cell_angle_gamma   103.55609569
_symmetry_Int_Tables_number   1
_chemical_formula_structural   AgH5C3SIN
_chemical_formula_sum   'Ag4 H20 C12 S4 I4 N4'
_cell_volume   636.54144860
_cell_formula_units_Z   4
loop_
 _symmetry_equiv_pos_site_id
 _symmetry_equiv_pos_as_xyz
  1  'x, y, z'
loop_
 _atom_site_type_symbol
 _atom_site_label
 _atom_site_symmetry_multiplicity
 _atom_site_fract_x
 _atom_site_fract_y
 _atom_site_fract_z
 _atom_site_occupancy
 _atom_site_pbe_bader_spin_density
 _atom_site_pbe_cm5_charge
 _atom_site_pbe_ddec_charge
 _atom_site_pbe_ddec_spin_density
 _atom_site_pbe_ddec_sum_bond_order
 _atom_site_pbe_magmom
Ag  Ag0  1  0.60130853  0.93421633  0.09589324  1  0  0.20221  0.194636  0  2.621598  0
Ag  Ag1  1  0.39868120  0.06578382  0.90411082  1  0  0.202203  0.194615  0  2.62156  0
Ag  Ag2  1  0.16387983  0.06339285  0.14684043  1  0  0.213714  0.170494  0  2.532998  0
Ag  Ag3  1  0.83611765  0.93661431  0.85317143  1  0  0.21369  0.170469  0  2.532973  0
H  H4  1  0.78750443  0.99335237  0.48596746  1  0  0.091167  0.115368  0  1.036919  0
H  H5  1  0.21247802  0.00664193  0.51402712  1  0  0.091171  0.115324  0  1.036907  0
H  H6  1  0.99326687  0.15663236  0.55850569  1  0  0.095405  0.120657  0  1.03103  0
H  H7  1  0.00672072  0.84335497  0.44148539  1  0  0.095396  0.1206  0  1.031012  0
H  H8  1  0.85285028  0.08454807  0.35734534  1  0  0.075283  0.100591  0  1.084509  0
H  H9  1  0.14713257  0.91544041  0.64264586  1  0  0.075278  0.100576  0  1.084563  0
H  H10  1  0.77608319  0.32487534  0.81437769  1  0  0.092119  0.093207  0  1.017205  0
H  H11  1  0.22392305  0.67512372  0.18561877  1  0  0.092109  0.093166  0  1.017169  0
H  H12  1  0.82231394  0.52067061  0.81515727  1  0  0.100961  0.10604  0  1.009326  0
H  H13  1  0.17769088  0.47932494  0.18484426  1  0  0.100912  0.105932  0  1.009295  0
H  H14  1  0.85986172  0.45616162  0.56718701  1  0  0.100068  0.092283  0  1.001865  0
H  H15  1  0.14014541  0.54383977  0.43281022  1  0  0.10006  0.092225  0  1.002018  0
H  H16  1  0.99484347  0.37361575  0.68513215  1  0  0.103482  0.105416  0  1.008789  0
H  H17  1  0.00515406  0.62637395  0.31486094  1  0  0.10348  0.105462  0  1.008716  0
H  H18  1  0.48289739  0.56125713  0.73119970  1  0  0.087902  0.113838  0  1.042535  0
H  H19  1  0.51711661  0.43875245  0.26880747  1  0  0.08792  0.113848  0  1.042629  0
H  H20  1  0.54786793  0.46652411  0.86828698  1  0  0.097253  0.126702  0  1.011375  0
H  H21  1  0.45214132  0.53347263  0.13170863  1  0  0.097306  0.126749  0  1.011376  0
H  H22  1  0.33393477  0.37581103  0.70735940  1  0  0.087892  0.110201  0  1.050444  0
H  H23  1  0.66607445  0.62419270  0.29264414  1  0  0.08788  0.110166  0  1.050424  0
C  C24  1  0.57418640  0.17295983  0.44071489  1  0  0.134116  0.130273  0  3.957193  0
C  C25  1  0.42581715  0.82703921  0.55928820  1  0  0.134091  0.130399  0  3.957167  0
C  C26  1  0.48086843  0.27917537  0.50787161  1  0  0.13628  0.132173  0  3.958471  0
C  C27  1  0.51915331  0.72084471  0.49214731  1  0  0.136298  0.132163  0  3.958244  0
C  C28  1  0.85275389  0.10547765  0.47581764  1  0  -0.148079  -0.272889  0  3.876026  0
C  C29  1  0.14723157  0.89451433  0.52417610  1  0  -0.148119  -0.272846  0  3.87612  0
C  C30  1  0.76171960  0.39764982  0.73972584  1  0  -0.061012  -0.092886  0  3.880544  0
C  C31  1  0.23828701  0.60235390  0.26027913  1  0  -0.061035  -0.092795  0  3.88073  0
C  C32  1  0.85527340  0.36827812  0.62544931  1  0  -0.061908  -0.09482  0  3.893383  0
C  C33  1  0.14472674  0.63171858  0.37454923  1  0  -0.06193  -0.094793  0  3.893575  0
C  C34  1  0.47712084  0.44742729  0.74581534  1  0  -0.149395  -0.289955  0  3.915247  0
C  C35  1  0.52288922  0.55257877  0.25419210  1  0  -0.149502  -0.290016  0  3.915642  0
S  S36  1  0.45079959  0.00242627  0.29609040  1  0  -0.161867  -0.229071  0  2.976293  0
S  S37  1  0.54918674  0.99757154  0.70390807  1  0  -0.161848  -0.229083  0  2.976304  0
S  S38  1  0.27053800  0.27673980  0.40966485  1  0  -0.151876  -0.248783  0  2.577863  0
S  S39  1  0.72947387  0.72326744  0.59033810  1  0  -0.151809  -0.248621  0  2.577892  0
I  I40  1  0.86493373  0.79372947  0.08812986  1  0  -0.153659  -0.2532  0  2.160013  0
I  I41  1  0.13506401  0.20627771  0.91186535  1  0  -0.153689  -0.253213  0  2.159929  0
I  I42  1  0.24763931  0.73613544  0.87846710  1  0  -0.230978  -0.362092  0  1.612498  0
I  I43  1  0.75235766  0.26386356  0.12154268  1  0  -0.23098  -0.362095  0  1.612496  0
N  N44  1  0.56801362  0.36829406  0.65713037  1  0  -0.250016  0.061061  0  3.659319  0
N  N45  1  0.43198200  0.63170031  0.34285082  1  0  -0.249941  0.060928  0  3.659251  0
N  N46  1  0.75456092  0.21252973  0.51024547  1  0  -0.249019  0.070822  0  3.655222  0
N  N47  1  0.24542676  0.78746808  0.48974917  1  0  -0.248982  0.070771  0  3.655056  0
