# generated using pymatgen
data_Cd3H38C28(O4F3)4
_symmetry_space_group_name_H-M   'P 1'
_cell_length_a   9.53823742
_cell_length_b   9.64838233
_cell_length_c   12.38628946
_cell_angle_alpha   69.52179956
_cell_angle_beta   70.78038484
_cell_angle_gamma   87.54254627
_symmetry_Int_Tables_number   1
_chemical_formula_structural   Cd3H38C28(O4F3)4
_chemical_formula_sum   'Cd3 H38 C28 O16 F12'
_cell_volume   1004.96626385
_cell_formula_units_Z   1
loop_
 _symmetry_equiv_pos_site_id
 _symmetry_equiv_pos_as_xyz
  1  'x, y, z'
loop_
 _atom_site_type_symbol
 _atom_site_label
 _atom_site_symmetry_multiplicity
 _atom_site_fract_x
 _atom_site_fract_y
 _atom_site_fract_z
 _atom_site_occupancy
 _atom_site_hle17_bader_spin_density
 _atom_site_hle17_ddec_charge
 _atom_site_hle17_ddec_spin_density
 _atom_site_hle17_ddec_sum_bond_order
 _atom_site_hle17_magmom
 _atom_site_hse06_10hf_bader_spin_density
 _atom_site_hse06_10hf_ddec_charge
 _atom_site_hse06_10hf_ddec_spin_density
 _atom_site_hse06_10hf_ddec_sum_bond_order
 _atom_site_hse06_10hf_magmom
 _atom_site_hse06_bader_spin_density
 _atom_site_hse06_ddec_charge
 _atom_site_hse06_ddec_spin_density
 _atom_site_hse06_ddec_sum_bond_order
 _atom_site_hse06_magmom
 _atom_site_pbe_bader_spin_density
 _atom_site_pbe_cm5_charge
 _atom_site_pbe_ddec_charge
 _atom_site_pbe_ddec_spin_density
 _atom_site_pbe_ddec_sum_bond_order
 _atom_site_pbe_magmom
Cd  Cd0  1  0.19413425  0.55497257  0.34246661  1  0  1.261481  0  1.614272  0  0  1.079988  0  2.065909  0  0  1.138592  0  2.006956  0  0  0.808283  1.039323  0  2.105796  0
Cd  Cd1  1  0.80586133  0.44503170  0.65753422  1  0  1.261491  0  1.614291  0  0  1.080009  0  2.065911  0  0  1.138616  0  2.006953  0  0  0.808286  1.039341  0  2.105802  0
Cd  Cd2  1  0.49999974  0.49999881  0.50000002  1  0  1.324043  0  1.603572  0  0  1.150645  0  2.070176  0  0  1.208303  0  2.006859  0  0  0.794927  1.109371  0  2.114014  0
H  H3  1  0.27380203  0.60081958  0.69577486  1  0  0.140396  0  0.976461  0  0  0.155744  0  1.040743  0  0  0.15803  0  1.040845  0  0  0.092432  0.154201  0  1.04052  0
H  H4  1  0.72619892  0.39918249  0.30422521  1  0  0.140417  0  0.976429  0  0  0.155767  0  1.040705  0  0  0.15805  0  1.040815  0  0  0.092444  0.154226  0  1.040478  0
H  H5  1  0.08391004  0.52040147  0.77382752  1  0  0.14776  0  0.950654  0  0  0.161021  0  1.016596  0  0  0.164326  0  1.014954  0  0  0.101281  0.158592  0  1.017878  0
H  H6  1  0.91609193  0.47959949  0.22617017  1  0  0.147779  0  0.950614  0  0  0.161024  0  1.016578  0  0  0.164331  0  1.014933  0  0  0.101267  0.158594  0  1.01786  0
H  H7  1  0.12029216  0.71377830  0.69633076  1  0  0.147462  0  0.928629  0  0  0.169687  0  0.982797  0  0  0.171599  0  0.982911  0  0  0.10586  0.168449  0  0.982556  0
H  H8  1  0.87970990  0.28622377  0.30366903  1  0  0.147489  0  0.928628  0  0  0.169707  0  0.982797  0  0  0.17162  0  0.982913  0  0  0.105869  0.168468  0  0.982558  0
H  H9  1  0.26555278  0.94215111  0.21317337  1  0  0.06526  0  0.93497  0  0  0.072364  0  1.007247  0  0  0.073557  0  1.005458  0  0  0.094059  0.071187  0  1.009036  0
H  H10  1  0.73445150  0.05785096  0.78682504  1  0  0.065237  0  0.935035  0  0  0.072337  0  1.007325  0  0  0.073531  0  1.005532  0  0  0.094059  0.07116  0  1.009111  0
H  H11  1  0.20054189  0.86857993  0.37649472  1  0  0.053389  0  0.948064  0  0  0.063899  0  1.016208  0  0  0.064963  0  1.014823  0  0  0.089408  0.062594  0  1.017755  0
H  H12  1  0.79945684  0.13142213  0.62350672  1  0  0.053357  0  0.948008  0  0  0.063871  0  1.016167  0  0  0.064935  0  1.014783  0  0  0.08938  0.062571  0  1.017712  0
H  H13  1  0.01969982  0.03992455  0.38926703  1  0  0.074162  0  0.933636  0  0  0.093366  0  0.990144  0  0  0.094305  0  0.990379  0  0  0.091114  0.092338  0  0.99066  0
H  H14  1  0.98030104  0.96007641  0.61073175  1  0  0.074147  0  0.93366  0  0  0.093366  0  0.990156  0  0  0.094308  0  0.990388  0  0  0.091108  0.092332  0  0.990678  0
H  H15  1  0.10399541  0.13538850  0.22989092  1  0  0.074923  0  0.947774  0  0  0.090913  0  1.012137  0  0  0.091888  0  1.011991  0  0  0.090621  0.090208  0  1.012177  0
H  H16  1  0.89600407  0.86460913  0.77010993  1  0  0.074949  0  0.947751  0  0  0.090944  0  1.012105  0  0  0.091917  0  1.011962  0  0  0.090631  0.090235  0  1.012145  0
H  H17  1  0.93789837  0.00371839  0.18095834  1  0  0.074493  0  0.932  0  0  0.091834  0  0.991278  0  0  0.09299  0  0.991125  0  0  0.088979  0.090845  0  0.99156  0
H  H18  1  0.06210138  0.99628257  0.81903992  1  0  0.074484  0  0.932031  0  0  0.091821  0  0.991317  0  0  0.092975  0  0.991167  0  0  0.088992  0.090826  0  0.991603  0
H  H19  1  0.81551980  0.00179208  0.32550917  1  0  0.08782  0  0.958302  0  0  0.105188  0  1.019864  0  0  0.105954  0  1.020098  0  0  0.091  0.104547  0  1.019764  0
H  H20  1  0.18448199  0.99820666  0.67448917  1  0  0.087765  0  0.958303  0  0  0.105191  0  1.019817  0  0  0.105958  0  1.02005  0  0  0.090994  0.104545  0  1.019724  0
H  H21  1  0.88402815  0.75540912  0.43081698  1  0  0.06023  0  0.946655  0  0  0.075324  0  1.010622  0  0  0.075997  0  1.010384  0  0  0.094859  0.074752  0  1.010852  0
H  H22  1  0.11596929  0.24459072  0.56918217  1  0  0.060237  0  0.946702  0  0  0.075359  0  1.010633  0  0  0.076032  0  1.010397  0  0  0.094883  0.074784  0  1.010866  0
H  H23  1  0.87735879  0.73809619  0.29263429  1  0  0.067363  0  0.93409  0  0  0.081627  0  0.999843  0  0  0.081904  0  0.999308  0  0  0.101056  0.081293  0  1.000376  0
H  H24  1  0.12263727  0.26190032  0.70736773  1  0  0.06734  0  0.93416  0  0  0.08167  0  0.99985  0  0  0.08195  0  0.99931  0  0  0.101064  0.08133  0  1.000391  0
H  H25  1  0.23276598  0.36493758  0.14266518  1  0  0.066016  0  0.93759  0  0  0.077582  0  1.004896  0  0  0.078503  0  1.003472  0  0  0.100156  0.076739  0  1.006267  0
H  H26  1  0.76723470  0.63506116  0.85733345  1  0  0.066006  0  0.937615  0  0  0.077575  0  1.004921  0  0  0.078497  0  1.003493  0  0  0.100173  0.076733  0  1.006291  0
H  H27  1  0.38644483  0.49992441  0.08515427  1  0  0.048035  0  0.938131  0  0  0.06008  0  1.007279  0  0  0.060752  0  1.00664  0  0  0.093047  0.059381  0  1.008047  0
H  H28  1  0.61355381  0.50007654  0.91484669  1  0  0.048021  0  0.938134  0  0  0.060072  0  1.007287  0  0  0.060744  0  1.006645  0  0  0.093041  0.059374  0  1.008055  0
H  H29  1  0.19795807  0.45161576  0.94659875  1  0  0.067236  0  0.961207  0  0  0.081798  0  1.027676  0  0  0.082572  0  1.028087  0  0  0.084706  0.081207  0  1.027419  0
H  H30  1  0.80203937  0.54838408  0.05340362  1  0  0.067234  0  0.961207  0  0  0.081802  0  1.027677  0  0  0.082577  0  1.028087  0  0  0.08471  0.081211  0  1.027416  0
H  H31  1  0.37451513  0.55070962  0.88918682  1  0  0.071137  0  0.94551  0  0  0.090248  0  1.004177  0  0  0.090635  0  1.005059  0  0  0.087904  0.089941  0  1.003676  0
H  H32  1  0.62548369  0.44929355  0.11081349  1  0  0.071096  0  0.945504  0  0  0.090216  0  1.004175  0  0  0.090604  0  1.005057  0  0  0.087878  0.08991  0  1.003673  0
H  H33  1  0.24259622  0.76997434  0.85778948  1  0  0.080898  0  0.958696  0  0  0.094962  0  1.025537  0  0  0.095734  0  1.026053  0  0  0.089855  0.094411  0  1.02513  0
H  H34  1  0.75740002  0.23002438  0.14221108  1  0  0.080873  0  0.958784  0  0  0.094963  0  1.025597  0  0  0.095736  0  1.026112  0  0  0.089849  0.094411  0  1.025188  0
H  H35  1  0.07009728  0.66381250  0.94991646  1  0  0.069125  0  0.93759  0  0  0.089229  0  0.99341  0  0  0.089813  0  0.99428  0  0  0.088569  0.088674  0  0.992893  0
H  H36  1  0.92990247  0.33618846  0.05008421  1  0  0.069112  0  0.937611  0  0  0.089212  0  0.99344  0  0  0.089796  0  0.99431  0  0  0.088561  0.088653  0  0.992928  0
H  H37  1  0.29492937  0.77595683  0.03572846  1  0  0.064092  0  0.933662  0  0  0.074017  0  1.003531  0  0  0.075602  0  1.001231  0  0  0.093033  0.072479  0  1.005781  0
H  H38  1  0.70507038  0.22404412  0.96427302  1  0  0.064069  0  0.933654  0  0  0.074015  0  1.003508  0  0  0.075576  0  1.001242  0  0  0.093036  0.072483  0  1.005749  0
H  H39  1  0.09620857  0.77673886  0.08913404  1  0  0.069484  0  0.935983  0  0  0.082566  0  0.999865  0  0  0.083282  0  0.998894  0  0  0.102955  0.081735  0  1.00108  0
H  H40  1  0.90379220  0.22326099  0.91086507  1  0  0.069501  0  0.935985  0  0  0.082582  0  0.999868  0  0  0.0833  0  0.998891  0  0  0.102965  0.08175  0  1.001085  0
C  C41  1  0.39950139  0.27376496  0.37987904  1  0  0.526519  0  4.015043  0  0  0.471637  0  4.31855  0  0  0.503008  0  4.312061  0  0  0.205095  0.449973  0  4.323802  0
C  C42  1  0.60049485  0.72623377  0.62012072  1  0  0.526607  0  4.014857  0  0  0.471621  0  4.318531  0  0  0.502994  0  4.312038  0  0  0.205067  0.449972  0  4.323768  0
C  C43  1  0.43708520  0.12965089  0.34954794  1  0  0.669626  0  3.645956  0  0  0.599183  0  3.988174  0  0  0.626225  0  3.961579  0  0  0.297033  0.578174  0  4.010518  0
C  C44  1  0.56291335  0.87034895  0.65045173  1  0  0.669535  0  3.645968  0  0  0.59912  0  3.988199  0  0  0.626164  0  3.961592  0  0  0.29699  0.578093  0  4.010557  0
C  C45  1  0.55041832  0.70914203  0.21516877  1  0  0.527811  0  4.007342  0  0  0.475333  0  4.307514  0  0  0.506381  0  4.302241  0  0  0.205205  0.454418  0  4.310655  0
C  C46  1  0.44957800  0.29085781  0.78482985  1  0  0.52785  0  4.007243  0  0  0.4753  0  4.307539  0  0  0.506341  0  4.302267  0  0  0.205182  0.454358  0  4.310722  0
C  C47  1  0.65684262  0.82830691  0.09653415  1  0  0.668729  0  3.636553  0  0  0.600356  0  3.976756  0  0  0.627004  0  3.950528  0  0  0.297414  0.580597  0  3.996772  0
C  C48  1  0.34316140  0.17169183  0.90346686  1  0  0.668753  0  3.636414  0  0  0.600364  0  3.976658  0  0  0.627035  0  3.950396  0  0  0.297439  0.580612  0  3.996682  0
C  C49  1  0.14936040  0.58924099  0.58053786  1  0  0.788243  0  3.787575  0  0  0.741699  0  4.080058  0  0  0.777701  0  4.071616  0  0  0.221794  0.717277  0  4.08479  0
C  C50  1  0.85064046  0.41075997  0.41946173  1  0  0.788173  0  3.787576  0  0  0.741583  0  4.080134  0  0  0.777585  0  4.071694  0  0  0.221729  0.717163  0  4.084863  0
C  C51  1  0.16035450  0.60622525  0.69345387  1  0  -0.463852  0  3.636524  0  0  -0.538825  0  3.870746  0  0  -0.546784  0  3.872821  0  0  -0.248826  -0.533408  0  3.869091  0
C  C52  1  0.83964645  0.39377682  0.30654620  1  0  -0.463894  0  3.636487  0  0  -0.538828  0  3.870704  0  0  -0.546791  0  3.872777  0  0  -0.248823  -0.533414  0  3.86905  0
C  C53  1  0.16605254  0.90740711  0.29528080  1  0  0.089267  0  3.550022  0  0  0.031102  0  3.822724  0  0  0.038718  0  3.828549  0  0  -0.078711  0.025936  0  3.81939  0
C  C54  1  0.83394934  0.09259274  0.70471883  1  0  0.089333  0  3.550039  0  0  0.031137  0  3.822795  0  0  0.038753  0  3.828618  0  0  -0.0787  0.025963  0  3.819463  0
C  C55  1  0.05471726  0.02704320  0.29967464  1  0  -0.136603  0  3.651201  0  0  -0.178934  0  3.917005  0  0  -0.180723  0  3.930049  0  0  -0.167621  -0.177486  0  3.907943  0
C  C56  1  0.94528333  0.97295443  0.70032512  1  0  -0.136634  0  3.651184  0  0  -0.178973  0  3.917011  0  0  -0.180765  0  3.930054  0  0  -0.167623  -0.177519  0  3.907945  0
C  C57  1  0.92229921  0.96724980  0.27905822  1  0  -0.148297  0  3.682777  0  0  -0.190768  0  3.946856  0  0  -0.192772  0  3.960214  0  0  -0.170292  -0.189372  0  3.937498  0
C  C58  1  0.07770250  0.03274783  0.72094125  1  0  -0.148233  0  3.682757  0  0  -0.190751  0  3.946865  0  0  -0.192754  0  3.960224  0  0  -0.170331  -0.189343  0  3.937497  0
C  C59  1  0.92980315  0.80035729  0.33021019  1  0  0.093704  0  3.575667  0  0  0.035032  0  3.843116  0  0  0.042364  0  3.850057  0  0  -0.07769  0.029888  0  3.838564  0
C  C60  1  0.07019531  0.19964144  0.66978980  1  0  0.093653  0  3.575774  0  0  0.034894  0  3.84325  0  0  0.042226  0  3.850193  0  0  -0.077716  0.029756  0  3.838701  0
C  C61  1  0.27232028  0.48113342  0.08723103  1  0  0.091771  0  3.564721  0  0  0.034908  0  3.832207  0  0  0.042266  0  3.838414  0  0  -0.075579  0.029838  0  3.828083  0
C  C62  1  0.72767938  0.51886643  0.91276916  1  0  0.091803  0  3.564721  0  0  0.034928  0  3.83223  0  0  0.042292  0  3.838426  0  0  -0.075578  0.029858  0  3.828106  0
C  C63  1  0.26275088  0.53361717  0.95770407  1  0  -0.143507  0  3.645167  0  0  -0.183416  0  3.903718  0  0  -0.185452  0  3.917932  0  0  -0.17093  -0.1818  0  3.893726  0
C  C64  1  0.73724869  0.46638156  0.04229645  1  0  -0.143479  0  3.64511  0  0  -0.183413  0  3.903709  0  0  -0.185451  0  3.917922  0  0  -0.170931  -0.181799  0  3.893714  0
C  C65  1  0.18589630  0.68034651  0.94435413  1  0  -0.142677  0  3.66299  0  0  -0.182358  0  3.923787  0  0  -0.184485  0  3.937657  0  0  -0.171213  -0.180707  0  3.913846  0
C  C66  1  0.81410438  0.31965223  0.05564772  1  0  -0.142639  0  3.662948  0  0  -0.182337  0  3.923772  0  0  -0.184465  0  3.93764  0  0  -0.171194  -0.180685  0  3.913833  0
C  C67  1  0.18918728  0.71625211  0.05382412  1  0  0.082787  0  3.588887  0  0  0.021143  0  3.86483  0  0  0.028842  0  3.870033  0  0  -0.079608  0.016346  0  3.861054  0
C  C68  1  0.81081460  0.28374774  0.94617632  1  0  0.082776  0  3.588848  0  0  0.021105  0  3.86482  0  0  0.028814  0  3.870024  0  0  -0.079634  0.016303  0  3.861042  0
O  O69  1  0.29255809  0.33379931  0.34806804  1  0  -0.59495  0  2.10527  0  0  -0.550292  0  2.373545  0  0  -0.577311  0  2.362218  0  0  -0.31684  -0.532311  0  2.381474  0
O  O70  1  0.70744259  0.66619943  0.65193381  1  0  -0.595013  0  2.10514  0  0  -0.550308  0  2.373459  0  0  -0.577332  0  2.362132  0  0  -0.316823  -0.532329  0  2.381386  0
O  O71  1  0.47653579  0.30732643  0.43327689  1  0  -0.589609  0  2.080721  0  0  -0.54097  0  2.335249  0  0  -0.566841  0  2.32307  0  0  -0.312973  -0.523765  0  2.344  0
O  O72  1  0.52346489  0.69267231  0.56672415  1  0  -0.589594  0  2.080803  0  0  -0.540925  0  2.335397  0  0  -0.566794  0  2.323218  0  0  -0.312952  -0.523725  0  2.344142  0
O  O73  1  0.42553269  0.68392591  0.20929764  1  0  -0.589864  0  2.074568  0  0  -0.549396  0  2.337208  0  0  -0.575978  0  2.327215  0  0  -0.313529  -0.530976  0  2.34369  0
O  O74  1  0.57446595  0.31607504  0.79070332  1  0  -0.589935  0  2.074454  0  0  -0.549426  0  2.337109  0  0  -0.576008  0  2.327115  0  0  -0.313544  -0.530987  0  2.343598  0
O  O75  1  0.60408958  0.65942664  0.30029019  1  0  -0.592735  0  2.064207  0  0  -0.541668  0  2.31602  0  0  -0.569253  0  2.305977  0  0  -0.313258  -0.522407  0  2.322324  0
O  O76  1  0.39590906  0.34057431  0.69971157  1  0  -0.592724  0  2.064312  0  0  -0.541633  0  2.316166  0  0  -0.569216  0  2.306126  0  0  -0.313237  -0.522357  0  2.322474  0
O  O77  1  0.26737662  0.57286105  0.49826493  1  0  -0.716296  0  2.076355  0  0  -0.628715  0  2.349854  0  0  -0.663796  0  2.333825  0  0  -0.330289  -0.603845  0  2.359643  0
O  O78  1  0.73262535  0.42713991  0.50173519  1  0  -0.716234  0  2.076394  0  0  -0.628654  0  2.34993  0  0  -0.663733  0  2.333899  0  0  -0.330264  -0.603783  0  2.359713  0
O  O79  1  0.02520260  0.59459155  0.56389698  1  0  -0.678439  0  2.039441  0  0  -0.613779  0  2.301882  0  0  -0.643402  0  2.288961  0  0  -0.329618  -0.593412  0  2.310136  0
O  O80  1  0.97480030  0.40540719  0.43610189  1  0  -0.678425  0  2.039385  0  0  -0.613734  0  2.301824  0  0  -0.643359  0  2.288908  0  0  -0.329583  -0.59336  0  2.310059  0
O  O81  1  0.08886430  0.78286130  0.29077732  1  0  -0.369952  0  2.283838  0  0  -0.275953  0  2.538131  0  0  -0.298289  0  2.539783  0  0  -0.238178  -0.260611  0  2.536772  0
O  O82  1  0.91113647  0.21713855  0.70922260  1  0  -0.369907  0  2.283864  0  0  -0.275895  0  2.538186  0  0  -0.298232  0  2.539839  0  0  -0.238152  -0.260553  0  2.536826  0
O  O83  1  0.17572735  0.57123281  0.14854116  1  0  -0.354957  0  2.252665  0  0  -0.261287  0  2.499715  0  0  -0.282683  0  2.501252  0  0  -0.232624  -0.246101  0  2.497983  0
O  O84  1  0.82427213  0.42876482  0.85146049  1  0  -0.354921  0  2.252628  0  0  -0.261237  0  2.499679  0  0  -0.282633  0  2.501207  0  0  -0.232606  -0.246054  0  2.49795  0
F  F85  1  0.33665659  0.01453873  0.43480666  1  0  -0.248413  0  1.16581  0  0  -0.204606  0  1.324531  0  0  -0.215562  0  1.310303  0  0  -0.095193  -0.192853  0  1.32885  0
F  F86  1  0.66334316  0.98546222  0.56519482  1  0  -0.248399  0  1.165805  0  0  -0.204607  0  1.324527  0  0  -0.215564  0  1.310295  0  0  -0.0952  -0.192842  0  1.328842  0
F  F87  1  0.57508291  0.08837267  0.34883537  1  0  -0.234755  0  1.20412  0  0  -0.206004  0  1.382491  0  0  -0.214911  0  1.365917  0  0  -0.094468  -0.200977  0  1.394715  0
F  F88  1  0.42491888  0.91162607  0.65116539  1  0  -0.234718  0  1.204209  0  0  -0.20597  0  1.382583  0  0  -0.214878  0  1.366004  0  0  -0.094424  -0.200936  0  1.39481  0
F  F89  1  0.42951294  0.14593963  0.23771963  1  0  -0.245283  0  1.175123  0  0  -0.203302  0  1.336885  0  0  -0.21434  0  1.323182  0  0  -0.09663  -0.193195  0  1.342983  0
F  F90  1  0.57048894  0.85406022  0.76228080  1  0  -0.245277  0  1.17511  0  0  -0.203276  0  1.336846  0  0  -0.21432  0  1.323146  0  0  -0.096624  -0.193173  0  1.342955  0
F  F91  1  0.80438604  0.80769797  0.07906134  1  0  -0.250332  0  1.144727  0  0  -0.21814  0  1.311715  0  0  -0.227611  0  1.296386  0  0  -0.104378  -0.21151  0  1.323091  0
F  F92  1  0.19561731  0.19230632  0.92093671  1  0  -0.250342  0  1.144625  0  0  -0.218138  0  1.311614  0  0  -0.227612  0  1.296279  0  0  -0.104373  -0.211501  0  1.322991  0
F  F93  1  0.63459493  0.96567835  0.10457707  1  0  -0.247363  0  1.164244  0  0  -0.207261  0  1.323575  0  0  -0.216411  0  1.306662  0  0  -0.097747  -0.200603  0  1.335689  0
F  F94  1  0.36540584  0.03432149  0.89542284  1  0  -0.247365  0  1.1642  0  0  -0.207255  0  1.323533  0  0  -0.216411  0  1.306613  0  0  -0.097751  -0.200595  0  1.335647  0
F  F95  1  0.63267776  0.83137685  0.99343125  1  0  -0.24337  0  1.176683  0  0  -0.201502  0  1.336276  0  0  -0.211076  0  1.320588  0  0  -0.096998  -0.194722  0  1.347804  0
F  F96  1  0.36731941  0.16861966  0.00657129  1  0  -0.243362  0  1.176718  0  0  -0.20149  0  1.336322  0  0  -0.211075  0  1.320628  0  0  -0.096988  -0.194707  0  1.34785  0
