# generated using pymatgen
data_KH6C4SN3
_symmetry_space_group_name_H-M   'P 1'
_cell_length_a   6.56078315
_cell_length_b   6.56095204
_cell_length_c   16.20244947
_cell_angle_alpha   93.34067778
_cell_angle_beta   93.34486856
_cell_angle_gamma   90.29359453
_symmetry_Int_Tables_number   1
_chemical_formula_structural   KH6C4SN3
_chemical_formula_sum   'K4 H24 C16 S4 N12'
_cell_volume   695.03748668
_cell_formula_units_Z   4
loop_
 _symmetry_equiv_pos_site_id
 _symmetry_equiv_pos_as_xyz
  1  'x, y, z'
loop_
 _atom_site_type_symbol
 _atom_site_label
 _atom_site_symmetry_multiplicity
 _atom_site_fract_x
 _atom_site_fract_y
 _atom_site_fract_z
 _atom_site_occupancy
 _atom_site_hle17_bader_spin_density
 _atom_site_hle17_ddec_charge
 _atom_site_hle17_ddec_spin_density
 _atom_site_hle17_ddec_sum_bond_order
 _atom_site_hle17_magmom
 _atom_site_hse06_10hf_bader_spin_density
 _atom_site_hse06_10hf_ddec_charge
 _atom_site_hse06_10hf_ddec_spin_density
 _atom_site_hse06_10hf_ddec_sum_bond_order
 _atom_site_hse06_10hf_magmom
 _atom_site_hse06_bader_spin_density
 _atom_site_hse06_ddec_charge
 _atom_site_hse06_ddec_spin_density
 _atom_site_hse06_ddec_sum_bond_order
 _atom_site_hse06_magmom
 _atom_site_pbe_bader_spin_density
 _atom_site_pbe_cm5_charge
 _atom_site_pbe_ddec_charge
 _atom_site_pbe_ddec_spin_density
 _atom_site_pbe_ddec_sum_bond_order
 _atom_site_pbe_magmom
K  K0  1  0.30993054  0.73742755  0.92806130  1  0  0.836361  0  0.542103  0  0  0.75854  0  0.75437  0  0  0.771041  0  0.739096  0  0  0.691332  0.748804  0  0.765695  0
K  K1  1  0.76259259  0.19010643  0.57194533  1  0  0.836369  0  0.542121  0  0  0.758523  0  0.75442  0  0  0.771026  0  0.739144  0  0  0.691366  0.748777  0  0.765751  0
K  K2  1  0.69009087  0.26256521  0.07193762  1  0  0.836368  0  0.542105  0  0  0.758529  0  0.754416  0  0  0.771028  0  0.739144  0  0  0.691359  0.748791  0  0.765742  0
K  K3  1  0.23743499  0.80989094  0.42805877  1  0  0.836351  0  0.542169  0  0  0.758562  0  0.754377  0  0  0.771064  0  0.739101  0  0  0.691353  0.748818  0  0.765707  0
H  H4  1  0.80429558  0.59279247  0.89350609  1  0  0.064112  0  0.940127  0  0  0.075314  0  1.011349  0  0  0.075594  0  1.011238  0  0  0.119253  0.075016  0  1.011558  0
H  H5  1  0.90716607  0.69575061  0.60648444  1  0  0.064203  0  0.940016  0  0  0.075409  0  1.011176  0  0  0.075681  0  1.01107  0  0  0.119303  0.075117  0  1.011377  0
H  H6  1  0.19570743  0.40719260  0.10648915  1  0  0.064219  0  0.940005  0  0  0.075419  0  1.011226  0  0  0.075701  0  1.011117  0  0  0.11928  0.075121  0  1.011436  0
H  H7  1  0.09282341  0.30426193  0.39351296  1  0  0.064229  0  0.940105  0  0  0.075428  0  1.011262  0  0  0.075703  0  1.011158  0  0  0.119336  0.075133  0  1.011466  0
H  H8  1  0.80510596  0.86704903  0.89457014  1  0  0.064175  0  0.938619  0  0  0.075349  0  1.009597  0  0  0.075636  0  1.009529  0  0  0.119227  0.07506  0  1.009751  0
H  H9  1  0.63289606  0.69495016  0.60542381  1  0  0.064455  0  0.939096  0  0  0.075551  0  1.010073  0  0  0.075835  0  1.010001  0  0  0.11935  0.075264  0  1.010226  0
H  H10  1  0.19490014  0.13293609  0.10543135  1  0  0.06413  0  0.938849  0  0  0.075338  0  1.009785  0  0  0.075627  0  1.009719  0  0  0.119226  0.075046  0  1.009943  0
H  H11  1  0.36709191  0.30505937  0.39457967  1  0  0.064397  0  0.939055  0  0  0.075519  0  1.00999  0  0  0.075805  0  1.009921  0  0  0.119332  0.075233  0  1.010137  0
H  H12  1  0.10229646  0.89256709  0.71281306  1  0  0.062957  0  0.932167  0  0  0.076469  0  1.000724  0  0  0.077129  0  0.999639  0  0  0.113749  0.075785  0  1.00187  0
H  H13  1  0.60740886  0.39771593  0.78716707  1  0  0.063074  0  0.932367  0  0  0.076688  0  1.000829  0  0  0.077338  0  0.99978  0  0  0.113849  0.076037  0  1.001931  0
H  H14  1  0.89770200  0.10742255  0.28718156  1  0  0.062999  0  0.932288  0  0  0.076542  0  1.000807  0  0  0.077184  0  0.999754  0  0  0.11379  0.075892  0  1.00191  0
H  H15  1  0.39258209  0.60229049  0.21282776  1  0  0.063041  0  0.932275  0  0  0.076598  0  1.000754  0  0  0.077236  0  0.999691  0  0  0.113786  0.075911  0  1.001892  0
H  H16  1  0.97590994  0.03667545  0.79155911  1  0  0.064093  0  0.942641  0  0  0.07687  0  1.010748  0  0  0.076903  0  1.010845  0  0  0.116105  0.076707  0  1.010906  0
H  H17  1  0.46327948  0.52414090  0.70843001  1  0  0.064031  0  0.942307  0  0  0.076771  0  1.010597  0  0  0.076814  0  1.010695  0  0  0.116013  0.076605  0  1.010763  0
H  H18  1  0.02410382  0.96331576  0.20844022  1  0  0.064108  0  0.942513  0  0  0.076861  0  1.010672  0  0  0.076892  0  1.010769  0  0  0.116113  0.076698  0  1.010836  0
H  H19  1  0.53671148  0.47586554  0.29156729  1  0  0.064097  0  0.942513  0  0  0.076782  0  1.010799  0  0  0.07682  0  1.010894  0  0  0.116041  0.076617  0  1.010956  0
H  H20  1  0.97367486  0.39893882  0.78877220  1  0  0.063818  0  0.939201  0  0  0.077265  0  1.007082  0  0  0.07739  0  1.007031  0  0  0.116659  0.077027  0  1.007341  0
H  H21  1  0.10106893  0.52632650  0.71120005  1  0  0.063816  0  0.93871  0  0  0.07729  0  1.006611  0  0  0.077367  0  1.006622  0  0  0.116572  0.077064  0  1.006853  0
H  H22  1  0.02632061  0.60106150  0.21122136  1  0  0.06384  0  0.938926  0  0  0.077281  0  1.006901  0  0  0.077399  0  1.006854  0  0  0.116603  0.077042  0  1.007154  0
H  H23  1  0.89894330  0.47367228  0.28878892  1  0  0.063749  0  0.938981  0  0  0.077251  0  1.006911  0  0  0.07733  0  1.006915  0  0  0.11658  0.07701  0  1.007169  0
H  H24  1  0.46430982  0.89079335  0.71003677  1  0  0.062954  0  0.93223  0  0  0.076922  0  1.001051  0  0  0.077599  0  1.000024  0  0  0.113855  0.076255  0  1.002118  0
H  H25  1  0.60922865  0.03565662  0.78996524  1  0  0.063328  0  0.932509  0  0  0.077254  0  1.001282  0  0  0.077931  0  1.000252  0  0  0.114047  0.076589  0  1.002346  0
H  H26  1  0.53568430  0.10922077  0.28996880  1  0  0.063252  0  0.932181  0  0  0.077142  0  1.001023  0  0  0.077816  0  0.999993  0  0  0.113967  0.076472  0  1.002098  0
H  H27  1  0.39077143  0.96433767  0.21003940  1  0  0.063365  0  0.932529  0  0  0.07728  0  1.001277  0  0  0.077955  0  1.000247  0  0  0.114028  0.076615  0  1.002339  0
C  C28  1  0.88922605  0.76126713  0.07029898  1  0  0.273426  0  4.096394  0  0  0.265092  0  4.395228  0  0  0.283908  0  4.408668  0  0  0.128779  0.252221  0  4.385792  0
C  C29  1  0.73874931  0.61083163  0.42969904  1  0  0.273074  0  4.095807  0  0  0.264733  0  4.394707  0  0  0.283555  0  4.408148  0  0  0.128507  0.25186  0  4.385266  0
C  C30  1  0.11078773  0.23872561  0.92970038  1  0  0.273039  0  4.095979  0  0  0.264695  0  4.394867  0  0  0.283519  0  4.408321  0  0  0.12851  0.251821  0  4.38542  0
C  C31  1  0.26125998  0.38917334  0.57030296  1  0  0.273154  0  4.095768  0  0  0.264812  0  4.394667  0  0  0.283633  0  4.408109  0  0  0.128566  0.251939  0  4.385226  0
C  C32  1  0.79931856  0.72515828  0.85477552  1  0  0.070055  0  3.659564  0  0  0.004316  0  3.921431  0  0  0.01161  0  3.931426  0  0  0.00721  -0.000553  0  3.914454  0
C  C33  1  0.77481053  0.70071039  0.64521165  1  0  0.069602  0  3.660395  0  0  0.004009  0  3.921928  0  0  0.011329  0  3.931875  0  0  0.00702  -0.000867  0  3.914958  0
C  C34  1  0.20069059  0.27482986  0.14522177  1  0  0.069974  0  3.659875  0  0  0.004154  0  3.921722  0  0  0.011429  0  3.931734  0  0  0.007192  -0.000715  0  3.914741  0
C  C35  1  0.22517430  0.29928994  0.35478784  1  0  0.06967  0  3.660201  0  0  0.004043  0  3.921843  0  0  0.011346  0  3.931819  0  0  0.007039  -0.000833  0  3.914873  0
C  C36  1  0.97029750  0.89553495  0.75160832  1  0  0.087997  0  3.648512  0  0  0.020891  0  3.913475  0  0  0.029149  0  3.921527  0  0  0.015869  0.015447  0  3.907841  0
C  C37  1  0.60446701  0.52970121  0.74839992  1  0  0.088015  0  3.648444  0  0  0.020643  0  3.913535  0  0  0.028848  0  3.921683  0  0  0.015818  0.015186  0  3.907879  0
C  C38  1  0.02968588  0.10447457  0.24839444  1  0  0.087971  0  3.648213  0  0  0.02081  0  3.91319  0  0  0.029056  0  3.921283  0  0  0.015832  0.015355  0  3.907521  0
C  C39  1  0.39553919  0.47029461  0.25160551  1  0  0.088057  0  3.648562  0  0  0.020878  0  3.913473  0  0  0.029121  0  3.921576  0  0  0.01591  0.015436  0  3.907841  0
C  C40  1  0.96917498  0.53079822  0.74999901  1  0  0.087112  0  3.63906  0  0  0.02031  0  3.903052  0  0  0.028444  0  3.911665  0  0  0.01499  0.014969  0  3.897064  0
C  C41  1  0.03081739  0.46918688  0.25000401  1  0  0.087212  0  3.639065  0  0  0.020224  0  3.903293  0  0  0.028363  0  3.911896  0  0  0.015045  0.014895  0  3.897304  0
C  C42  1  0.60566252  0.89439379  0.75001235  1  0  0.093048  0  3.654947  0  0  0.021582  0  3.926101  0  0  0.029646  0  3.934065  0  0  0.016646  0.016235  0  3.920542  0
C  C43  1  0.39435301  0.10562041  0.24999988  1  0  0.092719  0  3.655187  0  0  0.021365  0  3.926216  0  0  0.029454  0  3.934127  0  0  0.016582  0.016018  0  3.920656  0
S  S44  1  0.64508498  0.76449976  0.08676571  1  0  -0.501407  0  2.023738  0  0  -0.466056  0  2.328429  0  0  -0.480531  0  2.321349  0  0  -0.237197  -0.455383  0  2.333481  0
S  S45  1  0.73551336  0.85494424  0.41323114  1  0  -0.501176  0  2.024422  0  0  -0.465851  0  2.329154  0  0  -0.480324  0  2.322074  0  0  -0.23705  -0.455181  0  2.334207  0
S  S46  1  0.35489975  0.23548077  0.91324074  1  0  -0.501004  0  2.024331  0  0  -0.465663  0  2.329062  0  0  -0.480137  0  2.321992  0  0  -0.237034  -0.454994  0  2.334114  0
S  S47  1  0.26449444  0.14506682  0.58676912  1  0  -0.501132  0  2.024574  0  0  -0.465815  0  2.329323  0  0  -0.48029  0  2.322257  0  0  -0.237032  -0.455146  0  2.334374  0
N  N48  1  0.06709631  0.75911216  0.06037361  1  0  -0.576237  0  2.66127  0  0  -0.542111  0  2.906328  0  0  -0.555664  0  2.913149  0  0  -0.476912  -0.532633  0  2.90185  0
N  N49  1  0.74092040  0.43293740  0.43963717  1  0  -0.576057  0  2.659934  0  0  -0.541953  0  2.905076  0  0  -0.555505  0  2.911886  0  0  -0.476781  -0.532472  0  2.900596  0
N  N50  1  0.93286871  0.24089728  0.93962194  1  0  -0.576169  0  2.660118  0  0  -0.542057  0  2.90524  0  0  -0.555614  0  2.912062  0  0  -0.476814  -0.532574  0  2.900757  0
N  N51  1  0.25910117  0.56707371  0.56036896  1  0  -0.576197  0  2.659814  0  0  -0.542094  0  2.904953  0  0  -0.555649  0  2.911772  0  0  -0.476885  -0.532615  0  2.900475  0
N  N52  1  0.98066386  0.71953480  0.80452919  1  0  -0.326269  0  3.144634  0  0  -0.255447  0  3.403992  0  0  -0.270096  0  3.419265  0  0  -0.42464  -0.245141  0  3.393155  0
N  N53  1  0.78042981  0.51936598  0.69545380  1  0  -0.326151  0  3.144396  0  0  -0.25501  0  3.403424  0  0  -0.26963  0  3.418667  0  0  -0.424423  -0.244705  0  3.392597  0
N  N54  1  0.01933617  0.28046246  0.19546317  1  0  -0.326189  0  3.144516  0  0  -0.255149  0  3.403738  0  0  -0.269776  0  3.418981  0  0  -0.424592  -0.244842  0  3.392904  0
N  N55  1  0.21956570  0.48063588  0.30454350  1  0  -0.326175  0  3.144361  0  0  -0.255067  0  3.403443  0  0  -0.269702  0  3.418697  0  0  -0.424454  -0.244761  0  3.3926  0
N  N56  1  0.60643359  0.71839330  0.80283070  1  0  -0.336521  0  3.166833  0  0  -0.264748  0  3.428196  0  0  -0.279062  0  3.442959  0  0  -0.419283  -0.254613  0  3.417628  0
N  N57  1  0.78159962  0.89356517  0.69716046  1  0  -0.336312  0  3.166437  0  0  -0.264648  0  3.427754  0  0  -0.278991  0  3.442516  0  0  -0.419243  -0.254506  0  3.417177  0
N  N58  1  0.39356498  0.28160706  0.19717033  1  0  -0.336598  0  3.166878  0  0  -0.264831  0  3.428178  0  0  -0.279138  0  3.442917  0  0  -0.419312  -0.254694  0  3.417599  0
N  N59  1  0.21839131  0.10643670  0.30283797  1  0  -0.336424  0  3.166442  0  0  -0.264805  0  3.427796  0  0  -0.279143  0  3.442555  0  0  -0.419338  -0.254663  0  3.417229  0
