# generated using pymatgen
data_AgH15C13(NO)3
_symmetry_space_group_name_H-M   'P 1'
_cell_length_a   5.73166194
_cell_length_b   13.32274985
_cell_length_c   16.98770000
_cell_angle_alpha   90.00000000
_cell_angle_beta   90.00000000
_cell_angle_gamma   90.01989790
_symmetry_Int_Tables_number   1
_chemical_formula_structural   AgH15C13(NO)3
_chemical_formula_sum   'Ag4 H60 C52 N12 O12'
_cell_volume   1297.20614637
_cell_formula_units_Z   4
loop_
 _symmetry_equiv_pos_site_id
 _symmetry_equiv_pos_as_xyz
  1  'x, y, z'
loop_
 _atom_site_type_symbol
 _atom_site_label
 _atom_site_symmetry_multiplicity
 _atom_site_fract_x
 _atom_site_fract_y
 _atom_site_fract_z
 _atom_site_occupancy
 _atom_site_pbe_bader_charge
 _atom_site_pbe_bader_spin_density
 _atom_site_pbe_cm5_charge
 _atom_site_pbe_ddec_charge
 _atom_site_pbe_ddec_spin_density
 _atom_site_pbe_ddec_sum_bond_order
 _atom_site_pbe_magmom
Ag  Ag0  1  0.42420120  0.76897043  0.35926759  1  0.630188  0  0.502698  0.460824  0  1.825909  0
Ag  Ag1  1  0.57580198  0.73102931  0.85927818  1  0.630116  0  0.502726  0.460859  0  1.825895  0
Ag  Ag2  1  0.57578395  0.23103415  0.64073182  1  0.63037  0  0.502666  0.460785  0  1.826031  0
Ag  Ag3  1  0.42419537  0.26896926  0.14072594  1  0.630181  0  0.502703  0.460824  0  1.825871  0
H  H4  1  0.78956808  0.97418333  0.51338380  1  0.086752  0  0.108073  0.110333  0  1.012428  0
H  H5  1  0.21044381  0.52579914  0.01340087  1  0.086696  0  0.108048  0.110382  0  1.012327  0
H  H6  1  0.21043798  0.02580098  0.48660796  1  0.086604  0  0.108034  0.110312  0  1.012356  0
H  H7  1  0.78954830  0.47418817  0.98660619  1  0.086505  0  0.108048  0.110359  0  1.012377  0
H  H8  1  0.46900399  0.99687909  0.61045933  1  0.107199  0  0.10205  0.107884  0  1.037591  0
H  H9  1  0.53103582  0.50311764  0.11046698  1  0.106919  0  0.102098  0.108062  0  1.037597  0
H  H10  1  0.53100208  0.00311497  0.38953125  1  0.107031  0  0.102053  0.107961  0  1.03758  0
H  H11  1  0.46896153  0.49687793  0.88953714  1  0.106995  0  0.10206  0.107997  0  1.037575  0
H  H12  1  0.62599702  0.70747111  0.71120752  1  0.090212  0  0.095297  0.097135  0  1.077519  0
H  H13  1  0.37403407  0.79253013  0.21120458  1  0.090265  0  0.095339  0.097182  0  1.077471  0
H  H14  1  0.37401080  0.29253047  0.28880072  1  0.090361  0  0.095281  0.097067  0  1.077597  0
H  H15  1  0.62596328  0.20747295  0.78878483  1  0.090185  0  0.095306  0.097162  0  1.077423  0
H  H16  1  0.96135827  0.68960092  0.62166921  1  0.106079  0  0.106425  0.110299  0  1.025299  0
H  H17  1  0.03866409  0.81038905  0.12166921  1  0.106322  0  0.106484  0.110318  0  1.025477  0
H  H18  1  0.03865304  0.31039765  0.37834080  1  0.106083  0  0.106429  0.110272  0  1.025345  0
H  H19  1  0.96133849  0.18960576  0.87831961  1  0.106636  0  0.106439  0.110234  0  1.025475  0
H  H20  1  0.23424714  0.93702808  0.71119575  1  0.053682  0  0.102197  0.087221  0  0.996955  0
H  H21  1  0.76579093  0.56297390  0.21120281  1  0.054065  0  0.10226  0.087228  0  0.996942  0
H  H22  1  0.76576417  0.06297649  0.28880131  1  0.05311  0  0.102194  0.087247  0  0.996905  0
H  H23  1  0.23421340  0.43703218  0.78880013  1  0.053661  0  0.102227  0.087162  0  0.996967  0
H  H24  1  0.21273087  0.80432274  0.72355822  1  0.101117  0  0.10494  0.095788  0  1.030751  0
H  H25  1  0.78729325  0.69568525  0.22356587  1  0.100883  0  0.104907  0.095615  0  1.031092  0
H  H26  1  0.78727696  0.19568334  0.27643942  1  0.100982  0  0.104911  0.095676  0  1.030889  0
H  H27  1  0.21269538  0.30432308  0.77643530  1  0.100914  0  0.104893  0.095607  0  1.031022  0
H  H28  1  0.49596069  0.03004410  0.79375901  1  0.083967  0  0.10013  0.091072  0  1.009919  0
H  H29  1  0.50404131  0.46995931  0.29375784  1  0.083987  0  0.100131  0.091038  0  1.009936  0
H  H30  1  0.50404539  0.96995747  0.20624157  1  0.083955  0  0.100126  0.091058  0  1.009922  0
H  H31  1  0.49594907  0.53004601  0.70624157  1  0.083971  0  0.100089  0.091015  0  1.01006  0
H  H32  1  0.73235182  0.94732626  0.77732536  1  0.047375  0  0.09883  0.083246  0  1.013404  0
H  H33  1  0.26765311  0.55268173  0.27732536  1  0.047405  0  0.098836  0.083227  0  1.013382  0
H  H34  1  0.26764728  0.05267607  0.22267405  1  0.047436  0  0.098828  0.083246  0  1.013408  0
H  H35  1  0.73233902  0.44732435  0.72267582  1  0.047576  0  0.098856  0.083306  0  1.013366  0
H  H36  1  0.78378116  0.04077237  0.90072464  1  0.027434  0  0.093014  0.094164  0  1.009409  0
H  H37  1  0.21621735  0.45923180  0.40072346  1  0.026965  0  0.09296  0.094118  0  1.009373  0
H  H38  1  0.21622841  0.95922771  0.09927595  1  0.027156  0  0.092985  0.094161  0  1.009374  0
H  H39  1  0.78377303  0.54077203  0.59927712  1  0.026931  0  0.092992  0.094165  0  1.009385  0
H  H40  1  0.75961788  0.91054781  0.92021757  1  0.019972  0  0.083021  0.068058  0  1.047215  0
H  H41  1  0.24038879  0.58945492  0.42021698  1  0.019955  0  0.083048  0.068065  0  1.047254  0
H  H42  1  0.24038994  0.08945076  0.07978125  1  0.020022  0  0.083033  0.068072  0  1.047156  0
H  H43  1  0.75960682  0.41054965  0.57978479  1  0.020056  0  0.083012  0.068034  0  1.047244  0
H  H44  1  0.37308684  0.06649153  0.94035861  1  0.028686  0  0.093335  0.069922  0  0.953086  0
H  H45  1  0.62691690  0.43350813  0.44035744  1  0.028806  0  0.093306  0.069925  0  0.953044  0
H  H46  1  0.62692622  0.93350854  0.05964198  1  0.028786  0  0.093256  0.069904  0  0.952975  0
H  H47  1  0.37307696  0.56649119  0.55964080  1  0.028789  0  0.093285  0.069896  0  0.953027  0
H  H48  1  0.35629683  0.83924346  0.96880213  1  0.015113  0  0.083186  0.076073  0  1.036375  0
H  H49  1  0.64369937  0.66075627  0.46880449  1  0.015164  0  0.083179  0.076015  0  1.03641  0
H  H50  1  0.64369703  0.16075586  0.03119669  1  0.015149  0  0.083169  0.076023  0  1.036436  0
H  H51  1  0.35630322  0.33924455  0.53119963  1  0.015176  0  0.083181  0.076028  0  1.03646  0
H  H52  1  0.12152563  0.92372227  0.97992253  1  0.014891  0  0.091005  0.091444  0  1.010781  0
H  H53  1  0.87847231  0.57627971  0.47992724  1  0.014747  0  0.091016  0.091458  0  1.010765  0
H  H54  1  0.87847521  0.07628230  0.02007629  1  0.014808  0  0.091007  0.091456  0  1.01079  0
H  H55  1  0.12153027  0.42371811  0.52007276  1  0.014799  0  0.091026  0.091449  0  1.010795  0
H  H56  1  0.09012296  0.83304954  0.85370356  1  0.070197  0  0.097881  0.07315  0  1.0132  0
H  H57  1  0.90988022  0.66695544  0.35370886  1  0.070004  0  0.097833  0.073096  0  1.013221  0
H  H58  1  0.90987266  0.16695728  0.14629467  1  0.070016  0  0.097835  0.073119  0  1.013237  0
H  H59  1  0.09011365  0.33305063  0.64629349  1  0.070242  0  0.097877  0.073146  0  1.013221  0
H  H60  1  0.12507091  0.96486168  0.83848785  1  0.025997  0  0.098931  0.078754  0  1.004344  0
H  H61  1  0.87493750  0.53514181  0.33849197  1  0.026025  0  0.098941  0.078793  0  1.004355  0
H  H62  1  0.87493691  0.03514365  0.16151156  1  0.026042  0  0.098967  0.078805  0  1.004409  0
H  H63  1  0.12505637  0.46486202  0.66150744  1  0.025948  0  0.098931  0.078766  0  1.004356  0
C  C64  1  0.08553947  0.81770136  0.50899298  1  0.81966  0  0.217361  0.300268  0  3.968947  0
C  C65  1  0.91447940  0.68228711  0.00900240  1  0.819339  0  0.21727  0.300231  0  3.968616  0
C  C66  1  0.91448405  0.18229346  0.49100761  1  0.818923  0  0.217289  0.300127  0  3.968686  0
C  C67  1  0.08551096  0.31769795  0.99099760  1  0.819487  0  0.217263  0.300121  0  3.968822  0
C  C68  1  0.89480890  0.83040820  0.56114836  1  0.069291  0  -0.000411  0.029717  0  4.093683  0
C  C69  1  0.10520125  0.66957878  0.06115366  1  0.069233  0  -0.000388  0.029628  0  4.093683  0
C  C70  1  0.10520590  0.16958587  0.43885694  1  0.069554  0  -0.000383  0.029769  0  4.093556  0
C  C71  1  0.89479086  0.33041079  0.93884399  1  0.069022  0  -0.000426  0.02957  0  4.093793  0
C  C72  1  0.75492983  0.91695865  0.55754517  1  0.051003  0  -0.067582  -0.073603  0  3.917724  0
C  C73  1  0.24509079  0.58302757  0.05755635  1  0.050593  0  -0.067563  -0.073491  0  3.917745  0
C  C74  1  0.24507973  0.08303241  0.44245130  1  0.050539  0  -0.067583  -0.073511  0  3.917579  0
C  C75  1  0.75490830  0.41696124  0.94244836  1  0.050729  0  -0.067535  -0.073482  0  3.91766  0
C  C76  1  0.57418539  0.92863042  0.61132290  1  -0.021965  0  -0.081306  -0.116919  0  3.936834  0
C  C77  1  0.42584395  0.57136556  0.11133232  1  -0.02155  0  -0.081358  -0.117315  0  3.93732  0
C  C78  1  0.42581719  0.07136365  0.38867122  1  -0.021462  0  -0.081305  -0.117089  0  3.937037  0
C  C79  1  0.57415863  0.42863226  0.88867239  1  -0.021233  0  -0.081374  -0.117267  0  3.937146  0
C  C80  1  0.52644461  0.85427789  0.66742643  1  -0.053429  0  0.003201  0.120643  0  3.930939  0
C  C81  1  0.47357776  0.64572484  0.16742938  1  -0.053442  0  0.003151  0.120758  0  3.930982  0
C  C82  1  0.47355449  0.14572143  0.33257475  1  -0.052814  0  0.003174  0.120594  0  3.931036  0
C  C83  1  0.52642134  0.35427898  0.83257180  1  -0.053462  0  0.003272  0.120802  0  3.931028  0
C  C84  1  0.66319311  0.76699936  0.66893811  1  0.052616  0  -0.087867  -0.127685  0  3.947971  0
C  C85  1  0.33683275  0.73300187  0.16893635  1  0.05208  0  -0.087853  -0.127914  0  3.948226  0
C  C86  1  0.33680598  0.23299996  0.33106483  1  0.052203  0  -0.087788  -0.127502  0  3.947975  0
C  C87  1  0.66316112  0.26699895  0.83105777  1  0.051914  0  -0.087954  -0.128017  0  3.948302  0
C  C88  1  0.84910356  0.75528631  0.61743850  1  -0.085489  0  -0.073881  -0.092569  0  3.947054  0
C  C89  1  0.15091008  0.74470366  0.11744085  1  -0.085444  0  -0.07397  -0.092365  0  3.94706  0
C  C90  1  0.15090077  0.24471226  0.38256739  1  -0.085695  0  -0.073894  -0.092532  0  3.946865  0
C  C91  1  0.84908203  0.25528965  0.88255208  1  -0.085574  0  -0.07385  -0.092112  0  3.947161  0
C  C92  1  0.33275136  0.86848817  0.72614715  1  0.22144  0  -0.072751  -0.132384  0  3.90752  0
C  C93  1  0.66728148  0.63151606  0.22614598  1  0.221797  0  -0.072739  -0.132072  0  3.907392  0
C  C94  1  0.66725647  0.13151715  0.27385638  1  0.221907  0  -0.072677  -0.132197  0  3.907325  0
C  C95  1  0.33271413  0.36848926  0.77385579  1  0.222098  0  -0.072716  -0.131999  0  3.907056  0
C  C96  1  0.58271046  0.96166039  0.81588208  1  0.236966  0  -0.084487  -0.079029  0  3.884976  0
C  C97  1  0.41729795  0.53834235  0.31588090  1  0.237106  0  -0.08451  -0.078943  0  3.884883  0
C  C98  1  0.41729387  0.03833968  0.18411851  1  0.23694  0  -0.084476  -0.078996  0  3.884986  0
C  C99  1  0.58269592  0.46166223  0.68411910  1  0.236958  0  -0.084475  -0.079017  0  3.885082  0
C  C100  1  0.66181352  0.97722324  0.90026490  1  -0.038634  0  -0.168457  -0.199735  0  3.933167  0
C  C101  1  0.33819140  0.52278099  0.40026313  1  -0.038574  0  -0.168393  -0.199667  0  3.933111  0
C  C102  1  0.33819255  0.02277758  0.09973628  1  -0.038718  0  -0.168416  -0.199733  0  3.933015  0
C  C103  1  0.66180247  0.47722358  0.59973746  1  -0.038623  0  -0.168408  -0.199717  0  3.933163  0
C  C104  1  0.45858324  0.99510093  0.95705716  1  0.020831  0  -0.089856  0.00502  0  3.824063  0
C  C105  1  0.54141819  0.50489955  0.45705658  1  -0.002276  0  -0.089849  0.004979  0  3.823918  0
C  C106  1  0.54141760  0.00489914  0.04294284  1  -0.002314  0  -0.089812  0.005152  0  3.823689  0
C  C107  1  0.45857916  0.49510052  0.54294342  1  0.021051  0  -0.08979  0.005204  0  3.823769  0
C  C108  1  0.28143312  0.90981673  0.94596149  1  -0.018495  0  -0.16938  -0.207143  0  3.928106  0
C  C109  1  0.71857180  0.59018600  0.44596384  1  -0.018537  0  -0.16935  -0.207039  0  3.928015  0
C  C110  1  0.71857121  0.09018634  0.05403792  1  -0.01867  0  -0.169363  -0.207171  0  3.928067  0
C  C111  1  0.28142730  0.40981482  0.55403616  1  -0.018623  0  -0.169373  -0.207103  0  3.928175  0
C  C112  1  0.21244387  0.89618141  0.86005286  1  0.253208  0  -0.079328  -0.070571  0  3.892869  0
C  C113  1  0.78756629  0.60382133  0.36005757  1  0.253292  0  -0.079342  -0.070504  0  3.892985  0
C  C114  1  0.78756221  0.10382242  0.13994478  1  0.253432  0  -0.079327  -0.070554  0  3.893024  0
C  C115  1  0.21242234  0.39618400  0.63993890  1  0.253267  0  -0.079354  -0.070515  0  3.892873  0
N  N116  1  0.41735425  0.87608721  0.80885817  1  -0.956335  0  -0.34505  -0.09319  0  3.470152  0
N  N117  1  0.58266115  0.62391553  0.30885817  1  -0.956524  0  -0.345068  -0.09345  0  3.470304  0
N  N118  1  0.58265009  0.12391437  0.19114065  1  -0.956168  0  -0.345067  -0.093309  0  3.470207  0
N  N119  1  0.41733098  0.37608980  0.69113947  1  -0.956568  0  -0.345072  -0.093477  0  3.470087  0
N  N120  1  0.90821924  0.87439987  0.29931598  1  0.793429  0  0.088626  0.711486  0  4.422416  0
N  N121  1  0.09177522  0.62560287  0.79931303  1  0.793765  0  0.088731  0.711744  0  4.422115  0
N  N122  1  0.09177811  0.12560020  0.70068108  1  0.7934  0  0.088721  0.711593  0  4.422289  0
N  N123  1  0.90821865  0.37439946  0.20068814  1  0.793821  0  0.088719  0.711674  0  4.422135  0
N  N124  1  0.24720735  0.80595303  0.46827410  1  -1.186846  0  -0.348643  -0.377855  0  3.238398  0
N  N125  1  0.75279582  0.69403394  0.96827822  1  -1.186135  0  -0.348575  -0.377856  0  3.237909  0
N  N126  1  0.75281094  0.19405079  0.53173414  1  -1.186151  0  -0.348603  -0.377798  0  3.23802  0
N  N127  1  0.24718233  0.30595112  0.03172648  1  -1.186382  0  -0.348524  -0.377715  0  3.238084  0
O  O128  1  0.12559501  0.89222802  0.29961089  1  -0.538732  0  -0.200328  -0.457573  0  2.059979  0
O  O129  1  0.87439945  0.60777547  0.79960972  1  -0.538775  0  -0.200354  -0.457666  0  2.059992  0
O  O130  1  0.87440409  0.10776980  0.70038557  1  -0.538756  0  -0.200415  -0.45762  0  2.059854  0
O  O131  1  0.12559442  0.39222686  0.20039146  1  -0.538701  0  -0.20033  -0.457603  0  2.059965  0
O  O132  1  0.79747463  0.86777211  0.36457319  1  -0.562122  0  -0.210021  -0.476635  0  2.058989  0
O  O133  1  0.20252332  0.63222838  0.86457025  1  -0.562333  0  -0.210071  -0.476727  0  2.058779  0
O  O134  1  0.20252970  0.13222496  0.63542563  1  -0.562244  0  -0.210086  -0.476716  0  2.059022  0
O  O135  1  0.79746357  0.36777470  0.13543211  1  -0.562404  0  -0.210082  -0.476701  0  2.058806  0
O  O136  1  0.80013063  0.86415649  0.23485934  1  -0.553577  0  -0.190845  -0.457655  0  1.994965  0
O  O137  1  0.19985860  0.63584775  0.73485581  1  -0.553634  0  -0.190874  -0.457728  0  1.994922  0
O  O138  1  0.19986498  0.13584509  0.76513772  1  -0.553462  0  -0.190803  -0.457622  0  1.994934  0
O  O139  1  0.80013876  0.36415983  0.26514596  1  -0.553678  0  -0.190897  -0.457782  0  1.994987  0
