# generated using pymatgen
data_ZnH14C17N8
_symmetry_space_group_name_H-M   'P 1'
_cell_length_a   9.23511513
_cell_length_b   9.73869549
_cell_length_c   12.06543289
_cell_angle_alpha   98.39076892
_cell_angle_beta   107.12979814
_cell_angle_gamma   116.29884792
_symmetry_Int_Tables_number   1
_chemical_formula_structural   ZnH14C17N8
_chemical_formula_sum   'Zn2 H28 C34 N16'
_cell_volume   879.95006721
_cell_formula_units_Z   2
loop_
 _symmetry_equiv_pos_site_id
 _symmetry_equiv_pos_as_xyz
  1  'x, y, z'
loop_
 _atom_site_type_symbol
 _atom_site_label
 _atom_site_symmetry_multiplicity
 _atom_site_fract_x
 _atom_site_fract_y
 _atom_site_fract_z
 _atom_site_occupancy
 _atom_site_hle17_bader_spin_density
 _atom_site_hle17_ddec_charge
 _atom_site_hle17_ddec_spin_density
 _atom_site_hle17_ddec_sum_bond_order
 _atom_site_hle17_magmom
 _atom_site_hse06_10hf_bader_spin_density
 _atom_site_hse06_10hf_ddec_charge
 _atom_site_hse06_10hf_ddec_spin_density
 _atom_site_hse06_10hf_ddec_sum_bond_order
 _atom_site_hse06_10hf_magmom
 _atom_site_hse06_bader_spin_density
 _atom_site_hse06_ddec_charge
 _atom_site_hse06_ddec_spin_density
 _atom_site_hse06_ddec_sum_bond_order
 _atom_site_hse06_magmom
 _atom_site_pbe_bader_spin_density
 _atom_site_pbe_cm5_charge
 _atom_site_pbe_ddec_charge
 _atom_site_pbe_ddec_spin_density
 _atom_site_pbe_ddec_sum_bond_order
 _atom_site_pbe_magmom
Zn  Zn0  1  0.50038491  0.99999503  0.00019138  1  0  1.023855  0  1.990816  0  0  0.851868  0  2.459745  0  0  0.892155  0  2.413991  0  0  0.731954  0.824652  0  2.490539  0
Zn  Zn1  1  0.50001611  0.50005689  0.50001781  1  0  1.025294  0  1.993891  0  0  0.852141  0  2.46512  0  0  0.892303  0  2.418792  0  0  0.732778  0.825279  0  2.495813  0
H  H2  1  0.01957256  0.66083171  0.37763344  1  0  0.064495  0  0.973505  0  0  0.083108  0  1.035666  0  0  0.083613  0  1.036629  0  0  0.088656  0.082617  0  1.035172  0
H  H3  1  0.20730798  0.47786407  0.69734767  1  0  0.061151  0  0.964024  0  0  0.079392  0  1.027476  0  0  0.07872  0  1.029788  0  0  0.088162  0.07968  0  1.026066  0
H  H4  1  0.98111923  0.33900735  0.62169765  1  0  0.063987  0  0.974873  0  0  0.082724  0  1.036781  0  0  0.08326  0  1.037714  0  0  0.088586  0.082213  0  1.036309  0
H  H5  1  0.79322040  0.52207676  0.30279591  1  0  0.061319  0  0.96378  0  0  0.079317  0  1.027574  0  0  0.078685  0  1.029817  0  0  0.087911  0.079579  0  1.026202  0
H  H6  1  0.79861385  0.48264176  0.10215898  1  0  0.085077  0  0.93077  0  0  0.101571  0  0.992006  0  0  0.102556  0  0.992586  0  0  0.094243  0.100862  0  0.991639  0
H  H7  1  0.21216285  0.24410972  0.66131712  1  0  0.089865  0  0.934841  0  0  0.108724  0  0.993523  0  0  0.108905  0  0.994953  0  0  0.098877  0.108526  0  0.992614  0
H  H8  1  0.20032959  0.51839645  0.89709178  1  0  0.085492  0  0.929815  0  0  0.101428  0  0.991564  0  0  0.102392  0  0.992202  0  0  0.094465  0.100725  0  0.991218  0
H  H9  1  0.78850484  0.75580894  0.33958694  1  0  0.090764  0  0.935592  0  0  0.109479  0  0.994376  0  0  0.109657  0  0.995762  0  0  0.099171  0.109281  0  0.993498  0
H  H10  1  0.95446029  0.45043191  0.20183572  1  0  0.08424  0  0.939877  0  0  0.100576  0  1.002773  0  0  0.101209  0  1.003283  0  0  0.094223  0.100446  0  1.001836  0
H  H11  1  0.22385890  0.27026701  0.81089412  1  0  0.081423  0  0.942859  0  0  0.098146  0  1.00611  0  0  0.098919  0  1.006687  0  0  0.093976  0.097602  0  1.005713  0
H  H12  1  0.04351477  0.54872368  0.79648439  1  0  0.084709  0  0.939653  0  0  0.100996  0  1.002491  0  0  0.101637  0  1.003027  0  0  0.094095  0.100893  0  1.001518  0
H  H13  1  0.77571151  0.72991004  0.18976468  1  0  0.081774  0  0.942526  0  0  0.0985  0  1.00585  0  0  0.099147  0  1.006533  0  0  0.094188  0.098037  0  1.005393  0
H  H14  1  0.28561049  0.65710530  0.27612942  1  0  0.110917  0  0.969889  0  0  0.11911  0  1.035848  0  0  0.12174  0  1.035856  0  0  0.102573  0.117102  0  1.036133  0
H  H15  1  0.11638519  0.99242547  0.79969477  1  0  0.110784  0  0.985314  0  0  0.118128  0  1.053411  0  0  0.120881  0  1.053127  0  0  0.100909  0.116024  0  1.054071  0
H  H16  1  0.71324610  0.34176553  0.72324573  1  0  0.110985  0  0.970191  0  0  0.119379  0  1.035862  0  0  0.121984  0  1.035909  0  0  0.102545  0.117371  0  1.036122  0
H  H17  1  0.88408713  0.00730288  0.19998672  1  0  0.110704  0  0.985417  0  0  0.1183  0  1.053226  0  0  0.121071  0  1.052937  0  0  0.100889  0.116198  0  1.053893  0
H  H18  1  0.50383427  0.84102349  0.20522358  1  0  0.078804  0  0.933178  0  0  0.089666  0  0.993255  0  0  0.091691  0  0.991726  0  0  0.116162  0.088111  0  0.994436  0
H  H19  1  0.86606463  0.70465421  0.71015598  1  0  0.076084  0  0.94128  0  0  0.084718  0  1.006688  0  0  0.086915  0  1.004634  0  0  0.113164  0.083352  0  1.007759  0
H  H20  1  0.49578306  0.15789553  0.79472041  1  0  0.07909  0  0.93276  0  0  0.08963  0  0.993205  0  0  0.091745  0  0.991526  0  0  0.115911  0.088015  0  0.994485  0
H  H21  1  0.13431271  0.29511285  0.28945882  1  0  0.076021  0  0.94039  0  0  0.084573  0  1.005874  0  0  0.086697  0  1.003925  0  0  0.113123  0.083228  0  1.006917  0
H  H22  1  0.12117377  0.87856535  0.95205884  1  0  0.074042  0  0.958564  0  0  0.083561  0  1.023198  0  0  0.085452  0  1.021398  0  0  0.11397  0.08218  0  1.0245  0
H  H23  1  0.56492681  0.81294117  0.45094637  1  0  0.072335  0  0.952122  0  0  0.081685  0  1.017275  0  0  0.083667  0  1.015363  0  0  0.113322  0.080191  0  1.018662  0
H  H24  1  0.87995279  0.12253318  0.04831380  1  0  0.074607  0  0.956656  0  0  0.084013  0  1.021534  0  0  0.085924  0  1.019693  0  0  0.114109  0.082608  0  1.02289  0
H  H25  1  0.43479898  0.18743410  0.54970799  1  0  0.071785  0  0.953002  0  0  0.080774  0  1.01867  0  0  0.082826  0  1.016694  0  0  0.113014  0.079286  0  1.020069  0
H  H26  1  0.88506127  0.69255396  0.00923155  1  0  0.100203  0  0.985355  0  0  0.107105  0  1.051688  0  0  0.109901  0  1.051776  0  0  0.100867  0.105138  0  1.051695  0
H  H27  1  0.80131483  0.10131450  0.52455212  1  0  0.10373  0  1.001931  0  0  0.107013  0  1.072668  0  0  0.110443  0  1.07198  0  0  0.099473  0.105021  0  1.072626  0
H  H28  1  0.11539519  0.30865196  0.99065773  1  0  0.100565  0  0.984919  0  0  0.107771  0  1.050961  0  0  0.110586  0  1.051042  0  0  0.100735  0.10579  0  1.050964  0
H  H29  1  0.19830440  0.89905198  0.47624270  1  0  0.103671  0  1.001182  0  0  0.106627  0  1.07247  0  0  0.110059  0  1.071781  0  0  0.098822  0.104631  0  1.072417  0
C  C30  1  0.90386175  0.61986504  0.29309480  1  0  -0.087227  0  3.651395  0  0  -0.125761  0  3.90504  0  0  -0.126389  0  3.918982  0  0  -0.162156  -0.125156  0  3.895566  0
C  C31  1  0.09622480  0.38003743  0.70663005  1  0  -0.086464  0  3.652651  0  0  -0.125199  0  3.905767  0  0  -0.125751  0  3.919755  0  0  -0.16254  -0.124633  0  3.896286  0
C  C32  1  0.92566782  0.54445479  0.18228767  1  0  -0.167058  0  3.692742  0  0  -0.210166  0  3.944857  0  0  -0.211973  0  3.957204  0  0  -0.162179  -0.208968  0  3.936275  0
C  C33  1  0.13567622  0.24393113  0.71644064  1  0  -0.165554  0  3.68265  0  0  -0.204516  0  3.926305  0  0  -0.206191  0  3.938466  0  0  -0.16012  -0.203278  0  3.917824  0
C  C34  1  0.07332307  0.45551915  0.81681775  1  0  -0.167793  0  3.693125  0  0  -0.210558  0  3.945835  0  0  -0.212481  0  3.958301  0  0  -0.161826  -0.209389  0  3.93728  0
C  C35  1  0.86439871  0.75610551  0.28398712  1  0  -0.165894  0  3.683455  0  0  -0.205178  0  3.927404  0  0  -0.206647  0  3.939374  0  0  -0.160486  -0.204076  0  3.91907  0
C  C36  1  0.06564664  0.66047374  0.14902774  1  0  0.171091  0  3.703824  0  0  0.187435  0  3.938161  0  0  0.193014  0  3.960164  0  0  0.016112  0.183853  0  3.923401  0
C  C37  1  0.98057318  0.07378763  0.67127546  1  0  0.169589  0  3.69882  0  0  0.185254  0  3.933875  0  0  0.191125  0  3.956076  0  0  0.016114  0.18139  0  3.919026  0
C  C38  1  0.93390017  0.33948978  0.85047189  1  0  0.170869  0  3.703991  0  0  0.186447  0  3.939124  0  0  0.192161  0  3.961005  0  0  0.015596  0.18286  0  3.924375  0
C  C39  1  0.01947496  0.92626724  0.32898983  1  0  0.168063  0  3.699555  0  0  0.184449  0  3.933946  0  0  0.190301  0  3.956092  0  0  0.015573  0.180598  0  3.919134  0
C  C40  1  0.24339690  0.70534006  0.20501091  1  0  -0.183066  0  3.696239  0  0  -0.200003  0  3.942269  0  0  -0.20882  0  3.96468  0  0  -0.089261  -0.194305  0  3.927402  0
C  C41  1  0.99520023  0.95802708  0.72287587  1  0  -0.189352  0  3.706843  0  0  -0.207135  0  3.953082  0  0  -0.216378  0  3.975808  0  0  -0.093018  -0.20129  0  3.938256  0
C  C42  1  0.75593902  0.29392422  0.79450167  1  0  -0.183267  0  3.695799  0  0  -0.19985  0  3.941404  0  0  -0.208693  0  3.963831  0  0  -0.089303  -0.194131  0  3.926524  0
C  C43  1  0.00507928  0.04185899  0.27706493  1  0  -0.189179  0  3.706986  0  0  -0.207322  0  3.953024  0  0  -0.216586  0  3.975751  0  0  -0.09316  -0.201476  0  3.938202  0
C  C44  1  0.36551353  0.80735919  0.16603115  1  0  0.135932  0  3.717438  0  0  0.104439  0  3.968266  0  0  0.111832  0  3.986957  0  0  0.04549  0.099774  0  3.955391  0
C  C45  1  0.85681840  0.79804551  0.67375136  1  0  0.140031  0  3.717408  0  0  0.109142  0  3.96566  0  0  0.116493  0  3.984589  0  0  0.043873  0.104158  0  3.952863  0
C  C46  1  0.63427172  0.19203518  0.83384819  1  0  0.135385  0  3.717634  0  0  0.104084  0  3.968389  0  0  0.111424  0  3.98705  0  0  0.045558  0.099444  0  3.955537  0
C  C47  1  0.14344998  0.20185780  0.32613002  1  0  0.141015  0  3.715851  0  0  0.110154  0  3.964068  0  0  0.117574  0  3.983055  0  0  0.044502  0.105151  0  3.95125  0
C  C48  1  0.15166432  0.82764585  0.02412976  1  0  0.132547  0  3.729079  0  0  0.102611  0  3.976352  0  0  0.110229  0  3.994518  0  0  0.043931  0.097842  0  3.963685  0
C  C49  1  0.68922776  0.85817007  0.52865174  1  0  0.128381  0  3.736491  0  0  0.09847  0  3.984475  0  0  0.106088  0  4.002673  0  0  0.041116  0.093845  0  3.971839  0
C  C50  1  0.84899753  0.17299889  0.97601303  1  0  0.132752  0  3.726511  0  0  0.10301  0  3.973808  0  0  0.110602  0  3.99199  0  0  0.044215  0.098256  0  3.961132  0
C  C51  1  0.31066021  0.14207309  0.47180794  1  0  0.129964  0  3.736051  0  0  0.100245  0  3.983914  0  0  0.107814  0  4.00211  0  0  0.042116  0.095605  0  3.971291  0
C  C52  1  0.02173543  0.72543274  0.05707060  1  0  -0.176038  0  3.709563  0  0  -0.191025  0  3.953066  0  0  -0.199826  0  3.975368  0  0  -0.089379  -0.185315  0  3.938032  0
C  C53  1  0.82205185  0.01989498  0.57146970  1  0  -0.179825  0  3.710369  0  0  -0.195333  0  3.955848  0  0  -0.20434  0  3.977614  0  0  -0.092426  -0.189704  0  3.940994  0
C  C54  1  0.97853261  0.27521546  0.94275430  1  0  -0.177003  0  3.708819  0  0  -0.192012  0  3.952324  0  0  -0.200841  0  3.974597  0  0  -0.08908  -0.186292  0  3.937283  0
C  C55  1  0.17783311  0.98036849  0.42906712  1  0  -0.179435  0  3.709052  0  0  -0.194855  0  3.95437  0  0  -0.20386  0  3.976154  0  0  -0.091761  -0.189219  0  3.939512  0
C  C56  1  0.72716653  0.20672646  0.28548578  1  0  0.50968  0  3.967667  0  0  0.470229  0  4.252977  0  0  0.496284  0  4.263201  0  0  0.312606  0.452361  0  4.245946  0
C  C57  1  0.54819973  0.54111477  0.78407137  1  0  0.505254  0  3.972081  0  0  0.468263  0  4.255996  0  0  0.493879  0  4.266335  0  0  0.313178  0.450935  0  4.248605  0
C  C58  1  0.27299042  0.79314262  0.71471921  1  0  0.509812  0  3.967971  0  0  0.470601  0  4.252955  0  0  0.496619  0  4.263165  0  0  0.313015  0.452773  0  4.245923  0
C  C59  1  0.45183185  0.45878391  0.21597165  1  0  0.505175  0  3.971512  0  0  0.468202  0  4.255461  0  0  0.493833  0  4.265828  0  0  0.312992  0.450879  0  4.248051  0
C  C60  1  0.41584580  0.28138413  0.04857315  1  0  0.508639  0  3.96777  0  0  0.468905  0  4.256415  0  0  0.49536  0  4.265325  0  0  0.311006  0.450857  0  4.250219  0
C  C61  1  0.27240886  0.65036101  0.54466483  1  0  0.505335  0  3.97844  0  0  0.463906  0  4.2688  0  0  0.490073  0  4.278228  0  0  0.309828  0.446293  0  4.262014  0
C  C62  1  0.58454365  0.71861572  0.95157787  1  0  0.509674  0  3.966717  0  0  0.470001  0  4.255152  0  0  0.49646  0  4.264027  0  0  0.311884  0.451939  0  4.248985  0
C  C63  1  0.72737305  0.34950002  0.45539859  1  0  0.505588  0  3.978104  0  0  0.464068  0  4.268464  0  0  0.490248  0  4.277917  0  0  0.310193  0.446433  0  4.261667  0
N  N64  1  0.32101525  0.86744703  0.07656624  1  0  -0.334522  0  3.306649  0  0  -0.254211  0  3.564879  0  0  -0.274016  0  3.584162  0  0  -0.324158  -0.240814  0  3.551318  0
N  N65  1  0.70504199  0.74789859  0.57817376  1  0  -0.33456  0  3.317021  0  0  -0.253175  0  3.575245  0  0  -0.273214  0  3.594368  0  0  -0.327073  -0.239828  0  3.561973  0
N  N66  1  0.67942775  0.13259124  0.92360031  1  0  -0.333928  0  3.306768  0  0  -0.253782  0  3.56504  0  0  -0.273577  0  3.584379  0  0  -0.324096  -0.240377  0  3.551425  0
N  N67  1  0.29501987  0.25215752  0.42194902  1  0  -0.336251  0  3.31697  0  0  -0.254631  0  3.574901  0  0  -0.274735  0  3.594086  0  0  -0.327923  -0.241274  0  3.561624  0
N  N68  1  0.69834963  0.15508521  0.18176924  1  0  -0.596749  0  2.858566  0  0  -0.554959  0  3.15252  0  0  -0.575918  0  3.157066  0  0  -0.371675  -0.540854  0  3.149618  0
N  N69  1  0.52590753  0.48690770  0.68247666  1  0  -0.598965  0  2.859667  0  0  -0.55786  0  3.151205  0  0  -0.57836  0  3.155132  0  0  -0.370849  -0.544093  0  3.148529  0
N  N70  1  0.30235506  0.84498892  0.81852709  1  0  -0.596394  0  2.858655  0  0  -0.554762  0  3.152556  0  0  -0.575709  0  3.157107  0  0  -0.371639  -0.540668  0  3.149647  0
N  N71  1  0.47420793  0.51314994  0.31756776  1  0  -0.598885  0  2.858695  0  0  -0.557761  0  3.150205  0  0  -0.578265  0  3.154121  0  0  -0.370716  -0.543989  0  3.147529  0
N  N72  1  0.39911050  0.16318954  0.98961664  1  0  -0.602971  0  2.853685  0  0  -0.561362  0  3.144696  0  0  -0.581659  0  3.147222  0  0  -0.374517  -0.547753  0  3.143104  0
N  N73  1  0.30165940  0.56692803  0.48482131  1  0  -0.594067  0  2.828017  0  0  -0.554348  0  3.119776  0  0  -0.574346  0  3.122613  0  0  -0.375245  -0.540578  0  3.117331  0
N  N74  1  0.60170859  0.83692544  0.01073638  1  0  -0.603893  0  2.85377  0  0  -0.562396  0  3.145048  0  0  -0.582699  0  3.147515  0  0  -0.375282  -0.548765  0  3.143456  0
N  N75  1  0.69840485  0.43319200  0.51526322  1  0  -0.593782  0  2.827482  0  0  -0.554101  0  3.119419  0  0  -0.5741  0  3.122276  0  0  -0.375249  -0.54033  0  3.11696  0
N  N76  1  0.76745920  0.25532610  0.40154779  1  0  -0.458617  0  3.312982  0  0  -0.40023  0  3.570402  0  0  -0.423592  0  3.573231  0  0  -0.305226  -0.384175  0  3.567588  0
N  N77  1  0.57083396  0.58615050  0.89711635  1  0  -0.456352  0  3.282238  0  0  -0.403284  0  3.54547  0  0  -0.426478  0  3.54895  0  0  -0.306939  -0.387142  0  3.542383  0
N  N78  1  0.23197661  0.74419428  0.59855929  1  0  -0.459133  0  3.31206  0  0  -0.400895  0  3.569562  0  0  -0.424208  0  3.572355  0  0  -0.305695  -0.384897  0  3.566774  0
N  N79  1  0.42899724  0.41362317  0.10289523  1  0  -0.456326  0  3.283078  0  0  -0.403264  0  3.546381  0  0  -0.426501  0  3.549892  0  0  -0.306794  -0.387117  0  3.543276  0
