# generated using pymatgen
data_YH27C22(NO5)2
_symmetry_space_group_name_H-M   'P 1'
_cell_length_a   9.17056815
_cell_length_b   11.83113034
_cell_length_c   12.72750000
_cell_angle_alpha   85.63800508
_cell_angle_beta   71.04487373
_cell_angle_gamma   68.85122108
_symmetry_Int_Tables_number   1
_chemical_formula_structural   YH27C22(NO5)2
_chemical_formula_sum   'Y2 H54 C44 N4 O20'
_cell_volume   1216.73772914
_cell_formula_units_Z   2
loop_
 _symmetry_equiv_pos_site_id
 _symmetry_equiv_pos_as_xyz
  1  'x, y, z'
loop_
 _atom_site_type_symbol
 _atom_site_label
 _atom_site_symmetry_multiplicity
 _atom_site_fract_x
 _atom_site_fract_y
 _atom_site_fract_z
 _atom_site_occupancy
 _atom_site_hle17_bader_spin_density
 _atom_site_hle17_ddec_charge
 _atom_site_hle17_ddec_spin_density
 _atom_site_hle17_ddec_sum_bond_order
 _atom_site_hle17_magmom
 _atom_site_hse06_10hf_bader_spin_density
 _atom_site_hse06_10hf_ddec_charge
 _atom_site_hse06_10hf_ddec_spin_density
 _atom_site_hse06_10hf_ddec_sum_bond_order
 _atom_site_hse06_10hf_magmom
 _atom_site_hse06_bader_spin_density
 _atom_site_hse06_ddec_charge
 _atom_site_hse06_ddec_spin_density
 _atom_site_hse06_ddec_sum_bond_order
 _atom_site_hse06_magmom
 _atom_site_pbe_bader_charge
 _atom_site_pbe_bader_spin_density
 _atom_site_pbe_cm5_charge
 _atom_site_pbe_ddec_charge
 _atom_site_pbe_ddec_spin_density
 _atom_site_pbe_ddec_sum_bond_order
 _atom_site_pbe_magmom
Y  Y0  1  0.84553968  0.89618294  0.52346597  1  0  2.029068  0  1.847127  0  0  1.835313  0  2.325529  0  0  1.910185  0  2.258611  0  2.287177  0  1.25103  1.780271  0  2.372048  0
Y  Y1  1  0.15446224  0.10381538  0.47653441  1  0  2.029092  0  1.847173  0  0  1.83528  0  2.325606  0  0  1.910184  0  2.258645  0  2.287085  0  1.251025  1.780248  0  2.372118  0
H  H2  1  0.89329453  0.26386335  0.32211904  1  0  0.130373  0  0.970472  0  0  0.136254  0  1.035652  0  0  0.140001  0  1.035397  0  0.095954  0  0.108042  0.13327  0  1.036462  0
H  H3  1  0.10671349  0.73612953  0.67787951  1  0  0.130297  0  0.970519  0  0  0.136215  0  1.035667  0  0  0.139969  0  1.035405  0  0.096184  0  0.108016  0.133231  0  1.036475  0
H  H4  1  0.63202482  0.20004339  0.25997111  1  0  0.080377  0  0.963389  0  0  0.091193  0  1.025916  0  0  0.093644  0  1.024649  0  0.095802  0  0.103928  0.088984  0  1.027368  0
H  H5  1  0.36797550  0.79995584  0.74002722  1  0  0.080465  0  0.963356  0  0  0.091251  0  1.025879  0  0  0.093631  0  1.024708  0  0.095814  0  0.103959  0.089041  0  1.027332  0
H  H6  1  0.80707865  0.38577665  0.17278499  1  0  0.103612  0  0.968747  0  0  0.125012  0  1.028811  0  0  0.125842  0  1.029822  0  0.037456  0  0.090195  0.124285  0  1.028291  0
H  H7  1  0.19292470  0.61422348  0.82721806  1  0  0.103522  0  0.96887  0  0  0.124947  0  1.028905  0  0  0.125779  0  1.029915  0  0.037321  0  0.090164  0.12422  0  1.028386  0
H  H8  1  0.59527848  0.41318029  0.18962431  1  0  0.106927  0  0.941906  0  0  0.130354  0  1.000633  0  0  0.131187  0  1.001017  0  0.044548  0  0.094557  0.129524  0  1.000852  0
H  H9  1  0.40472602  0.58681984  0.81038162  1  0  0.106921  0  0.941924  0  0  0.130348  0  1.000659  0  0  0.131185  0  1.001039  0  0.044498  0  0.094543  0.129518  0  1.000878  0
H  H10  1  0.75203273  0.30413277  0.08870648  1  0  0.11054  0  0.938531  0  0  0.134936  0  0.993933  0  0  0.135598  0  0.994645  0  0.038427  0  0.096617  0.134682  0  0.992974  0
H  H11  1  0.24797044  0.69587009  0.91129328  1  0  0.110521  0  0.938568  0  0  0.134915  0  0.993976  0  0  0.135575  0  0.99469  0  0.038401  0  0.096606  0.134663  0  0.993014  0
H  H12  1  0.28104493  0.57766020  0.24958885  1  0  0.111264  0  0.96042  0  0  0.121524  0  1.020434  0  0  0.124367  0  1.021466  0  0.03653  0  0.099018  0.119119  0  1.020708  0
H  H13  1  0.71895529  0.42233450  0.75040982  1  0  0.111306  0  0.960304  0  0  0.121571  0  1.020317  0  0  0.124416  0  1.021346  0  0.036635  0  0.099009  0.119165  0  1.020594  0
H  H14  1  0.27464325  0.82233238  0.14515529  1  0  0.073821  0  0.960026  0  0  0.08621  0  1.022933  0  0  0.088248  0  1.021519  0  0.119694  0  0.10331  0.084757  0  1.023873  0
H  H15  1  0.72535812  0.17766232  0.85484625  1  0  0.073829  0  0.959944  0  0  0.086203  0  1.022873  0  0  0.088242  0  1.021456  0  0.1196  0  0.103316  0.084747  0  1.023817  0
H  H16  1  0.57271568  0.67750634  0.06870410  1  0  0.120361  0  0.947598  0  0  0.138659  0  1.011834  0  0  0.140966  0  1.010655  0  0.06316  0  0.096379  0.137363  0  1.011965  0
H  H17  1  0.42728376  0.32249471  0.93129509  1  0  0.120357  0  0.947612  0  0  0.138661  0  1.011841  0  0  0.140967  0  1.010662  0  0.06313  0  0.09638  0.137365  0  1.011972  0
H  H18  1  0.46208513  0.68534593  0.97762948  1  0  0.115006  0  0.952742  0  0  0.133826  0  1.01753  0  0  0.135479  0  1.01683  0  0.063895  0  0.094977  0.132361  0  1.01839  0
H  H19  1  0.53791706  0.31465421  0.02236992  1  0  0.115019  0  0.952727  0  0  0.133843  0  1.017514  0  0  0.135495  0  1.016813  0  0.063909  0  0.094984  0.132377  0  1.018374  0
H  H20  1  0.49966119  0.55695028  0.06382574  1  0  0.096684  0  0.973089  0  0  0.118778  0  1.033275  0  0  0.119672  0  1.03396  0  0.031823  0  0.087851  0.118094  0  1.032941  0
H  H21  1  0.50034418  0.44304804  0.93617068  1  0  0.096702  0  0.973107  0  0  0.118807  0  1.033284  0  0  0.1197  0  1.033966  0  0.031867  0  0.087861  0.118121  0  1.032952  0
H  H22  1  0.74731819  0.62268182  0.89461088  1  0  0.10711  0  0.982686  0  0  0.117919  0  1.04419  0  0  0.121056  0  1.044026  0  0.060087  0  0.09664  0.115607  0  1.044602  0
H  H23  1  0.25266731  0.37731469  0.10538797  1  0  0.107041  0  0.982649  0  0  0.117859  0  1.044155  0  0  0.120995  0  1.043989  0  0.060059  0  0.096608  0.115546  0  1.044561  0
H  H24  1  0.04853860  0.54586907  0.68329613  1  0  0.072168  0  0.96064  0  0  0.084532  0  1.02304  0  0  0.086434  0  1.022335  0  0.066278  0  0.098266  0.083093  0  1.023731  0
H  H25  1  0.95145003  0.45413288  0.31670239  1  0  0.072146  0  0.960672  0  0  0.084508  0  1.023066  0  0  0.08641  0  1.022362  0  0.066857  0  0.098316  0.083091  0  1.023731  0
H  H26  1  0.96154318  0.42847299  0.91250471  1  0  0.104745  0  0.939166  0  0  0.12929  0  0.992578  0  0  0.130785  0  0.992623  0  0.043826  0  0.091581  0.128251  0  0.992426  0
H  H27  1  0.03844864  0.57152715  0.08749633  1  0  0.104735  0  0.939086  0  0  0.129277  0  0.992508  0  0  0.130771  0  0.992552  0  0.043884  0  0.091581  0.128239  0  0.992355  0
H  H28  1  0.16584412  0.41882070  0.83041837  1  0  0.103797  0  0.942703  0  0  0.125247  0  1.003268  0  0  0.126631  0  1.003239  0  0.057567  0  0.091603  0.124573  0  1.002744  0
H  H29  1  0.83415516  0.58118307  0.16957988  1  0  0.103787  0  0.942749  0  0  0.12523  0  1.003314  0  0  0.126613  0  1.003284  0  0.057532  0  0.091596  0.124557  0  1.002788  0
H  H30  1  0.06267443  0.34498102  0.78216159  1  0  0.115553  0  0.95008  0  0  0.134835  0  1.014032  0  0  0.135905  0  1.015237  0  0.058481  0  0.093855  0.134151  0  1.012988  0
H  H31  1  0.93732430  0.65501912  0.21783626  1  0  0.115551  0  0.950053  0  0  0.134849  0  1.013997  0  0  0.135921  0  1.015199  0  0.058519  0  0.093875  0.134164  0  1.012953  0
H  H32  1  0.49877114  0.81896827  0.36097247  1  0  0.125483  0  0.946068  0  0  0.127809  0  1.018131  0  0  0.133267  0  1.011278  0  0.202091  0  0.137608  0.12373  0  1.023308  0
H  H33  1  0.50123682  0.18103186  0.63901693  1  0  0.125501  0  0.945932  0  0  0.127716  0  1.018146  0  0  0.133175  0  1.011291  0  0.197533  0  0.137562  0.123638  0  1.02332  0
H  H34  1  0.36833162  0.66237877  0.40164165  1  0  0.113482  0  0.975377  0  0  0.121935  0  1.036703  0  0  0.124703  0  1.036497  0  0.114186  0  0.11268  0.12069  0  1.035867  0
H  H35  1  0.63168040  0.33761774  0.59834864  1  0  0.113591  0  0.9753  0  0  0.121996  0  1.036671  0  0  0.124763  0  1.036462  0  0.114132  0  0.112719  0.120753  0  1.035832  0
H  H36  1  0.74306179  0.45856391  0.55230802  1  0  0.125545  0  0.987075  0  0  0.132005  0  1.049278  0  0  0.136689  0  1.04619  0  0.158895  0  0.111204  0.128441  0  1.051782  0
H  H37  1  0.25692397  0.54145346  0.44770893  1  0  0.12555  0  0.987033  0  0  0.132005  0  1.049253  0  0  0.136691  0  1.046161  0  0.159046  0  0.111231  0.128452  0  1.051743  0
H  H38  1  0.85138596  0.62633080  0.50878286  1  0  0.135755  0  0.948565  0  0  0.143024  0  1.007973  0  0  0.147078  0  1.004224  0  0.190127  0  0.141814  0.140106  0  1.010527  0
H  H39  1  0.14860342  0.37368385  0.49122558  1  0  0.135772  0  0.94858  0  0  0.142966  0  1.008082  0  0  0.147084  0  1.004253  0  0.19006  0  0.141827  0.140054  0  1.010642  0
H  H40  1  0.47093841  0.93262012  0.60414593  1  0  0.445267  0  0.84774  0  0  0.413421  0  0.912254  0  0  0.424967  0  0.895412  0  0.649811  0  0.303167  0.404612  0  0.925124  0
H  H41  1  0.52906060  0.06738183  0.39585330  1  0  0.445254  0  0.847762  0  0  0.413397  0  0.912292  0  0  0.424943  0  0.895452  0  0.64986  0  0.303155  0.404588  0  0.925162  0
H  H42  1  0.56599843  0.88934677  0.69620876  1  0  0.410245  0  0.909987  0  0  0.377291  0  0.97837  0  0  0.389448  0  0.960955  0  0.651336  0  0.286265  0.368348  0  0.991252  0
H  H43  1  0.43399969  0.11065699  0.30378977  1  0  0.410212  0  0.910015  0  0  0.377255  0  0.978406  0  0  0.389413  0  0.96099  0  0.651348  0  0.286245  0.368311  0  0.991288  0
H  H44  1  0.83298463  0.06260151  0.69002392  1  0  0.425522  0  0.886799  0  0  0.392106  0  0.955183  0  0  0.402969  0  0.93952  0  0.64811  0  0.29679  0.384478  0  0.966163  0
H  H45  1  0.16702162  0.93739500  0.30997557  1  0  0.425525  0  0.886789  0  0  0.392099  0  0.955188  0  0  0.402963  0  0.939524  0  0.647983  0  0.296775  0.384471  0  0.966168  0
H  H46  1  0.65324475  0.04825508  0.74405246  1  0  0.430985  0  0.870414  0  0  0.398396  0  0.93805  0  0  0.409445  0  0.922137  0  0.65676  0  0.296365  0.390824  0  0.948811  0
H  H47  1  0.34676019  0.95174415  0.25594558  1  0  0.430959  0  0.870466  0  0  0.398374  0  0.9381  0  0  0.409424  0  0.922185  0  0.656707  0  0.296353  0.390802  0  0.948861  0
H  H48  1  0.69607338  0.89625733  0.26292865  1  0  0.122272  0  0.979987  0  0  0.123756  0  1.05205  0  0  0.129329  0  1.04597  0  0.20974  0  0.12889  0.119484  0  1.056978  0
H  H49  1  0.30391969  0.10374734  0.73707021  1  0  0.122222  0  0.979974  0  0  0.123689  0  1.052044  0  0  0.12926  0  1.045967  0  0.209765  0  0.128869  0.119417  0  1.056974  0
H  H50  1  0.93589855  0.95830632  0.19340686  1  0  0.124242  0  0.974811  0  0  0.12881  0  1.041296  0  0  0.132818  0  1.039216  0  0.13432  0  0.111921  0.125755  0  1.043139  0
H  H51  1  0.06410018  0.04169381  0.80659571  1  0  0.124261  0  0.974825  0  0  0.128821  0  1.041329  0  0  0.132831  0  1.039237  0  0.134381  0  0.111949  0.125765  0  1.043172  0
H  H52  1  0.88266997  0.97117574  0.86511847  1  0  0.115277  0  0.959157  0  0  0.124019  0  1.021663  0  0  0.127852  0  1.019196  0  0.071773  0  0.11295  0.121243  0  1.023709  0
H  H53  1  0.11734512  0.02881442  0.13488097  1  0  0.115291  0  0.959184  0  0  0.124033  0  1.021683  0  0  0.127865  0  1.019217  0  0.071643  0  0.112974  0.121253  0  1.023724  0
H  H54  1  0.64177654  0.90772232  0.94957140  1  0  0.124247  0  0.937652  0  0  0.12759  0  1.006676  0  0  0.131828  0  1.002763  0  0.167768  0  0.129799  0.124279  0  1.00953  0
H  H55  1  0.35823131  0.09227329  0.05042307  1  0  0.124231  0  0.937662  0  0  0.127579  0  1.006703  0  0  0.131818  0  1.002789  0  0.167418  0  0.129789  0.124268  0  1.009558  0
C  C56  1  0.80449943  0.12303558  0.40495236  1  0  0.715235  0  3.878921  0  0  0.666553  0  4.16769  0  0  0.703033  0  4.159146  0  1.484123  0  0.214802  0.641513  0  4.173088  0
C  C57  1  0.19550425  0.87695911  0.59504551  1  0  0.715255  0  3.878951  0  0  0.666545  0  4.167768  0  0  0.703031  0  4.159221  0  1.484127  0  0.214799  0.641505  0  4.173166  0
C  C58  1  0.80713380  0.21886984  0.32456236  1  0  -0.29439  0  3.692382  0  0  -0.310798  0  3.952098  0  0  -0.325309  0  3.970417  0  -0.05974  0  -0.110272  -0.300909  0  3.939696  0
C  C59  1  0.19287334  0.78112485  0.67543783  1  0  -0.294391  0  3.692488  0  0  -0.310827  0  3.952182  0  0  -0.325344  0  3.970481  0  -0.060064  0  -0.110297  -0.300939  0  3.939781  0
C  C60  1  0.71560042  0.24784394  0.25606597  1  0  0.092043  0  3.670595  0  0  0.080263  0  3.925183  0  0  0.085388  0  3.944188  0  -0.044181  0  -0.063131  0.077553  0  3.911572  0
C  C61  1  0.28440078  0.75215347  0.74393621  1  0  0.091988  0  3.670794  0  0  0.080272  0  3.92537  0  0  0.085437  0  3.944391  0  -0.044174  0  -0.063115  0.077562  0  3.911758  0
C  C62  1  0.71911534  0.34294151  0.17284745  1  0  -0.305634  0  3.756698  0  0  -0.378018  0  3.989635  0  0  -0.380571  0  3.999881  0  -0.038664  0  -0.235845  -0.375627  0  3.981912  0
C  C63  1  0.28088916  0.65705862  0.82715377  1  0  -0.305525  0  3.756966  0  0  -0.377949  0  3.989895  0  0  -0.380499  0  4.000123  0  -0.038436  0  -0.235813  -0.37556  0  3.982169  0
C  C64  1  0.10598312  0.75005227  0.33544442  1  0  0.680807  0  3.926318  0  0  0.630876  0  4.222306  0  0  0.666956  0  4.213484  0  1.505293  0  0.196067  0.606627  0  4.226306  0
C  C65  1  0.89401940  0.24994242  0.66455607  1  0  0.68075  0  3.92648  0  0  0.630769  0  4.222546  0  0  0.666846  0  4.213732  0  1.504881  0  0.196023  0.60652  0  4.226545  0
C  C66  1  0.24077216  0.67570544  0.24025637  1  0  -0.303101  0  3.724914  0  0  -0.315117  0  3.981114  0  0  -0.330113  0  4.000055  0  -0.060867  0  -0.117507  -0.305599  0  3.968385  0
C  C67  1  0.75922691  0.32428926  0.75974336  1  0  -0.303128  0  3.724776  0  0  -0.315132  0  3.980991  0  0  -0.330125  0  3.99993  0  -0.06081  0  -0.117501  -0.305612  0  3.968261  0
C  C68  1  0.31899988  0.72383986  0.15063763  1  0  0.110756  0  3.669457  0  0  0.096814  0  3.921801  0  0  0.104476  0  3.938685  0  -0.086576  0  -0.062556  0.092133  0  3.910212  0
C  C69  1  0.68100034  0.27615484  0.84936262  1  0  0.110798  0  3.669304  0  0  0.096855  0  3.921681  0  0  0.104516  0  3.938564  0  -0.08658  0  -0.062551  0.092176  0  3.910093  0
C  C70  1  0.47010881  0.65528313  0.06015791  1  0  -0.323263  0  3.765729  0  0  -0.397054  0  4.005446  0  0  -0.400255  0  4.01352  0  -0.050741  0  -0.242797  -0.394766  0  3.999741  0
C  C71  1  0.52989267  0.34471610  0.93984094  1  0  -0.323315  0  3.765784  0  0  -0.397102  0  4.005449  0  0  -0.400316  0  4.013557  0  -0.050705  0  -0.242811  -0.394811  0  3.999744  0
C  C72  1  0.75916126  0.73234265  0.74756104  1  0  0.705922  0  3.901021  0  0  0.660845  0  4.19172  0  0  0.69624  0  4.183198  0  1.567707  0  0.208727  0.636408  0  4.196872  0
C  C73  1  0.24082825  0.26765749  0.25243897  1  0  0.70588  0  3.901146  0  0  0.660742  0  4.191914  0  0  0.696136  0  4.183395  0  1.567417  0  0.20873  0.636304  0  4.197066  0
C  C74  1  0.82740417  0.62648322  0.81065291  1  0  -0.291138  0  3.709668  0  0  -0.306018  0  3.960708  0  0  -0.318705  0  3.97853  0  -0.035031  0  -0.116776  -0.297565  0  3.949243  0
C  C75  1  0.17258435  0.37351419  0.18934752  1  0  -0.29091  0  3.709482  0  0  -0.305799  0  3.960566  0  0  -0.318484  0  3.978386  0  -0.034485  0  -0.116655  -0.297342  0  3.949103  0
C  C76  1  0.97445124  0.53780630  0.76841949  1  0  0.065542  0  3.713531  0  0  0.053872  0  3.971664  0  0  0.058929  0  3.990411  0  -0.093729  0  -0.075818  0.050698  0  3.959018  0
C  C77  1  0.02553800  0.46219203  0.23157757  1  0  0.06554  0  3.713545  0  0  0.053848  0  3.971733  0  0  0.058906  0  3.990479  0  -0.094476  0  -0.075885  0.050659  0  3.959085  0
C  C78  1  0.04342676  0.42768549  0.82732164  1  0  -0.310234  0  3.763959  0  0  -0.383104  0  4.002597  0  0  -0.386543  0  4.013171  0  -0.095225  0  -0.241257  -0.38055  0  3.994725  0
C  C79  1  0.95656780  0.57231374  0.17267883  1  0  -0.310231  0  3.763986  0  0  -0.383093  0  4.002637  0  0  -0.386531  0  4.013208  0  -0.095311  0  -0.241283  -0.380541  0  3.99477  0
C  C80  1  0.54403510  0.73710665  0.40358558  1  0  0.023207  0  3.579335  0  0  -0.020536  0  3.845227  0  0  -0.01246  0  3.853966  0  0.346069  0  0.047193  -0.02573  0  3.839891  0
C  C81  1  0.45597039  0.26289621  0.59640971  1  0  0.023268  0  3.579164  0  0  -0.020376  0  3.845017  0  0  -0.012299  0  3.853752  0  0.350764  0  0.047261  -0.025566  0  3.839677  0
C  C82  1  0.47521737  0.64847146  0.42741713  1  0  -0.126789  0  3.721367  0  0  -0.143967  0  3.970231  0  0  -0.149257  0  3.989154  0  -0.006079  0  -0.074479  -0.141093  0  3.957336  0
C  C83  1  0.52478767  0.35153231  0.57258056  1  0  -0.126933  0  3.721347  0  0  -0.144092  0  3.970196  0  0  -0.149383  0  3.989112  0  -0.005864  0  -0.074484  -0.141219  0  3.957299  0
C  C84  1  0.53823271  0.54613943  0.48530594  1  0  0.073126  0  3.78073  0  0  0.080611  0  4.018019  0  0  0.08434  0  4.038946  0  -0.040009  0  0.002975  0.078365  0  4.003945  0
C  C85  1  0.46176508  0.45386978  0.51470013  1  0  0.073051  0  3.780731  0  0  0.080565  0  4.017972  0  0  0.084296  0  4.03889  0  0.001797  0  0.002923  0.078319  0  4.003897  0
C  C86  1  0.67797633  0.53740892  0.51350005  1  0  -0.13042  0  3.704693  0  0  -0.147438  0  3.955181  0  0  -0.152656  0  3.971886  0  0.004822  0  -0.075825  -0.144274  0  3.944326  0
C  C87  1  0.32201421  0.46260574  0.48651127  1  0  -0.130412  0  3.704601  0  0  -0.1474  0  3.955063  0  0  -0.152624  0  3.971783  0  0.004785  0  -0.075803  -0.144241  0  3.944202  0
C  C88  1  0.74377650  0.62789037  0.48921888  1  0  0.005645  0  3.585245  0  0  -0.0369  0  3.847179  0  0  -0.029866  0  3.857965  0  0.342074  0  0.046662  -0.041165  0  3.839585  0
C  C89  1  0.25621174  0.37212428  0.51079141  1  0  0.005742  0  3.585265  0  0  -0.036822  0  3.847326  0  0  -0.029826  0  3.858056  0  0.342103  0  0.046656  -0.041102  0  3.839745  0
C  C90  1  0.74093027  0.91674225  0.17626077  1  0  0.008813  0  3.587926  0  0  -0.031786  0  3.848802  0  0  -0.024867  0  3.858212  0  0.31034  0  0.035795  -0.036232  0  3.842359  0
C  C91  1  0.25906989  0.08325971  0.82373819  1  0  0.008911  0  3.587876  0  0  -0.03167  0  3.848764  0  0  -0.024747  0  3.858169  0  0.310204  0  0.035806  -0.036123  0  3.842327  0
C  C92  1  0.87488124  0.95301884  0.13452958  1  0  -0.130051  0  3.721074  0  0  -0.149677  0  3.977791  0  0  -0.154445  0  3.996031  0  -0.02472  0  -0.078218  -0.145327  0  3.964542  0
C  C93  1  0.12512315  0.04697676  0.86547119  1  0  -0.13007  0  3.721065  0  0  -0.149682  0  3.977791  0  0  -0.154446  0  3.996028  0  -0.024616  0  -0.078199  -0.14533  0  3.964543  0
C  C94  1  0.93045561  0.97864245  0.02187547  1  0  0.063411  0  3.783543  0  0  0.072057  0  4.019912  0  0  0.074956  0  4.041662  0  0.04749  0  -0.003178  0.06971  0  4.00593  0
C  C95  1  0.06955400  0.02134953  0.97812434  1  0  0.063507  0  3.78341  0  0  0.072102  0  4.01983  0  0  0.074996  0  4.04158  0  0.010024  0  -0.003177  0.069753  0  4.005847  0
C  C96  1  0.84539832  0.95936328  0.95439179  1  0  -0.129015  0  3.722476  0  0  -0.145426  0  3.972269  0  0  -0.149937  0  3.990504  0  0.044757  0  -0.077432  -0.143736  0  3.961163  0
C  C97  1  0.15460766  0.04063142  0.04560710  1  0  -0.129136  0  3.722402  0  0  -0.145554  0  3.972244  0  0  -0.150061  0  3.990478  0  0.045006  0  -0.077501  -0.143856  0  3.961133  0
C  C98  1  0.71091803  0.92352216  0.99853782  1  0  0.001048  0  3.593041  0  0  -0.040129  0  3.85424  0  0  -0.033712  0  3.865656  0  0.323735  0  0.035884  -0.044  0  3.846498  0
C  C99  1  0.28908416  0.07647797  0.00146001  1  0  0.001166  0  3.592927  0  0  -0.040021  0  3.854106  0  0  -0.033603  0  3.865515  0  0.32373  0  0.035891  -0.043894  0  3.846364  0
N  N100  1  0.67539557  0.72762674  0.43623747  1  0  0.288636  0  3.705971  0  0  0.339514  0  3.969212  0  0  0.340776  0  3.990726  0  -0.647924  0  -0.107111  0.338104  0  3.954457  0
N  N101  1  0.32460266  0.27238156  0.56376385  1  0  0.288621  0  3.70576  0  0  0.339515  0  3.968987  0  0  0.340775  0  3.990514  0  -0.64781  0  -0.107173  0.338105  0  3.954236  0
N  N102  1  0.65624356  0.90496880  0.10971617  1  0  0.278082  0  3.736411  0  0  0.33291  0  3.994437  0  0  0.333737  0  4.016849  0  -0.614347  0  -0.110625  0.332228  0  3.979488  0
N  N103  1  0.34375545  0.09503316  0.89028149  1  0  0.278014  0  3.736407  0  0  0.332845  0  3.994432  0  0  0.333671  0  4.016844  0  -0.614032  0  -0.110556  0.332166  0  3.979487  0
O  O104  1  0.70777499  0.06331461  0.42133795  1  0  -0.678906  0  2.000428  0  0  -0.61022  0  2.230594  0  0  -0.638983  0  2.221843  0  -1.194163  0  -0.336382  -0.59008  0  2.236948  0
O  O105  1  0.29222462  0.93668371  0.57866060  1  0  -0.678863  0  2.000483  0  0  -0.610194  0  2.230691  0  0  -0.638964  0  2.221938  0  -1.19411  0  -0.336355  -0.590054  0  2.237045  0
O  O106  1  0.90649624  0.09605654  0.46048279  1  0  -0.734389  0  2.070132  0  0  -0.660537  0  2.317888  0  0  -0.692863  0  2.309791  0  -1.220854  0  -0.373377  -0.637341  0  2.322839  0
O  O107  1  0.09350958  0.90394088  0.53951281  1  0  -0.734378  0  2.070092  0  0  -0.660517  0  2.317861  0  0  -0.69284  0  2.309761  0  -1.220557  0  -0.373372  -0.63732  0  2.322812  0
O  O108  1  0.03768383  0.86587518  0.32956742  1  0  -0.70358  0  2.047995  0  0  -0.632722  0  2.277289  0  0  -0.661802  0  2.268818  0  -1.201789  0  -0.348387  -0.612392  0  2.282568  0
O  O109  1  0.96231940  0.13412043  0.67043127  1  0  -0.703666  0  2.04816  0  0  -0.632786  0  2.277496  0  0  -0.661858  0  2.269  0  -1.201495  0  -0.348424  -0.612454  0  2.282772  0
O  O110  1  0.06091978  0.69965969  0.42617180  1  0  -0.659312  0  1.967342  0  0  -0.605043  0  2.203738  0  0  -0.632154  0  2.194319  0  -1.185027  0  -0.336505  -0.585803  0  2.208401  0
O  O111  1  0.93907929  0.30033500  0.57382793  1  0  -0.659206  0  1.9673  0  0  -0.604908  0  2.203699  0  0  -0.632028  0  2.19429  0  -1.184984  0  -0.336436  -0.585668  0  2.208364  0
O  O112  1  0.85295226  0.74642234  0.65123111  1  0  -0.732198  0  2.030216  0  0  -0.666858  0  2.280211  0  0  -0.697147  0  2.269176  0  -1.230575  0  -0.390939  -0.645127  0  2.286941  0
O  O113  1  0.14703983  0.25357961  0.34877052  1  0  -0.732338  0  2.030382  0  0  -0.666849  0  2.280254  0  0  -0.697147  0  2.269222  0  -1.230658  0  -0.390979  -0.645126  0  2.286991  0
O  O114  1  0.61029795  0.80193002  0.79225354  1  0  -0.626227  0  1.900268  0  0  -0.573186  0  2.110804  0  0  -0.597661  0  2.100895  0  -1.181445  0  -0.32156  -0.5561  0  2.117693  0
O  O115  1  0.38969183  0.19807193  0.20774706  1  0  -0.626219  0  1.900281  0  0  -0.573173  0  2.110856  0  0  -0.597656  0  2.100954  0  -1.181412  0  -0.321573  -0.556084  0  2.117743  0
O  O116  1  0.73602752  0.81488653  0.41367418  1  0  -0.569129  0  1.864623  0  0  -0.521769  0  2.107295  0  0  -0.550964  0  2.110046  0  -0.652136  0  -0.259311  -0.501352  0  2.10459  0
O  O117  1  0.26397159  0.18511996  0.58632391  1  0  -0.569175  0  1.864391  0  0  -0.521764  0  2.107013  0  0  -0.550966  0  2.109769  0  -0.652135  0  -0.25928  -0.501349  0  2.10431  0
O  O118  1  0.56372735  0.93612031  0.62577043  1  0  -0.907798  0  1.904726  0  0  -0.852695  0  2.115993  0  0  -0.876478  0  2.081756  0  -1.315522  0  -0.633347  -0.834599  0  2.140595  0
O  O119  1  0.43627281  0.06388164  0.37422853  1  0  -0.907765  0  1.904758  0  0  -0.852665  0  2.116047  0  0  -0.876458  0  2.081809  0  -1.315578  0  -0.633333  -0.834574  0  2.14066  0
O  O120  1  0.76568674  0.01270520  0.68908497  1  0  -0.891046  0  1.89028  0  0  -0.83211  0  2.092325  0  0  -0.85645  0  2.060866  0  -1.31817  0  -0.629412  -0.814006  0  2.113113  0
O  O121  1  0.23431968  0.98728859  0.31091703  1  0  -0.891017  0  1.890377  0  0  -0.832085  0  2.092433  0  0  -0.856424  0  2.060963  0  -1.317926  0  -0.629375  -0.813982  0  2.113217  0
O  O122  1  0.52663605  0.87324662  0.15097854  1  0  -0.545416  0  1.748255  0  0  -0.507262  0  1.968057  0  0  -0.532036  0  1.969902  0  -0.637137  0  -0.233384  -0.490353  0  1.966043  0
O  O123  1  0.47336384  0.12675351  0.84901590  1  0  -0.545433  0  1.748298  0  0  -0.507284  0  1.968115  0  0  -0.532052  0  1.969955  0  -0.637176  0  -0.233419  -0.490373  0  1.966101  0
