# generated using pymatgen
data_Cd2H14C24Br4N4O9
_symmetry_space_group_name_H-M   'P 1'
_cell_length_a   11.70674521
_cell_length_b   11.70674503
_cell_length_c   14.77082390
_cell_angle_alpha   109.12275192
_cell_angle_beta   109.12272799
_cell_angle_gamma   98.49008500
_symmetry_Int_Tables_number   1
_chemical_formula_structural   Cd2H14C24Br4N4O9
_chemical_formula_sum   'Cd4 H28 C48 Br8 N8 O18'
_cell_volume   1731.79758955
_cell_formula_units_Z   2
loop_
 _symmetry_equiv_pos_site_id
 _symmetry_equiv_pos_as_xyz
  1  'x, y, z'
loop_
 _atom_site_type_symbol
 _atom_site_label
 _atom_site_symmetry_multiplicity
 _atom_site_fract_x
 _atom_site_fract_y
 _atom_site_fract_z
 _atom_site_occupancy
 _atom_site_hle17_bader_spin_density
 _atom_site_hle17_ddec_charge
 _atom_site_hle17_ddec_spin_density
 _atom_site_hle17_ddec_sum_bond_order
 _atom_site_hle17_magmom
 _atom_site_hse06_10hf_bader_spin_density
 _atom_site_hse06_10hf_ddec_charge
 _atom_site_hse06_10hf_ddec_spin_density
 _atom_site_hse06_10hf_ddec_sum_bond_order
 _atom_site_hse06_10hf_magmom
 _atom_site_hse06_bader_spin_density
 _atom_site_hse06_ddec_charge
 _atom_site_hse06_ddec_spin_density
 _atom_site_hse06_ddec_sum_bond_order
 _atom_site_hse06_magmom
 _atom_site_pbe_bader_spin_density
 _atom_site_pbe_cm5_charge
 _atom_site_pbe_ddec_charge
 _atom_site_pbe_ddec_spin_density
 _atom_site_pbe_ddec_sum_bond_order
 _atom_site_pbe_magmom
Cd  Cd0  1  0.02325648  0.78041454  0.78614978  1  0  1.160097  0  1.702719  0  0  0.975167  0  2.149135  0  0  1.029447  0  2.097347  0  0  0.781683  0.93655  0  2.184743  0
Cd  Cd1  1  0.21958504  0.97674317  0.71385043  1  0  1.160106  0  1.702703  0  0  0.975176  0  2.149123  0  0  1.029457  0  2.097334  0  0  0.781682  0.936566  0  2.18472  0
Cd  Cd2  1  0.97674367  0.21958455  0.21385063  1  0  1.160101  0  1.702708  0  0  0.975175  0  2.149128  0  0  1.029454  0  2.097341  0  0  0.781683  0.936557  0  2.184738  0
Cd  Cd3  1  0.78041537  0.02325686  0.28614963  1  0  1.160112  0  1.70271  0  0  0.97518  0  2.149134  0  0  1.029459  0  2.097345  0  0  0.781681  0.936566  0  2.184735  0
H  H4  1  0.26536844  0.79892690  0.81800449  1  0  0.427136  0  0.885018  0  0  0.389468  0  0.95871  0  0  0.402726  0  0.939947  0  0  0.279463  0.380073  0  0.972003  0
H  H5  1  0.20107376  0.73463204  0.68199550  1  0  0.427141  0  0.885009  0  0  0.389474  0  0.958698  0  0  0.402733  0  0.939936  0  0  0.279455  0.380079  0  0.971993  0
H  H6  1  0.73463197  0.20107313  0.18199557  1  0  0.427133  0  0.885024  0  0  0.389466  0  0.958713  0  0  0.402724  0  0.93995  0  0  0.279461  0.38007  0  0.972007  0
H  H7  1  0.79892666  0.26536799  0.31800455  1  0  0.427152  0  0.884994  0  0  0.389485  0  0.958684  0  0  0.402744  0  0.939922  0  0  0.279472  0.38009  0  0.971977  0
H  H8  1  0.03193129  0.11802491  0.01736412  1  0  0.098538  0  0.942212  0  0  0.103087  0  1.013707  0  0  0.106871  0  1.009149  0  0  0.118161  0.100064  0  1.017477  0
H  H9  1  0.88197469  0.96806796  0.48263586  1  0  0.098554  0  0.942207  0  0  0.1031  0  1.013705  0  0  0.106885  0  1.009146  0  0  0.118171  0.100077  0  1.017475  0
H  H10  1  0.96806912  0.88197512  0.98263594  1  0  0.098544  0  0.942204  0  0  0.103092  0  1.013702  0  0  0.106878  0  1.009142  0  0  0.118163  0.100069  0  1.017472  0
H  H11  1  0.11802546  0.03193113  0.51736456  1  0  0.098534  0  0.942218  0  0  0.10308  0  1.013715  0  0  0.106864  0  1.009157  0  0  0.118162  0.100057  0  1.017485  0
H  H12  1  0.43065579  0.19657694  0.08822274  1  0  0.13451  0  0.920329  0  0  0.142241  0  0.984291  0  0  0.146528  0  0.979975  0  0  0.115776  0.13886  0  0.987798  0
H  H13  1  0.80342312  0.56934356  0.41177801  1  0  0.134528  0  0.920303  0  0  0.142276  0  0.98424  0  0  0.146567  0  0.97992  0  0  0.11577  0.138893  0  0.98775  0
H  H14  1  0.56934372  0.80342309  0.91177776  1  0  0.134542  0  0.920296  0  0  0.142291  0  0.984234  0  0  0.14658  0  0.979914  0  0  0.115772  0.138907  0  0.987744  0
H  H15  1  0.19657612  0.43065553  0.58822217  1  0  0.1345  0  0.920325  0  0  0.142249  0  0.984267  0  0  0.146539  0  0.979948  0  0  0.115773  0.138867  0  0.987776  0
H  H16  1  0.28342847  0.30172997  0.32852950  1  0  0.1012  0  0.933545  0  0  0.106169  0  1.000826  0  0  0.110081  0  0.996758  0  0  0.117764  0.103296  0  1.003738  0
H  H17  1  0.69827001  0.71657111  0.17147065  1  0  0.101211  0  0.933517  0  0  0.106175  0  1.000803  0  0  0.110085  0  0.996736  0  0  0.117769  0.103301  0  1.003716  0
H  H18  1  0.71657104  0.69827005  0.67147032  1  0  0.101216  0  0.933509  0  0  0.106177  0  1.000806  0  0  0.110091  0  0.996732  0  0  0.117769  0.103305  0  1.003717  0
H  H19  1  0.30172951  0.28342892  0.82852917  1  0  0.101215  0  0.933528  0  0  0.106185  0  1.000808  0  0  0.110095  0  0.99674  0  0  0.117761  0.103311  0  1.003721  0
H  H20  1  0.52970260  0.90635576  0.08870100  1  0  0.104238  0  0.96171  0  0  0.106555  0  1.033667  0  0  0.110985  0  1.028307  0  0  0.118105  0.103242  0  1.037666  0
H  H21  1  0.09364465  0.47029700  0.41129933  1  0  0.10422  0  0.961717  0  0  0.106522  0  1.03369  0  0  0.110952  0  1.028331  0  0  0.118096  0.10321  0  1.037688  0
H  H22  1  0.47029718  0.09364521  0.91129914  1  0  0.10423  0  0.961716  0  0  0.106549  0  1.033671  0  0  0.11098  0  1.028312  0  0  0.118099  0.103236  0  1.037671  0
H  H23  1  0.90635576  0.52970303  0.58870073  1  0  0.104225  0  0.961709  0  0  0.106524  0  1.033683  0  0  0.110954  0  1.028325  0  0  0.118104  0.103212  0  1.037681  0
H  H24  1  0.19575959  0.90130487  0.15292135  1  0  0.121692  0  0.941969  0  0  0.127125  0  1.011992  0  0  0.131313  0  1.007743  0  0  0.107161  0.124006  0  1.015136  0
H  H25  1  0.09869530  0.80423984  0.34707892  1  0  0.121695  0  0.941977  0  0  0.127128  0  1.012003  0  0  0.131317  0  1.007751  0  0  0.107157  0.124007  0  1.015147  0
H  H26  1  0.80423992  0.09869516  0.84707848  1  0  0.12168  0  0.941925  0  0  0.127098  0  1.01196  0  0  0.131291  0  1.007707  0  0  0.107148  0.123978  0  1.015103  0
H  H27  1  0.90130512  0.19576019  0.65292113  1  0  0.121747  0  0.941931  0  0  0.127177  0  1.011953  0  0  0.131366  0  1.007703  0  0  0.107187  0.124057  0  1.015097  0
H  H28  1  0.57380835  0.05339497  0.39862933  1  0  0.094777  0  0.946187  0  0  0.097201  0  1.019018  0  0  0.101148  0  1.014813  0  0  0.11086  0.094386  0  1.021968  0
H  H29  1  0.94660543  0.42619154  0.10137093  1  0  0.094772  0  0.946177  0  0  0.097192  0  1.019022  0  0  0.10114  0  1.014815  0  0  0.110861  0.094378  0  1.021971  0
H  H30  1  0.42619117  0.94660506  0.60137049  1  0  0.094774  0  0.946166  0  0  0.097192  0  1.019014  0  0  0.101139  0  1.01481  0  0  0.110863  0.09437  0  1.021971  0
H  H31  1  0.05339498  0.57380849  0.89862980  1  0  0.094791  0  0.946149  0  0  0.097213  0  1.018987  0  0  0.101159  0  1.014784  0  0  0.110868  0.094392  0  1.021942  0
C  C32  1  0.13017392  0.15767841  0.07284922  1  0  0.121752  0  3.660656  0  0  0.078079  0  3.911073  0  0  0.087548  0  3.926983  0  0  0.050264  0.072017  0  3.900455  0
C  C33  1  0.84232079  0.86982501  0.42715057  1  0  0.12177  0  3.660638  0  0  0.078099  0  3.911047  0  0  0.087567  0  3.926957  0  0  0.050273  0.072036  0  3.900431  0
C  C34  1  0.86982560  0.84232162  0.92715061  1  0  0.121732  0  3.660673  0  0  0.078056  0  3.911087  0  0  0.087523  0  3.926998  0  0  0.050259  0.071994  0  3.90047  0
C  C35  1  0.15767845  0.13017407  0.57284962  1  0  0.121721  0  3.660714  0  0  0.078061  0  3.911113  0  0  0.087529  0  3.927023  0  0  0.05025  0.071998  0  3.900497  0
C  C36  1  0.22766461  0.15005733  0.03847418  1  0  -0.085268  0  3.720208  0  0  -0.05619  0  3.95646  0  0  -0.068371  0  3.979437  0  0  -0.009634  -0.048726  0  3.941417  0
C  C37  1  0.84994132  0.77233488  0.46152627  1  0  -0.085246  0  3.720184  0  0  -0.056165  0  3.956429  0  0  -0.068344  0  3.979407  0  0  -0.009628  -0.048701  0  3.941386  0
C  C38  1  0.77233554  0.84994175  0.96152624  1  0  -0.085225  0  3.72018  0  0  -0.056149  0  3.956436  0  0  -0.068328  0  3.979414  0  0  -0.009639  -0.048686  0  3.941392  0
C  C39  1  0.15005701  0.22766420  0.53847368  1  0  -0.085259  0  3.720215  0  0  -0.05618  0  3.956468  0  0  -0.068362  0  3.979448  0  0  -0.00965  -0.048717  0  3.941424  0
C  C40  1  0.35249408  0.20168656  0.11271484  1  0  -0.061761  0  3.661428  0  0  -0.101632  0  3.91046  0  0  -0.096668  0  3.927143  0  0  -0.065292  -0.104467  0  3.89943  0
C  C41  1  0.79831260  0.64750562  0.38728442  1  0  -0.06188  0  3.661482  0  0  -0.101764  0  3.910511  0  0  -0.096798  0  3.927184  0  0  -0.065335  -0.104597  0  3.899479  0
C  C42  1  0.64750634  0.79831347  0.88728521  1  0  -0.061907  0  3.66142  0  0  -0.101796  0  3.910447  0  0  -0.096834  0  3.927131  0  0  -0.065333  -0.104628  0  3.899414  0
C  C43  1  0.20168692  0.35249441  0.61271472  1  0  -0.061733  0  3.661417  0  0  -0.101633  0  3.91044  0  0  -0.096669  0  3.927123  0  0  -0.065276  -0.104466  0  3.899408  0
C  C44  1  0.37318145  0.25564018  0.21829539  1  0  0.034867  0  3.726161  0  0  0.055867  0  3.999161  0  0  0.052965  0  4.022602  0  0  -0.015801  0.057197  0  3.98353  0
C  C45  1  0.74435807  0.62681806  0.28170428  1  0  0.034942  0  3.726112  0  0  0.05593  0  3.999124  0  0  0.053028  0  4.022566  0  0  -0.015768  0.05726  0  3.983492  0
C  C46  1  0.62681870  0.74435890  0.78170436  1  0  0.034923  0  3.726075  0  0  0.055927  0  3.999069  0  0  0.053024  0  4.022512  0  0  -0.015769  0.057257  0  3.983438  0
C  C47  1  0.25564054  0.37318197  0.71829531  1  0  0.034883  0  3.726135  0  0  0.055906  0  3.999112  0  0  0.053005  0  4.022553  0  0  -0.015782  0.057237  0  3.98348  0
C  C48  1  0.27100908  0.26070612  0.24692935  1  0  0.077511  0  3.698415  0  0  0.035048  0  3.953037  0  0  0.043413  0  3.968726  0  0  0.041123  0.029748  0  3.942371  0
C  C49  1  0.73929395  0.72899136  0.25307037  1  0  0.077548  0  3.698322  0  0  0.035099  0  3.952945  0  0  0.043466  0  3.968635  0  0  0.041129  0.029799  0  3.942281  0
C  C50  1  0.72899160  0.73929485  0.75307034  1  0  0.07753  0  3.698366  0  0  0.035064  0  3.952993  0  0  0.043432  0  3.968684  0  0  0.041121  0.029765  0  3.942328  0
C  C51  1  0.26070557  0.27100867  0.74692878  1  0  0.077475  0  3.69838  0  0  0.035006  0  3.953001  0  0  0.043372  0  3.968691  0  0  0.041115  0.029707  0  3.942337  0
C  C52  1  0.19378028  0.08012561  0.92326882  1  0  0.657772  0  3.943177  0  0  0.601445  0  4.243491  0  0  0.63726  0  4.236421  0  0  0.201055  0.577174  0  4.247538  0
C  C53  1  0.91987369  0.80621984  0.57673131  1  0  0.657753  0  3.943131  0  0  0.601421  0  4.243452  0  0  0.637233  0  4.236386  0  0  0.201036  0.57715  0  4.247498  0
C  C54  1  0.80622104  0.91987442  0.07673215  1  0  0.657738  0  3.943151  0  0  0.601407  0  4.243469  0  0  0.63722  0  4.2364  0  0  0.201014  0.577136  0  4.247515  0
C  C55  1  0.08012555  0.19377924  0.42326820  1  0  0.657697  0  3.943237  0  0  0.601369  0  4.243559  0  0  0.637184  0  4.236492  0  0  0.201008  0.577099  0  4.247605  0
C  C56  1  0.48403179  0.92585189  0.14317381  1  0  0.123975  0  3.653185  0  0  0.081722  0  3.902103  0  0  0.091226  0  3.917701  0  0  0.049737  0.075742  0  3.891423  0
C  C57  1  0.07414869  0.51596866  0.35682611  1  0  0.124033  0  3.653205  0  0  0.081785  0  3.90212  0  0  0.091294  0  3.917724  0  0  0.049756  0.075805  0  3.891439  0
C  C58  1  0.51596890  0.07414908  0.85682656  1  0  0.123991  0  3.653166  0  0  0.081739  0  3.902085  0  0  0.091237  0  3.91768  0  0  0.049726  0.075758  0  3.891407  0
C  C59  1  0.92585173  0.48403137  0.64317395  1  0  0.124063  0  3.653215  0  0  0.081822  0  3.902129  0  0  0.091328  0  3.917729  0  0  0.049765  0.075842  0  3.891448  0
C  C60  1  0.35273899  0.89496637  0.10644211  1  0  -0.09211  0  3.72329  0  0  -0.063444  0  3.957464  0  0  -0.076372  0  3.981669  0  0  -0.011687  -0.055431  0  3.941338  0
C  C61  1  0.10503320  0.64726050  0.39355800  1  0  -0.092171  0  3.723342  0  0  -0.063474  0  3.957495  0  0  -0.07642  0  3.981725  0  0  -0.011717  -0.055461  0  3.94137  0
C  C62  1  0.64726052  0.10503366  0.89355772  1  0  -0.092155  0  3.723334  0  0  -0.063509  0  3.957527  0  0  -0.076421  0  3.981715  0  0  -0.011703  -0.055495  0  3.941402  0
C  C63  1  0.89496721  0.35273953  0.60644206  1  0  -0.092194  0  3.723411  0  0  -0.063518  0  3.957576  0  0  -0.076455  0  3.981791  0  0  -0.011705  -0.055505  0  3.94145  0
C  C64  1  0.29795618  0.92306641  0.17921837  1  0  -0.062493  0  3.685591  0  0  -0.101513  0  3.934231  0  0  -0.09658  0  3.951819  0  0  -0.069298  -0.104102  0  3.922177  0
C  C65  1  0.07693296  0.70204369  0.32078179  1  0  -0.062475  0  3.685576  0  0  -0.101503  0  3.934204  0  0  -0.096566  0  3.951797  0  0  -0.069265  -0.104093  0  3.922153  0
C  C66  1  0.70204334  0.07693362  0.82078145  1  0  -0.062521  0  3.685575  0  0  -0.101497  0  3.934212  0  0  -0.096574  0  3.951794  0  0  -0.069303  -0.104088  0  3.922163  0
C  C67  1  0.92306628  0.29795540  0.67921771  1  0  -0.062541  0  3.685562  0  0  -0.101558  0  3.934199  0  0  -0.096625  0  3.951788  0  0  -0.069323  -0.104149  0  3.922151  0
C  C68  1  0.37820534  0.98022240  0.28518903  1  0  0.034549  0  3.723357  0  0  0.05534  0  3.994439  0  0  0.052401  0  4.017094  0  0  -0.015455  0.056795  0  3.979121  0
C  C69  1  0.01977715  0.62179418  0.21481041  1  0  0.034501  0  3.723394  0  0  0.055304  0  3.99447  0  0  0.052364  0  4.017123  0  0  -0.015502  0.056758  0  3.979151  0
C  C70  1  0.62179508  0.01977763  0.71481036  1  0  0.034604  0  3.723315  0  0  0.055369  0  3.994411  0  0  0.052429  0  4.017067  0  0  -0.015453  0.056822  0  3.979092  0
C  C71  1  0.98022146  0.37820585  0.78518850  1  0  0.034535  0  3.723357  0  0  0.055335  0  3.994432  0  0  0.052397  0  4.017085  0  0  -0.01549  0.056789  0  3.97911  0
C  C72  1  0.50879014  0.00776901  0.31635449  1  0  0.07511  0  3.727785  0  0  0.033278  0  3.987315  0  0  0.041492  0  4.003439  0  0  0.037216  0.027613  0  3.977341  0
C  C73  1  0.99223037  0.49121028  0.18364565  1  0  0.075133  0  3.72778  0  0  0.033286  0  3.987322  0  0  0.041501  0  4.003444  0  0  0.03721  0.027618  0  3.977352  0
C  C74  1  0.49121028  0.99223102  0.68364557  1  0  0.075143  0  3.727712  0  0  0.033312  0  3.987244  0  0  0.041527  0  4.003369  0  0  0.037237  0.027658  0  3.977266  0
C  C75  1  0.00776914  0.50878975  0.81635418  1  0  0.075105  0  3.727771  0  0  0.033264  0  3.987301  0  0  0.041475  0  4.003426  0  0  0.037221  0.027603  0  3.977332  0
C  C76  1  0.27586998  0.83697790  0.98956578  1  0  0.650672  0  3.916573  0  0  0.599307  0  4.210744  0  0  0.633937  0  4.20511  0  0  0.205216  0.576005  0  4.213389  0
C  C77  1  0.16302137  0.72413051  0.51043387  1  0  0.650752  0  3.91641  0  0  0.59935  0  4.210626  0  0  0.633983  0  4.204993  0  0  0.205275  0.576047  0  4.213271  0
C  C78  1  0.72413044  0.16302213  0.01043360  1  0  0.650703  0  3.916521  0  0  0.599334  0  4.210705  0  0  0.63396  0  4.205071  0  0  0.205224  0.576031  0  4.21335  0
C  C79  1  0.83697814  0.27586952  0.48956596  1  0  0.650704  0  3.916533  0  0  0.599323  0  4.210723  0  0  0.633956  0  4.205089  0  0  0.20521  0.576021  0  4.213369  0
Br  Br80  1  0.53897993  0.31841084  0.32458551  1  0  -0.037203  0  1.314516  0  0  -0.034818  0  1.556575  0  0  -0.039195  0  1.550169  0  0  0.05308  -0.031691  0  1.561513  0
Br  Br81  1  0.68158896  0.46101993  0.17541463  1  0  -0.037213  0  1.314502  0  0  -0.034824  0  1.556565  0  0  -0.039201  0  1.550159  0  0  0.053084  -0.031697  0  1.561502  0
Br  Br82  1  0.46102048  0.68158919  0.67541522  1  0  -0.03719  0  1.314506  0  0  -0.034802  0  1.556565  0  0  -0.03918  0  1.55016  0  0  0.053096  -0.031676  0  1.561503  0
Br  Br83  1  0.31841118  0.53897916  0.82458511  1  0  -0.037205  0  1.314531  0  0  -0.034828  0  1.556586  0  0  -0.039205  0  1.55018  0  0  0.053079  -0.031701  0  1.561523  0
Br  Br84  1  0.31275105  0.02462404  0.38986627  1  0  -0.041862  0  1.247191  0  0  -0.035119  0  1.477109  0  0  -0.040105  0  1.470685  0  0  0.055413  -0.031641  0  1.48185  0
Br  Br85  1  0.97537624  0.68724972  0.11013423  1  0  -0.041843  0  1.247213  0  0  -0.035099  0  1.477121  0  0  -0.040084  0  1.470696  0  0  0.055434  -0.031621  0  1.481861  0
Br  Br86  1  0.68724937  0.97537599  0.61013379  1  0  -0.041877  0  1.247196  0  0  -0.035126  0  1.477119  0  0  -0.040112  0  1.470695  0  0  0.055415  -0.031648  0  1.481861  0
Br  Br87  1  0.02462354  0.31275125  0.88986591  1  0  -0.041856  0  1.247178  0  0  -0.035115  0  1.47709  0  0  -0.040101  0  1.470665  0  0  0.055423  -0.031636  0  1.481831  0
N  N88  1  0.15187812  0.21307372  0.17427706  1  0  -0.308256  0  3.269303  0  0  -0.228089  0  3.538365  0  0  -0.248536  0  3.556609  0  0  -0.32796  -0.214222  0  3.525612  0
N  N89  1  0.78692580  0.84812193  0.32572310  1  0  -0.308309  0  3.269286  0  0  -0.228147  0  3.538351  0  0  -0.248594  0  3.556595  0  0  -0.32797  -0.21428  0  3.525601  0
N  N90  1  0.84812139  0.78692631  0.82572344  1  0  -0.308244  0  3.269311  0  0  -0.22807  0  3.538363  0  0  -0.248516  0  3.556607  0  0  -0.327943  -0.214203  0  3.525609  0
N  N91  1  0.21307280  0.15187810  0.67427716  1  0  -0.308218  0  3.269348  0  0  -0.228057  0  3.538402  0  0  -0.248503  0  3.556645  0  0  -0.327944  -0.21419  0  3.525651  0
N  N92  1  0.55982725  0.98039125  0.24544188  1  0  -0.319876  0  3.256138  0  0  -0.24562  0  3.528466  0  0  -0.265543  0  3.54627  0  0  -0.325037  -0.231929  0  3.515962  0
N  N93  1  0.01960891  0.44017248  0.25455775  1  0  -0.319889  0  3.256114  0  0  -0.245625  0  3.528437  0  0  -0.265547  0  3.546239  0  0  -0.325026  -0.231932  0  3.515931  0
N  N94  1  0.44017254  0.01960972  0.75455826  1  0  -0.31989  0  3.2561  0  0  -0.245628  0  3.528425  0  0  -0.265551  0  3.54623  0  0  -0.325026  -0.231938  0  3.515921  0
N  N95  1  0.98039060  0.55982755  0.74544208  1  0  -0.319889  0  3.256126  0  0  -0.245631  0  3.528445  0  0  -0.265552  0  3.546248  0  0  -0.325036  -0.231937  0  3.515936  0
O  O96  1  0.08480012  0.00288780  0.87006172  1  0  -0.658618  0  2.034957  0  0  -0.59883  0  2.290273  0  0  -0.626947  0  2.279075  0  0  -0.334693  -0.579012  0  2.297412  0
O  O97  1  0.99711221  0.91520004  0.62993929  1  0  -0.658601  0  2.034964  0  0  -0.598817  0  2.290276  0  0  -0.626933  0  2.27908  0  0  -0.334666  -0.578998  0  2.297414  0
O  O98  1  0.91520029  0.99711223  0.12993902  1  0  -0.658622  0  2.034957  0  0  -0.598836  0  2.290268  0  0  -0.626954  0  2.279072  0  0  -0.334678  -0.579017  0  2.297408  0
O  O99  1  0.00288821  0.08479999  0.37006145  1  0  -0.658603  0  2.034986  0  0  -0.598812  0  2.290296  0  0  -0.626928  0  2.2791  0  0  -0.334673  -0.578994  0  2.297435  0
O  O100  1  0.27759535  0.10378494  0.88932691  1  0  -0.63882  0  2.002879  0  0  -0.572537  0  2.250993  0  0  -0.601886  0  2.239758  0  0  -0.323605  -0.551735  0  2.257755  0
O  O101  1  0.89621475  0.72240403  0.61067312  1  0  -0.638841  0  2.002875  0  0  -0.572543  0  2.250977  0  0  -0.601894  0  2.239745  0  0  -0.323624  -0.551741  0  2.257739  0
O  O102  1  0.72240507  0.89621509  0.11067315  1  0  -0.6388  0  2.002881  0  0  -0.572509  0  2.250989  0  0  -0.601858  0  2.239756  0  0  -0.323591  -0.551707  0  2.257751  0
O  O103  1  0.10378449  0.27759505  0.38932706  1  0  -0.638775  0  2.002884  0  0  -0.572498  0  2.251006  0  0  -0.601846  0  2.239774  0  0  -0.323586  -0.551695  0  2.257768  0
O  O104  1  0.33845916  0.82045071  0.93261525  1  0  -0.614821  0  1.964707  0  0  -0.558547  0  2.185901  0  0  -0.584305  0  2.175831  0  0  -0.320649  -0.540441  0  2.192411  0
O  O105  1  0.17954963  0.66154027  0.56738506  1  0  -0.614872  0  1.964557  0  0  -0.558595  0  2.18577  0  0  -0.584354  0  2.175698  0  0  -0.320715  -0.540489  0  2.19228  0
O  O106  1  0.66154035  0.17954932  0.06738457  1  0  -0.614796  0  1.964663  0  0  -0.558527  0  2.18586  0  0  -0.584288  0  2.175792  0  0  -0.320643  -0.540422  0  2.19237  0
O  O107  1  0.82045052  0.33845882  0.43261536  1  0  -0.614802  0  1.964689  0  0  -0.558525  0  2.185885  0  0  -0.584285  0  2.175815  0  0  -0.320631  -0.54042  0  2.192395  0
O  O108  1  0.15652437  0.81172818  0.95850768  1  0  -0.648268  0  1.987538  0  0  -0.586417  0  2.238745  0  0  -0.615589  0  2.229147  0  0  -0.330939  -0.565519  0  2.244434  0
O  O109  1  0.18827110  0.84347503  0.54149170  1  0  -0.648283  0  1.987559  0  0  -0.586411  0  2.23878  0  0  -0.615583  0  2.229181  0  0  -0.330926  -0.565516  0  2.244469  0
O  O110  1  0.84347578  0.18827090  0.04149206  1  0  -0.648304  0  1.987512  0  0  -0.586438  0  2.238717  0  0  -0.61561  0  2.229121  0  0  -0.330945  -0.565541  0  2.244407  0
O  O111  1  0.81172905  0.15652405  0.45850804  1  0  -0.648302  0  1.987519  0  0  -0.586442  0  2.238733  0  0  -0.615613  0  2.229134  0  0  -0.330947  -0.565545  0  2.244423  0
O  O112  1  0.20216805  0.79783121  0.75000000  1  0  -0.898101  0  2.016337  0  0  -0.808716  0  2.250567  0  0  -0.83852  0  2.210595  0  0  -0.584051  -0.787731  0  2.278386  0
O  O113  1  0.79783119  0.20216788  0.24999950  1  0  -0.898106  0  2.016338  0  0  -0.808723  0  2.250566  0  0  -0.838526  0  2.210593  0  0  -0.584057  -0.787736  0  2.278387  0
