# generated using pymatgen
data_Zr6H50C61O34
_symmetry_space_group_name_H-M   'P 1'
_cell_length_a   14.77866535
_cell_length_b   14.77224846
_cell_length_c   14.79161933
_cell_angle_alpha   60.19982806
_cell_angle_beta   59.89929209
_cell_angle_gamma   60.05815277
_symmetry_Int_Tables_number   1
_chemical_formula_structural   Zr6H50C61O34
_chemical_formula_sum   'Zr6 H50 C61 O34'
_cell_volume   2286.08457122
_cell_formula_units_Z   1
loop_
 _symmetry_equiv_pos_site_id
 _symmetry_equiv_pos_as_xyz
  1  'x, y, z'
loop_
 _atom_site_type_symbol
 _atom_site_label
 _atom_site_symmetry_multiplicity
 _atom_site_fract_x
 _atom_site_fract_y
 _atom_site_fract_z
 _atom_site_occupancy
 _atom_site_pbe_bader_charge
 _atom_site_pbe_bader_spin_density
 _atom_site_pbe_cm5_charge
 _atom_site_pbe_ddec_charge
 _atom_site_pbe_ddec_spin_density
 _atom_site_pbe_ddec_sum_bond_order
 _atom_site_pbe_magmom
Zr  Zr0  1  0.87935217  0.88375803  0.61351922  1  2.633109  0  1.630754  2.366976  0  2.771938  0
Zr  Zr1  1  0.12348173  0.11744520  0.37999204  1  2.631783  0  1.632758  2.372853  0  2.761311  0
Zr  Zr2  1  0.11877227  0.87957672  0.61791399  1  2.633201  0  1.629749  2.372279  0  2.756719  0
Zr  Zr3  1  0.88401065  0.12235488  0.37532855  1  2.634997  0  1.626443  2.370408  0  2.75301  0
Zr  Zr4  1  0.12078584  0.88129947  0.37701045  1  2.637748  0  1.630326  2.367356  0  2.767455  0
Zr  Zr5  1  0.88107707  0.11999054  0.61690541  1  2.636515  0  1.629517  2.368949  0  2.761408  0
H  H6  1  0.09261682  0.71874449  0.59010859  1  0.604031  0  0.331277  0.422685  0  0.858262  0
H  H7  1  0.09932566  0.09442834  0.21434955  1  0.608364  0  0.33178  0.424415  0  0.855554  0
H  H8  1  0.09470960  0.09055518  0.59566017  1  0.613684  0  0.331174  0.421535  0  0.860163  0
H  H9  1  0.71877069  0.09888347  0.58738780  1  0.60699  0  0.331624  0.422477  0  0.858201  0
H  H10  1  0.16807222  0.54832014  0.41783550  1  0.063574  0  0.103041  0.107992  0  1.021095  0
H  H11  1  0.82973444  0.45604045  0.57466758  1  0.085652  0  0.102066  0.106929  0  1.030764  0
H  H12  1  0.63854983  0.07968920  0.95050825  1  0.087293  0  0.102893  0.106678  0  1.031218  0
H  H13  1  0.37351151  0.90751107  0.05367453  1  0.07165  0  0.101012  0.104766  0  1.028834  0
H  H14  1  0.85670710  0.13488459  0.09388871  1  0.099126  0  0.10194  0.106156  0  1.030967  0
H  H15  1  0.12990698  0.85231289  0.91492020  1  0.107228  0  0.10412  0.111594  0  1.018254  0
H  H16  1  0.60257849  0.41800356  0.34865773  1  0.042074  0  0.101404  0.105346  0  1.033597  0
H  H17  1  0.41383616  0.59758154  0.63075549  1  0.08003  0  0.105645  0.112754  0  1.019463  0
H  H18  1  0.13417655  0.60006409  0.91653901  1  0.107721  0  0.113908  0.125811  0  0.98947  0
H  H19  1  0.73292805  0.63011474  0.97323180  1  0.067219  0  0.100597  0.113061  0  0.983109  0
H  H20  1  0.82108384  0.54557874  0.88684564  1  0.057681  0  0.10007  0.111442  0  0.981602  0
H  H21  1  0.82961028  0.37456908  0.05614226  1  0.053064  0  0.100397  0.112841  0  0.981295  0
H  H22  1  0.74087708  0.45881600  0.14266538  1  0.06404  0  0.098754  0.110579  0  0.990961  0
H  H23  1  0.60077027  0.85975422  0.62682291  1  0.070705  0  0.105942  0.111197  0  1.030361  0
H  H24  1  0.40785756  0.13709891  0.35925389  1  0.074466  0  0.108939  0.116166  0  1.022506  0
H  H25  1  0.23061611  0.26441182  0.46285970  1  0.053891  0  0.08965  0.129319  0  1.011982  0
H  H26  1  0.23484242  0.35299430  0.32691119  1  0.090274  0  0.096384  0.146352  0  1.011165  0
H  H27  1  0.28194300  0.37566519  0.40137851  1  0.015627  0  0.088994  0.123585  0  1.000282  0
H  H28  1  0.71580445  0.62211020  0.60382868  1  0.027925  0  0.089726  0.123861  0  1.003067  0
H  H29  1  0.76879633  0.64923023  0.66957510  1  0.048221  0  0.094747  0.132647  0  0.999594  0
H  H30  1  0.76412558  0.73664620  0.53628459  1  0.064969  0  0.094928  0.139585  0  1.006322  0
H  H31  1  0.41463620  0.17909317  0.13590398  1  0.077553  0  0.099747  0.149336  0  0.987432  0
H  H32  1  0.45629457  0.04792605  0.23204602  1  0.069964  0  0.092124  0.134854  0  1.01721  0
H  H33  1  0.55843867  0.10722159  0.11839298  1  0.017136  0  0.088433  0.121628  0  1.003884  0
H  H34  1  0.54450804  0.94463904  0.77346048  1  0.068836  0  0.091994  0.13399  0  1.006089  0
H  H35  1  0.60398623  0.81390984  0.85812635  1  0.054747  0  0.094061  0.13142  0  1.006788  0
H  H36  1  0.45682728  0.87089621  0.89220827  1  0.048949  0  0.088785  0.122169  0  1.003388  0
H  H37  1  0.76195581  0.22395832  0.97665954  1  0.058075  0  0.08762  0.118941  0  1.007064  0
H  H38  1  0.84393484  0.22891847  0.83645747  1  0.065622  0  0.097362  0.142077  0  0.991658  0
H  H39  1  0.76041423  0.14501312  0.91751775  1  0.050652  0  0.094706  0.135502  0  1.018927  0
H  H40  1  0.22054946  0.75944574  0.03605843  1  0.026196  0  0.088899  0.122017  0  1.002638  0
H  H41  1  0.22969822  0.84210185  0.08535813  1  0.052724  0  0.092972  0.131669  0  1.011992  0
H  H42  1  0.14271196  0.76163078  0.17465298  1  0.089681  0  0.098604  0.146432  0  0.991536  0
H  H43  1  0.48362836  0.53903407  0.25558371  1  -0.008837  0  0.086709  0.117167  0  1.009163  0
H  H44  1  0.34269679  0.59190054  0.33639300  1  0.054933  0  0.094206  0.134559  0  1.009328  0
H  H45  1  0.42392828  0.67821148  0.25570849  1  0.081936  0  0.097617  0.144234  0  0.9928  0
H  H46  1  0.53839385  0.48251742  0.71803484  1  0.024924  0  0.09059  0.124525  0  1.001064  0
H  H47  1  0.58468926  0.34222966  0.72766507  1  0.070689  0  0.100535  0.147415  0  0.981925  0
H  H48  1  0.67738675  0.41662662  0.64229555  1  0.045678  0  0.092172  0.130893  0  1.027551  0
H  H49  1  0.48678397  0.76081625  0.71671859  1  0.035198  0  0.088558  0.120675  0  1.006516  0
H  H50  1  0.34471461  0.83861613  0.72756255  1  0.043092  0  0.096145  0.138272  0  0.997699  0
H  H51  1  0.42673403  0.76002411  0.63819225  1  0.056536  0  0.096543  0.139524  0  1.003396  0
H  H52  1  0.52463352  0.23334790  0.26650217  1  0.045902  0  0.091043  0.125705  0  1.00211  0
H  H53  1  0.58312695  0.23611695  0.34518259  1  0.057959  0  0.094765  0.136664  0  1.00192  0
H  H54  1  0.66625453  0.15531143  0.25787477  1  0.044481  0  0.095587  0.138404  0  1.003679  0
H  H55  1  0.06994628  0.45103175  0.22954929  1  0.626787  0  0.337488  0.375828  0  0.871548  0
C  C56  1  0.99348910  0.70208702  0.49281253  1  1.548919  0  0.236813  0.645277  0  4.0877  0
C  C57  1  0.31246181  0.99495998  0.19962758  1  1.535719  0  0.238156  0.647165  0  4.083599  0
C  C58  1  0.00349300  0.30368535  0.49781529  1  1.533694  0  0.233146  0.639163  0  4.101861  0
C  C59  1  0.69630117  0.99772154  0.80129689  1  1.52353  0  0.23731  0.647646  0  4.082591  0
C  C60  1  0.99148337  0.70443768  0.80533080  1  1.567289  0  0.23862  0.648318  0  4.10725  0
C  C61  1  0.70011063  0.00507031  0.48625344  1  1.562743  0  0.236434  0.640587  0  4.090782  0
C  C62  1  0.99957965  0.31018503  0.19995173  1  1.562911  0  0.23279  0.638408  0  4.131854  0
C  C63  1  0.30875085  0.99122351  0.50004052  1  1.561107  0  0.236653  0.639383  0  4.092386  0
C  C64  1  0.30832022  0.69957234  0.49075488  1  1.545284  0  0.237479  0.644411  0  4.082037  0
C  C65  1  0.99141712  0.99688653  0.80782848  1  1.545839  0  0.236591  0.643002  0  4.084964  0
C  C66  1  0.70358924  0.31161679  0.49309568  1  1.544723  0  0.236155  0.641765  0  4.084975  0
C  C67  1  0.00095201  0.99572932  0.19526876  1  1.548615  0  0.237074  0.644448  0  4.08061  0
C  C68  1  0.00590363  0.40411850  0.49663466  1  -0.048178  0  -0.020009  -0.100622  0  3.951056  0
C  C69  1  0.99172848  0.60071348  0.49516293  1  -0.032265  0  -0.014667  -0.089264  0  3.935221  0
C  C70  1  0.10504869  0.42704497  0.45211720  1  0.029975  0  -0.000196  0.161243  0  3.944888  0
C  C71  1  0.89299112  0.57641556  0.54189165  1  0.047011  0  -0.000901  0.158813  0  3.949492  0
C  C72  1  0.09397120  0.52673099  0.45192894  1  -0.055659  0  -0.087478  -0.159488  0  3.956364  0
C  C73  1  0.90374291  0.47773961  0.54050961  1  -0.045571  0  -0.089448  -0.160944  0  3.964062  0
C  C74  1  0.41491581  0.99451969  0.09991688  1  -0.006744  0  -0.014742  -0.091437  0  3.930739  0
C  C75  1  0.59672619  0.99368112  0.90373309  1  -0.035696  0  -0.014768  -0.091761  0  3.936586  0
C  C76  1  0.48955803  0.04427581  0.07333274  1  0.026373  0  0.004945  0.169273  0  3.933335  0
C  C77  1  0.52261845  0.94289228  0.93086066  1  0.023338  0  -0.002726  0.154169  0  3.949696  0
C  C78  1  0.57893691  0.04211466  0.97459044  1  -0.059742  0  -0.08385  -0.152761  0  3.946677  0
C  C79  1  0.43330653  0.94491215  0.02961576  1  -0.04867  0  -0.088445  -0.161788  0  3.965729  0
C  C80  1  0.98743418  0.99822180  0.91025795  1  -0.094368  0  -0.015208  -0.09317  0  3.925274  0
C  C81  1  0.00016601  0.98995870  0.09755984  1  -0.040826  0  -0.015036  -0.093567  0  3.924369  0
C  C82  1  0.90665413  0.08057339  0.96023485  1  0.100925  0  0.001585  0.163186  0  3.935009  0
C  C83  1  0.07989033  0.90658046  0.04864747  1  0.007908  0  0.002344  0.165416  0  3.931529  0
C  C84  1  0.91644626  0.07294836  0.05310356  1  -0.023757  0  -0.088655  -0.162024  0  3.961957  0
C  C85  1  0.07011825  0.91422806  0.95573452  1  -0.066415  0  -0.086962  -0.159763  0  3.956284  0
C  C86  1  0.41245515  0.60164819  0.48524319  1  -0.111486  0  -0.014784  -0.094602  0  3.92475  0
C  C87  1  0.60380157  0.41397138  0.49425624  1  -0.026535  0  -0.016475  -0.094736  0  3.927533  0
C  C88  1  0.46509597  0.55250703  0.40201882  1  0.039244  0  0.001288  0.164391  0  3.933755  0
C  C89  1  0.55214829  0.46413115  0.57643785  1  0.010525  0  0.003438  0.165981  0  3.929813  0
C  C90  1  0.55980422  0.45933414  0.41013822  1  -0.013841  0  -0.08981  -0.165992  0  3.966323  0
C  C91  1  0.45719476  0.55713259  0.56852366  1  0.013371  0  -0.085088  -0.156165  0  3.950356  0
C  C92  1  0.98791323  0.60878774  0.91001195  1  0.035575  0  -0.007945  -0.071327  0  3.967038  0
C  C93  1  0.99442432  0.41536162  0.10514111  1  -0.062129  0  -0.012783  -0.11527  0  3.959556  0
C  C94  1  0.90839925  0.55750552  0.96402524  1  -0.042059  0  0.001575  0.069361  0  3.877011  0
C  C95  1  0.07425462  0.46892043  0.05253564  1  0.034052  0  -0.00908  -0.069955  0  3.973078  0
C  C96  1  0.91256885  0.46342925  0.05807380  1  0.006122  0  -0.000117  0.073493  0  3.879487  0
C  C97  1  0.07025189  0.56234077  0.95728251  1  -0.053847  0  -0.073957  -0.111544  0  3.933219  0
C  C98  1  0.80744272  0.55769785  0.96080302  1  -0.038822  0  -0.148489  -0.200862  0  3.87497  0
C  C99  1  0.81249796  0.45064318  0.06694249  1  -0.011209  0  -0.148931  -0.197974  0  3.869622  0
C  C100  1  0.41042615  0.99006255  0.49996179  1  -0.042379  0  -0.015462  -0.097673  0  3.930341  0
C  C101  1  0.59925598  0.00570350  0.48515614  1  -0.047322  0  -0.015658  -0.097622  0  3.933353  0
C  C102  1  0.46403464  0.90846333  0.57837072  1  -0.016905  0  0.002363  0.164943  0  3.936452  0
C  C103  1  0.54576911  0.08718013  0.40658481  1  -0.047093  0  0.003001  0.165888  0  3.933783  0
C  C104  1  0.55721140  0.92007323  0.56795124  1  0.007813  0  -0.086876  -0.162434  0  3.964501  0
C  C105  1  0.45203329  0.07609133  0.41748706  1  0.024603  0  -0.085195  -0.160043  0  3.954985  0
C  C106  1  0.21924514  0.35078575  0.40868509  1  -0.066607  0  -0.243035  -0.414496  0  3.967676  0
C  C107  1  0.77928407  0.65004616  0.59020419  1  -0.057517  0  -0.240208  -0.411095  0  3.974625  0
C  C108  1  0.47933627  0.09712676  0.14400384  1  -0.054784  0  -0.239733  -0.414191  0  3.960307  0
C  C109  1  0.53230801  0.89044241  0.85994260  1  -0.092222  0  -0.240104  -0.4082  0  3.979264  0
C  C110  1  0.81318527  0.17468770  0.92083030  1  -0.103648  0  -0.239036  -0.409683  0  3.972564  0
C  C111  1  0.17321872  0.81225855  0.08818355  1  -0.090482  0  -0.239231  -0.410704  0  3.970493  0
C  C112  1  0.42699944  0.59240874  0.30728388  1  -0.028487  0  -0.239599  -0.409612  0  3.971293  0
C  C113  1  0.59021395  0.42462955  0.67104440  1  -0.041467  0  -0.238085  -0.410251  0  3.96793  0
C  C114  1  0.42882951  0.81167464  0.67025657  1  -0.031862  0  -0.238836  -0.40943  0  3.968929  0
C  C115  1  0.58166653  0.18333893  0.31394134  1  -0.055401  0  -0.239391  -0.412822  0  3.971593  0
C  C116  1  0.17078355  0.43091440  0.08794090  1  1.544499  0  0.233088  0.588916  0  4.118968  0
O  O117  1  0.91724986  0.74301656  0.56934614  1  -1.18399  0  -0.354992  -0.614085  0  2.308384  0
O  O118  1  0.27090917  0.07195085  0.23988995  1  -1.175668  0  -0.351841  -0.605245  0  2.30115  0
O  O119  1  0.07941386  0.26348691  0.42067694  1  -1.176613  0  -0.353901  -0.615814  0  2.320889  0
O  O120  1  0.73654314  0.92316709  0.75815514  1  -1.181657  0  -0.357087  -0.615407  0  2.319137  0
O  O121  1  0.07132105  0.74097968  0.76336733  1  -1.187903  0  -0.36137  -0.621361  0  2.292939  0
O  O122  1  0.74093694  0.08167523  0.41170703  1  -1.188404  0  -0.35099  -0.606867  0  2.314385  0
O  O123  1  0.92489847  0.26925402  0.23507311  1  -1.175017  0  -0.350433  -0.604319  0  2.284382  0
O  O124  1  0.26623866  0.91642991  0.57653869  1  -1.183323  0  -0.349869  -0.606551  0  2.316221  0
O  O125  1  0.26519187  0.73908291  0.41681829  1  -1.180984  0  -0.354828  -0.610912  0  2.328623  0
O  O126  1  0.91667421  0.07345646  0.76535621  1  -1.181673  0  -0.354546  -0.610044  0  2.326876  0
O  O127  1  0.74349509  0.26851511  0.57033770  1  -1.186823  0  -0.354256  -0.60987  0  2.325782  0
O  O128  1  0.07789614  0.92127637  0.23543698  1  -1.192471  0  -0.354043  -0.60979  0  2.327644  0
O  O129  1  0.07034694  0.92087039  0.76754998  1  -1.183294  0  -0.353826  -0.622214  0  2.279936  0
O  O130  1  0.74197142  0.27209881  0.41617568  1  -1.182888  0  -0.355485  -0.624287  0  2.282742  0
O  O131  1  0.92583291  0.07550073  0.23189096  1  -1.185941  0  -0.355092  -0.624701  0  2.278291  0
O  O132  1  0.26762726  0.73689868  0.56981698  1  -1.181532  0  -0.353287  -0.621217  0  2.275811  0
O  O133  1  0.91661063  0.74075334  0.76472375  1  -1.171322  0  -0.343638  -0.605251  0  2.252246  0
O  O134  1  0.26938279  0.06895911  0.42355599  1  -1.190545  0  -0.355457  -0.622541  0  2.313585  0
O  O135  1  0.07821108  0.26817130  0.23755267  1  -1.18428  0  -0.346382  -0.618203  0  2.314029  0
O  O136  1  0.73866445  0.92777034  0.56339391  1  -1.188486  0  -0.355561  -0.623978  0  2.31239  0
O  O137  1  0.73510078  0.07483777  0.76334711  1  -1.177781  0  -0.351545  -0.62134  0  2.269319  0
O  O138  1  0.07244260  0.73907759  0.41689934  1  -1.182559  0  -0.350369  -0.619703  0  2.271013  0
O  O139  1  0.27092764  0.92019346  0.23618607  1  -1.177814  0  -0.3553  -0.625562  0  2.28136  0
O  O140  1  0.92528839  0.26585869  0.57431660  1  -1.180969  0  -0.351201  -0.617418  0  2.273348  0
O  O141  1  0.79913464  0.07090371  0.56145398  1  -1.233756  0  -0.696335  -1.069971  0  2.374903  0
O  O142  1  0.06812810  0.06552986  0.56699234  1  -1.242668  0  -0.696648  -1.071254  0  2.377324  0
O  O143  1  0.07108574  0.06859552  0.29457625  1  -1.237302  0  -0.694263  -1.070589  0  2.361245  0
O  O144  1  0.06604153  0.79893690  0.56393339  1  -1.233716  0  -0.694927  -1.070325  0  2.365138  0
O  O145  1  0.15030428  0.94939985  0.44866346  1  -1.197265  0  -0.793454  -1.15018  0  2.140197  0
O  O146  1  0.95155408  0.95312609  0.44499253  1  -1.201411  0  -0.793249  -1.149842  0  2.137817  0
O  O147  1  0.95351090  0.14974558  0.44737540  1  -1.20024  0  -0.791325  -1.150707  0  2.129267  0
O  O148  1  0.94956529  0.95121235  0.64537750  1  -1.197942  0  -0.792187  -1.149194  0  2.135868  0
O  O149  1  0.14752406  0.44330640  0.18344673  1  -1.120811  0  -0.333177  -0.478733  0  2.266407  0
O  O150  1  0.26675188  0.40178365  0.02906343  1  -1.122933  0  -0.286811  -0.456395  0  2.033603  0
