# generated using pymatgen
data_ZnH35C29(N5O2)2
_symmetry_space_group_name_H-M   'P 1'
_cell_length_a   16.29128678
_cell_length_b   16.72278758
_cell_length_c   18.72490533
_cell_angle_alpha   90.89603508
_cell_angle_beta   92.71189747
_cell_angle_gamma   91.65148318
_symmetry_Int_Tables_number   1
_chemical_formula_structural   ZnH35C29(N5O2)2
_chemical_formula_sum   'Zn2 H70 C58 N20 O8'
_cell_volume   5092.76500970
_cell_formula_units_Z   2
loop_
 _symmetry_equiv_pos_site_id
 _symmetry_equiv_pos_as_xyz
  1  'x, y, z'
loop_
 _atom_site_type_symbol
 _atom_site_label
 _atom_site_symmetry_multiplicity
 _atom_site_fract_x
 _atom_site_fract_y
 _atom_site_fract_z
 _atom_site_occupancy
 _atom_site_pbe_bader_charge
 _atom_site_pbe_bader_spin_density
 _atom_site_pbe_cm5_charge
 _atom_site_pbe_ddec_charge
 _atom_site_pbe_ddec_spin_density
 _atom_site_pbe_ddec_sum_bond_order
 _atom_site_pbe_magmom
Zn  Zn0  1  0.58687026  0.49365045  0.51991447  1  1.281183  0  0.67702  0.844373  0  2.396728  0
Zn  Zn1  1  0.40795072  0.49613003  0.50518710  1  1.270242  0  0.673513  0.836351  0  2.382038  0
H  H2  1  0.62792837  0.56128428  0.31993287  1  0.085786  0  0.104134  0.118579  0  1.015788  0
H  H3  1  0.81960678  0.71126062  0.47977072  1  0.032279  0  0.093502  0.091418  0  0.987607  0
H  H4  1  0.70053944  0.38601479  0.57195307  1  0.087138  0  0.119856  0.098742  0  1.012305  0
H  H5  1  0.29048586  0.40627382  0.42401928  1  0.102465  0  0.119577  0.099423  0  1.00962  0
H  H6  1  0.06906999  0.42739991  0.59297661  1  0.407993  0  0.295264  0.233016  0  0.978787  0
H  H7  1  0.01321634  0.44122689  0.70721594  1  0.027799  0  0.100241  0.107709  0  0.980924  0
H  H8  1  0.91928307  0.47193987  0.66629880  1  0.060688  0  0.101303  0.111941  0  1.002564  0
H  H9  1  0.00796375  0.53734869  0.66642781  1  0.000843  0  0.078401  0.06795  0  1.015996  0
H  H10  1  0.92345223  0.46950840  0.40111704  1  0.417075  0  0.297028  0.235097  0  0.974111  0
H  H11  1  0.98608456  0.52351356  0.29978925  1  0.035261  0  0.102282  0.11072  0  0.979309  0
H  H12  1  0.08147815  0.53263033  0.34922953  1  0.049095  0  0.10208  0.112945  0  1.001399  0
H  H13  1  0.36829056  0.51179286  0.73724447  1  0.070674  0  0.102373  0.111263  0  1.012197  0
H  H14  1  0.00064704  0.59797072  0.36950395  1  -0.007829  0  0.080373  0.072537  0  1.009635  0
H  H15  1  0.18395877  0.34964216  0.36375247  1  0.3999  0  0.300259  0.235606  0  0.956641  0
H  H16  1  0.09615133  0.27739406  0.45496554  1  0.02651  0  0.085038  0.082258  0  0.998172  0
H  H17  1  0.06971387  0.26645880  0.36141793  1  0.050086  0  0.101966  0.109945  0  0.979597  0
H  H18  1  0.01592839  0.33460500  0.41389739  1  0.103569  0  0.093914  0.097215  0  1.054926  0
H  H19  1  0.80203930  0.30724217  0.60029442  1  0.392593  0  0.294589  0.226812  0  0.982114  0
H  H20  1  0.90164900  0.22481830  0.56580380  1  0.014828  0  0.10133  0.108774  0  0.981726  0
H  H21  1  0.96518315  0.30642504  0.54057575  1  0.063964  0  0.093222  0.096898  0  1.052911  0
H  H22  1  0.87746862  0.27529266  0.48433747  1  0.011304  0  0.084106  0.08097  0  1.000202  0
H  H23  1  0.89095449  0.58502127  0.47936279  1  0.051025  0  0.10207  0.112964  0  1.041319  0
H  H24  1  0.33149507  0.57712381  0.60701621  1  0.492816  0  0.301939  0.266644  0  1.016371  0
H  H25  1  0.10846152  0.57019734  0.56123619  1  0.071773  0  0.10247  0.113072  0  1.038419  0
H  H26  1  0.70014429  0.63529466  0.24729442  1  0.428817  0  0.31319  0.250562  0  0.945817  0
H  H27  1  0.61702360  0.74563579  0.15816926  1  0.066935  0  0.098159  0.103554  0  1.001009  0
H  H28  1  0.68733579  0.69261376  0.10623271  1  0.063792  0  0.09572  0.100213  0  1.02904  0
H  H29  1  0.72297848  0.74633095  0.18596343  1  0.042272  0  0.103256  0.108664  0  0.980849  0
H  H30  1  0.30652950  0.50740772  0.83831152  1  0.414294  0  0.312078  0.247749  0  0.947566  0
H  H31  1  0.40014785  0.46649845  0.96377893  1  0.044932  0  0.100894  0.106264  0  0.985545  0
H  H32  1  0.29248683  0.45347444  0.94505212  1  0.043497  0  0.105131  0.108635  0  0.979687  0
H  H33  1  0.33310228  0.54502234  0.98450297  1  0.048496  0  0.098721  0.108334  0  1.012946  0
H  H34  1  0.38669751  0.57328486  0.14963923  1  0.087136  0  0.100877  0.102367  0  1.012037  0
H  H35  1  0.26982990  0.66736729  0.67927745  1  0.085927  0  0.11173  0.120242  0  0.97405  0
H  H36  1  0.62949656  0.59047660  0.86888728  1  0.109193  0  0.102794  0.100373  0  1.024159  0
H  H37  1  0.37130683  0.51485446  0.27125087  1  0.098866  0  0.101129  0.112454  0  1.007382  0
H  H38  1  0.62857232  0.55831262  0.73777474  1  0.097712  0  0.104675  0.116531  0  1.000168  0
H  H39  1  0.56235582  0.85320442  0.60132912  1  0.413736  0  0.301889  0.239882  0  0.960321  0
H  H40  1  0.51616943  0.76731775  0.68077950  1  0.057545  0  0.101932  0.106015  0  0.985783  0
H  H41  1  0.54213490  0.68373288  0.62799742  1  0.06529  0  0.094651  0.11186  0  1.018198  0
H  H42  1  0.44742858  0.73216178  0.60931139  1  0.006789  0  0.089811  0.094144  0  0.996242  0
H  H43  1  0.62668417  0.27952902  0.54736464  1  0.4531  0  0.290061  0.240601  0  1.042325  0
H  H44  1  0.72633315  0.19271036  0.59394791  1  -0.013043  0  0.097616  0.095339  0  1.002929  0
H  H45  1  0.71782552  0.15251604  0.50465553  1  0.014802  0  0.086452  0.081558  0  0.995951  0
H  H46  1  0.18415076  0.59825502  0.67399783  1  0.018234  0  0.088083  0.079818  0  1.005036  0
H  H47  1  0.66066205  0.10865451  0.57356665  1  0.043654  0  0.095905  0.09776  0  0.987014  0
H  H48  1  0.37682512  0.27898898  0.41889122  1  0.033506  0  0.095809  0.102744  0  1.028291  0
H  H49  1  0.48191121  0.68840687  0.35664316  1  0.052043  0  0.097748  0.109169  0  1.031621  0
H  H50  1  0.39169955  0.91672174  0.39886591  1  0.420478  0  0.288028  0.224198  0  0.989223  0
H  H51  1  0.29604893  0.95679134  0.48180415  1  0.007921  0  0.093703  0.098695  0  0.990114  0
H  H52  1  0.34479755  0.05318314  0.48877570  1  0.046011  0  0.096056  0.106617  0  1.00813  0
H  H53  1  0.39598708  0.96899677  0.52560989  1  0.017792  0  0.075757  0.069317  0  1.015654  0
H  H54  1  0.60039993  0.06055079  0.33933346  1  0.424119  0  0.301234  0.242742  0  0.958349  0
H  H55  1  0.72216597  0.98781245  0.31766528  1  0.032659  0  0.095441  0.099376  0  0.989365  0
H  H56  1  0.64315513  0.94362651  0.25900411  1  0.047332  0  0.081354  0.075635  0  1.015773  0
H  H57  1  0.18870638  0.67993808  0.61399893  1  0.047563  0  0.099908  0.102578  0  0.980736  0
H  H58  1  0.66980619  0.89816800  0.34182214  1  0.056045  0  0.09909  0.108246  0  1.005631  0
H  H59  1  0.48206366  0.76127457  0.25898300  1  0.441344  0  0.298942  0.240985  0  0.962435  0
H  H60  1  0.45866336  0.86405146  0.18376692  1  0.030145  0  0.102066  0.108461  0  0.984519  0
H  H61  1  0.50603486  0.93548725  0.24476376  1  0.033149  0  0.095446  0.100873  0  1.029675  0
H  H62  1  0.40550611  0.89740782  0.25970645  1  0.00213  0  0.088625  0.089878  0  1.003625  0
H  H63  1  0.31236652  0.19298452  0.34358966  1  0.394237  0  0.292728  0.226918  0  0.969488  0
H  H64  1  0.29646455  0.10415482  0.25080689  1  0.034716  0  0.094757  0.099443  0  0.988413  0
H  H65  1  0.36085466  0.03458861  0.29496581  1  0.068909  0  0.090466  0.092511  0  1.06926  0
H  H66  1  0.40566296  0.12078068  0.25433350  1  0.020726  0  0.078673  0.073351  0  1.006444  0
H  H67  1  0.58666394  0.07977362  0.47266493  1  0.046122  0  0.093727  0.094585  0  1.070363  0
H  H68  1  0.67038163  0.62773224  0.47988514  1  0.525446  0  0.300372  0.268198  0  1.021055  0
H  H69  1  0.55726865  0.92715195  0.50420445  1  0.03222  0  0.097376  0.101169  0  1.022785  0
H  H70  1  0.73493359  0.72724534  0.41841926  1  0.082749  0  0.111526  0.122463  0  0.975213  0
H  H71  1  0.81453791  0.66257226  0.39419330  1  -0.004938  0  0.09119  0.08512  0  1.000911  0
C  C72  1  0.50616770  0.64935967  0.49019344  1  1.576537  0  0.220199  0.614374  0  4.156248  0
C  C73  1  0.47374054  0.10099667  0.41451468  1  -0.015503  0  -0.01921  -0.00748  0  3.993609  0
C  C74  1  0.51112286  0.81485857  0.35389966  1  0.355382  0  0.073563  0.152913  0  4.090202  0
C  C75  1  0.41327732  0.15819056  0.39753147  1  0.331233  0  0.072119  0.151904  0  4.070697  0
C  C76  1  0.50120677  0.74140748  0.38859792  1  -0.035321  0  -0.11049  -0.215806  0  4.00128  0
C  C77  1  0.42255390  0.23391099  0.43058296  1  0.092772  0  -0.104988  -0.19855  0  4.019093  0
C  C78  1  0.53097946  0.96945009  0.37809994  1  0.350675  0  0.063742  0.050959  0  4.059787  0
C  C79  1  0.46628029  0.01436353  0.39777662  1  0.391149  0  0.046586  0.018042  0  4.054928  0
C  C80  1  0.23380332  0.53858612  0.54268915  1  0.977243  0  0.214385  0.362253  0  4.086952  0
C  C81  1  0.76406363  0.55074358  0.49503333  1  0.999885  0  0.213904  0.361973  0  4.086163  0
C  C82  1  0.14795864  0.53211755  0.53104935  1  -0.061496  0  -0.108601  -0.29803  0  3.973776  0
C  C83  1  0.49324082  0.34019393  0.50556063  1  1.515331  0  0.212817  0.610994  0  4.145149  0
C  C84  1  0.84919424  0.53827078  0.49727176  1  -0.080032  0  -0.111411  -0.30542  0  3.97834  0
C  C85  1  0.11092144  0.47793036  0.48064116  1  -0.016075  0  -0.001077  0.023856  0  3.99732  0
C  C86  1  0.88299440  0.46870330  0.52563183  1  0.029587  0  -0.001663  0.027041  0  3.995199  0
C  C87  1  0.49339536  0.49894381  0.37421414  1  1.582312  0  0.210367  0.586928  0  4.177156  0
C  C88  1  0.49681439  0.51778741  0.65125134  1  1.562404  0  0.220196  0.594971  0  4.16524  0
C  C89  1  0.16286318  0.42948400  0.44024688  1  0.416344  0  0.076882  0.104721  0  4.066388  0
C  C90  1  0.82814291  0.40989933  0.55258954  1  0.414097  0  0.076268  0.105979  0  4.065101  0
C  C91  1  0.24742982  0.44124263  0.45372702  1  0.46166  0  0.038048  0.001573  0  3.96211  0
C  C92  1  0.74508283  0.42823532  0.55062979  1  0.489437  0  0.034191  -0.003946  0  3.970432  0
C  C93  1  0.02014522  0.47521684  0.47222922  1  0.410391  0  0.070514  0.049592  0  4.041837  0
C  C94  1  0.51481959  0.73241398  0.46233405  1  0.033331  0  -0.031735  -0.114395  0  3.980416  0
C  C95  1  0.97329643  0.46269097  0.53061787  1  0.324682  0  0.065607  0.039552  0  4.043275  0
C  C96  1  0.57583620  0.56321473  0.28111200  1  -0.031226  0  -0.097917  -0.215659  0  3.954329  0
C  C97  1  0.42540984  0.53021046  0.76666506  1  -0.049271  0  -0.101802  -0.223654  0  3.966018  0
C  C98  1  0.58527535  0.60178083  0.21531825  1  0.404695  0  0.108835  0.210602  0  4.053531  0
C  C99  1  0.42488746  0.54294059  0.84153553  1  0.381726  0  0.107305  0.210915  0  4.04752  0
C  C100  1  0.51590446  0.60086311  0.16565823  1  -0.018616  0  -0.023499  -0.100434  0  3.981218  0
C  C101  1  0.50011997  0.56873647  0.87801970  1  0.054293  0  -0.018781  -0.090818  0  3.959495  0
C  C102  1  0.43908162  0.57116192  0.18798174  1  -0.057446  0  -0.093903  -0.108764  0  4.038289  0
C  C103  1  0.57273505  0.57211289  0.83936892  1  -0.075773  0  -0.088436  -0.095  0  4.017336  0
C  C104  1  0.43040132  0.53752521  0.25423141  1  -0.00811  0  -0.107931  -0.140184  0  4.037064  0
C  C105  1  0.48890916  0.25682613  0.47710602  1  -0.011517  0  -0.037115  -0.132778  0  3.984853  0
C  C106  1  0.57245411  0.55528804  0.76702073  1  -0.031352  0  -0.104274  -0.133586  0  4.025802  0
C  C107  1  0.50061173  0.53157542  0.30047695  1  -0.022338  0  -0.016693  0.000743  0  3.995528  0
C  C108  1  0.49729139  0.53557845  0.72992524  1  0.019844  0  -0.01619  -0.001114  0  4.008368  0
C  C109  1  0.50821908  0.59607032  0.95258491  1  0.900336  0  0.224797  0.239961  0  4.024938  0
C  C110  1  0.51958956  0.61749067  0.08984577  1  0.939443  0  0.224844  0.244948  0  4.039622  0
C  C111  1  0.22594858  0.63523141  0.64220907  1  0.275191  0  -0.131017  -0.199463  0  4.011631  0
C  C112  1  0.77734375  0.68218207  0.43865056  1  0.320679  0  -0.130991  -0.197541  0  4.007669  0
C  C113  1  0.98623078  0.47394275  0.66194480  1  0.305906  0  -0.142862  -0.211695  0  3.997586  0
C  C114  1  0.01468920  0.53605054  0.35317963  1  0.313296  0  -0.141762  -0.214813  0  3.997334  0
C  C115  1  0.07634011  0.30959568  0.40623108  1  0.20001  0  -0.147446  -0.218438  0  3.993734  0
C  C116  1  0.53854395  0.79936135  0.50620965  1  0.33883  0  0.076796  0.183162  0  4.110785  0
C  C117  1  0.90150278  0.28347363  0.54033977  1  0.291348  0  -0.146568  -0.219837  0  3.997779  0
C  C118  1  0.67242124  0.70934897  0.16105740  1  0.286695  0  -0.139558  -0.2188  0  3.998259  0
C  C119  1  0.34415763  0.49715728  0.94559820  1  0.315647  0  -0.136702  -0.214107  0  3.985921  0
C  C120  1  0.51288338  0.74198300  0.62628316  1  0.273202  0  -0.146699  -0.216508  0  3.99149  0
C  C121  1  0.68327549  0.16610801  0.55273632  1  0.377952  0  -0.135447  -0.19254  0  4.037562  0
C  C122  1  0.35549577  0.98928700  0.48061709  1  0.271842  0  -0.149214  -0.21055  0  4.00155  0
C  C123  1  0.66209042  0.95600525  0.31579708  1  0.264123  0  -0.143429  -0.212094  0  4.02861  0
C  C124  1  0.46618250  0.88147995  0.24052410  1  0.335161  0  -0.14368  -0.216599  0  4.002114  0
C  C125  1  0.35301551  0.09825912  0.28435469  1  0.264741  0  -0.15077  -0.217022  0  4.022064  0
C  C126  1  0.55174641  0.20097942  0.49198517  1  0.373744  0  0.085095  0.209011  0  4.089246  0
C  C127  1  0.54377873  0.87301136  0.47180053  1  -0.021032  0  -0.108611  -0.238525  0  4.017206  0
C  C128  1  0.54159210  0.12493916  0.46013388  1  -0.047557  0  -0.119524  -0.263592  0  4.009164  0
C  C129  1  0.52998907  0.88322191  0.39802461  1  0.025953  0  -0.022306  -0.029908  0  4.011012  0
N  N130  1  0.58988751  0.60475254  0.05550670  1  -0.572438  0  -0.154913  -0.136037  0  3.260402  0
N  N131  1  0.98577248  0.47593864  0.40229660  1  -1.114817  0  -0.456183  -0.289869  0  3.571434  0
N  N132  1  0.13498218  0.37299046  0.38764667  1  -1.103188  0  -0.461446  -0.313527  0  3.522917  0
N  N133  1  0.85195157  0.33696179  0.58197136  1  -1.111391  0  -0.461705  -0.311414  0  3.534988  0
N  N134  1  0.65961974  0.63967848  0.20492535  1  -1.183346  0  -0.435428  -0.274999  0  3.596765  0
N  N135  1  0.35183961  0.52714586  0.87368986  1  -1.175929  0  -0.44061  -0.284069  0  3.583265  0
N  N136  1  0.55533564  0.79719227  0.57998004  1  -1.151688  0  -0.462885  -0.316441  0  3.55128  0
N  N137  1  0.61681285  0.21962370  0.53977019  1  -1.236562  0  -0.465618  -0.313432  0  3.621179  0
N  N138  1  0.38948416  0.97627418  0.41065582  1  -1.112869  0  -0.466861  -0.312402  0  3.53832  0
N  N139  1  0.60466107  0.00271298  0.35458757  1  -1.176066  0  -0.458558  -0.299909  0  3.605785  0
N  N140  1  0.50298708  0.81535436  0.27900180  1  -1.217759  0  -0.461938  -0.317196  0  3.545152  0
N  N141  1  0.44687546  0.63472189  0.98375566  1  -0.574584  0  -0.171015  -0.158224  0  3.250823  0
N  N142  1  0.34408299  0.14216350  0.35136021  1  -1.147039  0  -0.46509  -0.313787  0  3.537177  0
N  N143  1  0.58431487  0.59475848  0.98594617  1  -0.525301  0  -0.163142  -0.162179  0  3.241402  0
N  N144  1  0.45285191  0.64633461  0.05379030  1  -0.585804  0  -0.181672  -0.193811  0  3.239495  0
N  N145  1  0.28241454  0.49351430  0.50186595  1  -1.226803  0  -0.340925  -0.294593  0  3.51651  0
N  N146  1  0.71298095  0.49480700  0.52340887  1  -1.249312  0  -0.341531  -0.299955  0  3.508968  0
N  N147  1  0.27146440  0.58848624  0.59312332  1  -1.222761  0  -0.445256  -0.32081  0  3.584377  0
N  N148  1  0.72938570  0.61654364  0.46585880  1  -1.260711  0  -0.443919  -0.319208  0  3.576529  0
N  N149  1  0.00756505  0.43498411  0.59550082  1  -1.131301  0  -0.459068  -0.294192  0  3.569837  0
O  O150  1  0.57176450  0.61834362  0.51620832  1  -1.18424  0  -0.307973  -0.552644  0  2.35631  0
O  O151  1  0.42613629  0.37687471  0.51016408  1  -1.170584  0  -0.324763  -0.555385  0  2.34786  0
O  O152  1  0.43599529  0.61466150  0.48427471  1  -1.159949  0  -0.309418  -0.537666  0  2.319318  0
O  O153  1  0.56478040  0.37162958  0.52234457  1  -1.177648  0  -0.322621  -0.567269  0  2.348408  0
O  O154  1  0.56034248  0.49471397  0.41207413  1  -1.172929  0  -0.323163  -0.560644  0  2.352597  0
O  O155  1  0.42821568  0.51992604  0.61516614  1  -1.186075  0  -0.313898  -0.563927  0  2.359102  0
O  O156  1  0.42172134  0.48179125  0.39427090  1  -1.168138  0  -0.317675  -0.542682  0  2.29782  0
O  O157  1  0.56556387  0.50206604  0.62623264  1  -1.150672  0  -0.310107  -0.532456  0  2.342557  0
