# generated using pymatgen
data_CdH8C12(NO2)2
_symmetry_space_group_name_H-M   'P 1'
_cell_length_a   7.75225024
_cell_length_b   8.06619002
_cell_length_c   19.46470000
_cell_angle_alpha   90.00000000
_cell_angle_beta   90.00000000
_cell_angle_gamma   90.00000000
_symmetry_Int_Tables_number   1
_chemical_formula_structural   CdH8C12(NO2)2
_chemical_formula_sum   'Cd4 H32 C48 N8 O16'
_cell_volume   1217.14956134
_cell_formula_units_Z   4
loop_
 _symmetry_equiv_pos_site_id
 _symmetry_equiv_pos_as_xyz
  1  'x, y, z'
loop_
 _atom_site_type_symbol
 _atom_site_label
 _atom_site_symmetry_multiplicity
 _atom_site_fract_x
 _atom_site_fract_y
 _atom_site_fract_z
 _atom_site_occupancy
 _atom_site_hle17_bader_spin_density
 _atom_site_hle17_ddec_charge
 _atom_site_hle17_ddec_spin_density
 _atom_site_hle17_ddec_sum_bond_order
 _atom_site_hle17_magmom
 _atom_site_hse06_10hf_bader_spin_density
 _atom_site_hse06_10hf_ddec_charge
 _atom_site_hse06_10hf_ddec_spin_density
 _atom_site_hse06_10hf_ddec_sum_bond_order
 _atom_site_hse06_10hf_magmom
 _atom_site_hse06_bader_spin_density
 _atom_site_hse06_ddec_charge
 _atom_site_hse06_ddec_spin_density
 _atom_site_hse06_ddec_sum_bond_order
 _atom_site_hse06_magmom
 _atom_site_pbe_bader_charge
 _atom_site_pbe_bader_spin_density
 _atom_site_pbe_cm5_charge
 _atom_site_pbe_ddec_charge
 _atom_site_pbe_ddec_spin_density
 _atom_site_pbe_ddec_sum_bond_order
 _atom_site_pbe_magmom
Cd  Cd0  1  0.00973266  0.03224571  0.01062642  1  0  1.14108  0  1.652491  0  0  0.941609  0  2.090668  0  0  1.001951  0  2.038055  0  1.267091  0  0.787972  0.89842  0  2.12681  0
Cd  Cd1  1  0.50973587  0.96775181  0.98937256  1  0  1.141051  0  1.652462  0  0  0.941591  0  2.090626  0  0  1.00193  0  2.038016  0  1.267209  0  0.787962  0.898401  0  2.126768  0
Cd  Cd2  1  0.50973200  0.46775243  0.51062744  1  0  1.141078  0  1.652445  0  0  0.941627  0  2.090612  0  0  1.001967  0  2.037999  0  1.267121  0  0.787966  0.898441  0  2.126755  0
Cd  Cd3  1  0.00973395  0.53224757  0.48937461  1  0  1.141077  0  1.652397  0  0  0.941629  0  2.090567  0  0  1.001968  0  2.037955  0  1.267127  0  0.787973  0.898442  0  2.126711  0
H  H4  1  0.28986293  0.29836887  0.95399775  1  0  0.092929  0  0.97661  0  0  0.098113  0  1.046749  0  0  0.101537  0  1.043368  0  0.147889  0  0.113155  0.095583  0  1.049249  0
H  H5  1  0.78985711  0.70161873  0.04600020  1  0  0.093002  0  0.976489  0  0  0.098166  0  1.04666  0  0  0.101592  0  1.043271  0  0.147913  0  0.113208  0.095638  0  1.049159  0
H  H6  1  0.78986356  0.20163051  0.45400032  1  0  0.09294  0  0.976521  0  0  0.098117  0  1.04667  0  0  0.101539  0  1.043292  0  0.147803  0  0.113182  0.095591  0  1.049167  0
H  H7  1  0.28985906  0.79838065  0.54600071  1  0  0.092976  0  0.976467  0  0  0.098139  0  1.046641  0  0  0.101565  0  1.043253  0  0.1479  0  0.113176  0.095608  0  1.04914  0
H  H8  1  0.29767615  0.55126398  0.88126557  1  0  0.107409  0  0.9364  0  0  0.118235  0  0.9936  0  0  0.12108  0  0.993361  0  0.093983  0  0.110965  0.116227  0  0.993895  0
H  H9  1  0.79765743  0.44872486  0.11873340  1  0  0.107462  0  0.936484  0  0  0.118317  0  0.993622  0  0  0.121162  0  0.993384  0  0.094096  0  0.111012  0.116314  0  0.993919  0
H  H10  1  0.79768452  0.94874284  0.38126403  1  0  0.10745  0  0.936364  0  0  0.118246  0  0.9936  0  0  0.121095  0  0.99336  0  0.09392  0  0.110975  0.116239  0  0.993893  0
H  H11  1  0.29766712  0.05127204  0.61873443  1  0  0.10748  0  0.936348  0  0  0.118246  0  0.993599  0  0  0.121088  0  0.993366  0  0.094078  0  0.110997  0.116245  0  0.993895  0
H  H12  1  0.01794705  0.68104024  0.84409418  1  0  0.098703  0  0.951143  0  0  0.11183  0  1.006352  0  0  0.114083  0  1.005198  0  0.10807  0  0.110537  0.11017  0  1.007255  0
H  H13  1  0.51792704  0.31896224  0.15590736  1  0  0.098705  0  0.951171  0  0  0.111841  0  1.006359  0  0  0.114094  0  1.005205  0  0.108078  0  0.110566  0.110184  0  1.007255  0
H  H14  1  0.51795542  0.81896781  0.34408904  1  0  0.098762  0  0.951079  0  0  0.111879  0  1.006312  0  0  0.114133  0  1.005155  0  0.10801  0  0.110533  0.110217  0  1.007215  0
H  H15  1  0.01793673  0.18103962  0.65590942  1  0  0.098698  0  0.951259  0  0  0.11182  0  1.006487  0  0  0.114073  0  1.005335  0  0.108055  0  0.110558  0.110162  0  1.007384  0
H  H16  1  0.73934533  0.55052881  0.88467174  1  0  0.11247  0  0.941257  0  0  0.121352  0  1.002071  0  0  0.124698  0  1.001137  0  0.125447  0  0.110139  0.11895  0  1.002915  0
H  H17  1  0.23932793  0.44948110  0.11532980  1  0  0.112486  0  0.941341  0  0  0.12143  0  1.002063  0  0  0.124782  0  1.001118  0  0.125297  0  0.11014  0.119029  0  1.002906  0
H  H18  1  0.23935244  0.94947304  0.38466814  1  0  0.112454  0  0.941351  0  0  0.121355  0  1.002153  0  0  0.124701  0  1.001219  0  0.125392  0  0.110122  0.118954  0  1.002996  0
H  H19  1  0.73933630  0.05052447  0.61533134  1  0  0.112431  0  0.941351  0  0  0.121406  0  1.002065  0  0  0.124753  0  1.001129  0  0.125256  0  0.110142  0.119005  0  1.002909  0
H  H20  1  0.29132444  0.14253322  0.25490246  1  0  0.114122  0  0.941356  0  0  0.123  0  1.000806  0  0  0.126643  0  0.999479  0  0.098872  0  0.109796  0.120372  0  1.001878  0
H  H21  1  0.79132507  0.85747050  0.74509599  1  0  0.114156  0  0.94131  0  0  0.12303  0  1.000774  0  0  0.126672  0  0.999447  0  0.098879  0  0.109836  0.1204  0  1.001848  0
H  H22  1  0.79132378  0.35746120  0.75490246  1  0  0.114134  0  0.941358  0  0  0.123045  0  1.000772  0  0  0.126689  0  0.999443  0  0.098912  0  0.109846  0.120414  0  1.001847  0
H  H23  1  0.29131671  0.64253011  0.24509856  1  0  0.114063  0  0.941396  0  0  0.122999  0  1.000791  0  0  0.126643  0  0.999462  0  0.098976  0  0.109796  0.120369  0  1.001865  0
H  H24  1  0.01811087  0.17953953  0.32298212  1  0  0.113003  0  0.971557  0  0  0.120678  0  1.034079  0  0  0.124205  0  1.031365  0  0.162392  0  0.106741  0.118077  0  1.036077  0
H  H25  1  0.51810892  0.82046418  0.67701583  1  0  0.112965  0  0.971642  0  0  0.120681  0  1.034118  0  0  0.124211  0  1.031399  0  0.162363  0  0.106737  0.11808  0  1.036116  0
H  H26  1  0.51810763  0.32046108  0.82298212  1  0  0.112985  0  0.971566  0  0  0.120662  0  1.034086  0  0  0.124189  0  1.031373  0  0.162377  0  0.10675  0.118061  0  1.036085  0
H  H27  1  0.01810442  0.67953767  0.17701891  1  0  0.113008  0  0.9715  0  0  0.120727  0  1.033984  0  0  0.124258  0  1.031262  0  0.162435  0  0.106735  0.118126  0  1.035983  0
H  H28  1  0.73325161  0.13995331  0.26117484  1  0  0.10511  0  0.946906  0  0  0.116477  0  1.002298  0  0  0.119466  0  1.002017  0  0.093377  0  0.109191  0.114288  0  1.002658  0
H  H29  1  0.23324969  0.86004917  0.73882413  1  0  0.105121  0  0.946895  0  0  0.116502  0  1.002274  0  0  0.119474  0  1.002016  0  0.093339  0  0.109195  0.114318  0  1.002629  0
H  H30  1  0.23324840  0.36005351  0.76117536  1  0  0.105079  0  0.946941  0  0  0.116478  0  1.002308  0  0  0.119453  0  1.002042  0  0.093336  0  0.109187  0.114288  0  1.002669  0
H  H31  1  0.73324387  0.63994897  0.23882567  1  0  0.105039  0  0.946887  0  0  0.116435  0  1.002266  0  0  0.119409  0  1.002007  0  0.093408  0  0.10915  0.114254  0  1.002617  0
H  H32  1  0.73531166  0.07140546  0.13668949  1  0  0.097938  0  0.964799  0  0  0.103475  0  1.032988  0  0  0.106878  0  1.029343  0  0.182571  0  0.115327  0.100916  0  1.035743  0
H  H33  1  0.23530974  0.92859826  0.86330948  1  0  0.09802  0  0.964699  0  0  0.103491  0  1.032985  0  0  0.106895  0  1.029339  0  0.182612  0  0.115343  0.100944  0  1.035725  0
H  H34  1  0.23530716  0.42860260  0.63668949  1  0  0.098071  0  0.964669  0  0  0.103561  0  1.03291  0  0  0.106963  0  1.029269  0  0.182587  0  0.115369  0.101012  0  1.035652  0
H  H35  1  0.73530392  0.57139864  0.36331102  1  0  0.098026  0  0.96471  0  0  0.10352  0  1.03295  0  0  0.106923  0  1.02931  0  0.182526  0  0.115343  0.100974  0  1.035687  0
C  C36  1  0.17048340  0.35693555  0.93716317  1  0  0.13314  0  3.678461  0  0  0.10134  0  3.928556  0  0  0.107668  0  3.94666  0  0.442034  0  0.048136  0.097234  0  3.91626  0
C  C37  1  0.67047758  0.64305329  0.06283683  1  0  0.133161  0  3.678226  0  0  0.101352  0  3.92831  0  0  0.107683  0  3.946413  0  0.442286  0  0.048075  0.097241  0  3.916023  0
C  C38  1  0.67048661  0.14306630  0.43716420  1  0  0.133249  0  3.678264  0  0  0.10146  0  3.928384  0  0  0.107787  0  3.946491  0  0.442026  0  0.04819  0.09735  0  3.916089  0
C  C39  1  0.17047566  0.85694361  0.56283683  1  0  0.133091  0  3.678463  0  0  0.101294  0  3.928539  0  0  0.107624  0  3.946646  0  0.442141  0  0.048092  0.097188  0  3.916244  0
C  C40  1  0.17403205  0.49838523  0.89613300  1  0  -0.095555  0  3.704778  0  0  -0.109525  0  3.958993  0  0  -0.114944  0  3.97866  0  -0.057601  0  -0.075501  -0.106092  0  3.94582  0
C  C41  1  0.67401591  0.50160609  0.10386700  1  0  -0.095637  0  3.705275  0  0  -0.109604  0  3.959482  0  0  -0.115026  0  3.979148  0  -0.057987  0  -0.075497  -0.106182  0  3.946322  0
C  C42  1  0.67403784  0.00162034  0.39613300  1  0  -0.095631  0  3.704816  0  0  -0.109572  0  3.95906  0  0  -0.114996  0  3.978733  0  -0.057436  0  -0.07549  -0.10614  0  3.945885  0
C  C43  1  0.17402431  0.99838957  0.60386649  1  0  -0.0956  0  3.704804  0  0  -0.109482  0  3.959006  0  0  -0.114902  0  3.978672  0  -0.057812  0  -0.075498  -0.10606  0  3.945844  0
C  C44  1  0.01866813  0.56994194  0.87584191  1  0  0.005867  0  3.690567  0  0  -0.013734  0  3.940979  0  0  -0.010035  0  3.957868  0  -0.021125  0  -0.060919  -0.015983  0  3.929469  0
C  C45  1  0.51866489  0.43005930  0.12415861  1  0  0.005852  0  3.690722  0  0  -0.013787  0  3.941128  0  0  -0.010088  0  3.958018  0  -0.021524  0  -0.061003  -0.016034  0  3.929617  0
C  C46  1  0.51867521  0.93006363  0.37583934  1  0  0.005811  0  3.690481  0  0  -0.013798  0  3.940958  0  0  -0.0101  0  3.95785  0  -0.02176  0  -0.060986  -0.016045  0  3.929448  0
C  C47  1  0.01865781  0.06994380  0.62416066  1  0  0.005894  0  3.690629  0  0  -0.013765  0  3.941114  0  0  -0.010065  0  3.958002  0  -0.021007  0  -0.060996  -0.01601  0  3.929597  0
C  C48  1  0.86458509  0.49894808  0.89812995  1  0  -0.101344  0  3.688584  0  0  -0.123259  0  3.936364  0  0  -0.128333  0  3.956633  0  0.011602  0  -0.072366  -0.120027  0  3.922953  0
C  C49  1  0.36457156  0.50105812  0.10187108  1  0  -0.101431  0  3.688367  0  0  -0.123271  0  3.936144  0  0  -0.128345  0  3.956409  0  0.012274  0  -0.072292  -0.12004  0  3.922733  0
C  C50  1  0.36459091  0.00105378  0.39812738  1  0  -0.101189  0  3.688611  0  0  -0.123183  0  3.9364  0  0  -0.128258  0  3.95667  0  0.012255  0  -0.072294  -0.11995  0  3.922994  0
C  C51  1  0.86457735  0.99894622  0.60187159  1  0  -0.101331  0  3.688641  0  0  -0.123337  0  3.936411  0  0  -0.128412  0  3.956679  0  0.011663  0  -0.072344  -0.120105  0  3.923001  0
C  C52  1  0.87068268  0.35775130  0.93945090  1  0  0.103173  0  3.732573  0  0  0.10858  0  3.96713  0  0  0.109814  0  3.988307  0  0.48838  0  0.111719  0.107567  0  3.953046  0
C  C53  1  0.37067302  0.64225613  0.06054910  1  0  0.103362  0  3.732442  0  0  0.108457  0  3.967362  0  0  0.109692  0  3.988536  0  0.488285  0  0.111678  0.107447  0  3.953277  0
C  C54  1  0.37068721  0.14224683  0.43944936  1  0  0.103047  0  3.732699  0  0  0.108635  0  3.967046  0  0  0.109869  0  3.988222  0  0.488433  0  0.111735  0.107607  0  3.952991  0
C  C55  1  0.87067623  0.85775440  0.56055115  1  0  0.10308  0  3.73265  0  0  0.108584  0  3.967115  0  0  0.109819  0  3.988292  0  0.488494  0  0.111734  0.107572  0  3.953033  0
C  C56  1  0.70645423  0.27337938  0.96280857  1  0  0.600689  0  3.952643  0  0  0.547826  0  4.250104  0  0  0.581047  0  4.244908  0  1.571757  0  0.195509  0.525325  0  4.25274  0
C  C57  1  0.20645231  0.72662930  0.03719091  1  0  0.600717  0  3.952624  0  0  0.547944  0  4.250058  0  0  0.581163  0  4.244856  0  1.571755  0  0.195539  0.525442  0  4.2527  0
C  C58  1  0.20645747  0.22661876  0.46280857  1  0  0.600855  0  3.95245  0  0  0.547955  0  4.249907  0  0  0.581179  0  4.244712  0  1.571549  0  0.195623  0.525456  0  4.252541  0
C  C59  1  0.70645165  0.77337752  0.53719143  1  0  0.600803  0  3.952689  0  0  0.547879  0  4.250191  0  0  0.5811  0  4.244996  0  1.571696  0  0.195535  0.525374  0  4.252829  0
C  C60  1  0.15579605  0.09384976  0.16094417  1  0  0.103841  0  3.737533  0  0  0.109757  0  3.972117  0  0  0.11146  0  3.992882  0  0.427592  0  0.110205  0.108445  0  3.958265  0
C  C61  1  0.65579410  0.90615272  0.83905480  1  0  0.103671  0  3.737622  0  0  0.109612  0  3.972198  0  0  0.11131  0  3.992974  0  0.427632  0  0.110122  0.108298  0  3.958343  0
C  C62  1  0.65579410  0.40615086  0.66094314  1  0  0.103852  0  3.737671  0  0  0.109791  0  3.97224  0  0  0.111491  0  3.993008  0  0.427547  0  0.110239  0.108475  0  3.958389  0
C  C63  1  0.15578831  0.59384542  0.33905634  1  0  0.103882  0  3.737761  0  0  0.10983  0  3.972317  0  0  0.111531  0  3.993089  0  0.427045  0  0.110249  0.108518  0  3.958459  0
C  C64  1  0.16501144  0.13023745  0.23094679  1  0  -0.116719  0  3.706766  0  0  -0.137033  0  3.950497  0  0  -0.142997  0  3.971694  0  0.060143  0  -0.077081  -0.133209  0  3.936385  0
C  C65  1  0.66500820  0.86976627  0.76905115  1  0  -0.116623  0  3.706691  0  0  -0.136955  0  3.950445  0  0  -0.142921  0  3.971648  0  0.059948  0  -0.07707  -0.13313  0  3.936331  0
C  C66  1  0.66500562  0.36975945  0.73094679  1  0  -0.116775  0  3.706838  0  0  -0.13713  0  3.950573  0  0  -0.143097  0  3.971776  0  0.060203  0  -0.077139  -0.133303  0  3.936461  0
C  C67  1  0.16500499  0.63023311  0.26905424  1  0  -0.116701  0  3.707026  0  0  -0.137073  0  3.950785  0  0  -0.143041  0  3.971988  0  0.060161  0  -0.07711  -0.133247  0  3.93667  0
C  C68  1  0.01276017  0.15022830  0.26822042  1  0  -0.01303  0  3.708947  0  0  -0.031099  0  3.958969  0  0  -0.028329  0  3.977647  0  -0.107251  0  -0.067582  -0.032657  0  3.946189  0
C  C69  1  0.51275693  0.84977666  0.73177855  1  0  -0.01301  0  3.70899  0  0  -0.031093  0  3.959003  0  0  -0.028323  0  3.977675  0  -0.107008  0  -0.067576  -0.032652  0  3.946224  0
C  C70  1  0.51275435  0.34977232  0.76822042  1  0  -0.012942  0  3.708927  0  0  -0.030999  0  3.958974  0  0  -0.02823  0  3.977649  0  -0.107252  0  -0.067585  -0.032558  0  3.946194  0
C  C71  1  0.01275243  0.65022272  0.23178061  1  0  -0.013027  0  3.708925  0  0  -0.031158  0  3.959027  0  0  -0.028386  0  3.977695  0  -0.10717  0  -0.067577  -0.032718  0  3.946249  0
C  C72  1  0.85582764  0.12844106  0.23427178  1  0  -0.112528  0  3.722952  0  0  -0.125203  0  3.971974  0  0  -0.131751  0  3.993228  0  -0.023119  0  -0.079616  -0.120977  0  3.957632  0
C  C73  1  0.35582443  0.87156266  0.76572616  1  0  -0.112534  0  3.722744  0  0  -0.125234  0  3.971779  0  0  -0.131767  0  3.993042  0  -0.023181  0  -0.079603  -0.121014  0  3.957441  0
C  C74  1  0.35582443  0.37156328  0.73427435  1  0  -0.112501  0  3.722766  0  0  -0.125226  0  3.971788  0  0  -0.131759  0  3.993043  0  -0.023668  0  -0.079609  -0.121001  0  3.957451  0
C  C75  1  0.85581990  0.62843548  0.26572976  1  0  -0.112368  0  3.722782  0  0  -0.125077  0  3.971803  0  0  -0.131612  0  3.993069  0  -0.023952  0  -0.079548  -0.120858  0  3.957463  0
C  C76  1  0.85600952  0.09013549  0.16441969  1  0  0.130198  0  3.684023  0  0  0.099718  0  3.934416  0  0  0.106734  0  3.951934  0  0.390216  0  0.047199  0.095141  0  3.922474  0
C  C77  1  0.35600889  0.90986823  0.83557979  1  0  0.130144  0  3.683838  0  0  0.099701  0  3.934286  0  0  0.106718  0  3.951802  0  0.390727  0  0.047187  0.095115  0  3.922341  0
C  C78  1  0.35600889  0.40987009  0.66441918  1  0  0.130055  0  3.683808  0  0  0.099633  0  3.934218  0  0  0.10665  0  3.951733  0  0.391222  0  0.047189  0.095049  0  3.92227  0
C  C79  1  0.85600307  0.59012867  0.33558185  1  0  0.130062  0  3.683917  0  0  0.099646  0  3.934316  0  0  0.10666  0  3.951834  0  0.391429  0  0.047198  0.09506  0  3.922371  0
C  C80  1  0.31889063  0.07169928  0.11910998  1  0  0.599976  0  3.961871  0  0  0.547527  0  4.262845  0  0  0.58071  0  4.256402  0  1.601041  0  0.194564  0.525  0  4.266342  0
C  C81  1  0.81888868  0.92829948  0.88088899  1  0  0.599948  0  3.962103  0  0  0.547496  0  4.263055  0  0  0.58068  0  4.256619  0  1.600997  0  0.194575  0.52497  0  4.266546  0
C  C82  1  0.81888481  0.42829638  0.61910946  1  0  0.599961  0  3.961821  0  0  0.547503  0  4.262808  0  0  0.58069  0  4.25637  0  1.600775  0  0.19457  0.524977  0  4.266299  0
C  C83  1  0.31888418  0.57169990  0.38089002  1  0  0.600022  0  3.962042  0  0  0.547568  0  4.262992  0  0  0.580754  0  4.256552  0  1.601045  0  0.194594  0.525041  0  4.266483  0
N  N84  1  0.02182979  0.28788809  0.95794644  1  0  -0.343188  0  3.273973  0  0  -0.268475  0  3.529583  0  0  -0.287996  0  3.549072  0  -1.220182  0  -0.326109  -0.255038  0  3.516135  0
N  N85  1  0.52182010  0.71210943  0.04205305  1  0  -0.343322  0  3.273774  0  0  -0.26851  0  3.529444  0  0  -0.288033  0  3.548931  0  -1.220171  0  -0.326152  -0.255074  0  3.515999  0
N  N86  1  0.52183171  0.21211129  0.45794695  1  0  -0.343323  0  3.274003  0  0  -0.268665  0  3.529598  0  0  -0.288188  0  3.549087  0  -1.220195  0  -0.326228  -0.255222  0  3.516156  0
N  N87  1  0.02182463  0.78789242  0.54205408  1  0  -0.343125  0  3.273953  0  0  -0.268429  0  3.529495  0  0  -0.287954  0  3.548987  0  -1.220259  0  -0.326091  -0.254991  0  3.516044  0
N  N88  1  0.00314102  0.07561067  0.12832666  1  0  -0.348992  0  3.265101  0  0  -0.27505  0  3.522526  0  0  -0.294903  0  3.541605  0  -1.195402  0  -0.324191  -0.261448  0  3.50937  0
N  N89  1  0.50313907  0.92439429  0.87167231  1  0  -0.348983  0  3.265183  0  0  -0.275033  0  3.522588  0  0  -0.294888  0  3.541671  0  -1.195939  0  -0.324202  -0.26143  0  3.509435  0
N  N90  1  0.50313907  0.42439367  0.62832666  1  0  -0.349007  0  3.265141  0  0  -0.275071  0  3.522545  0  0  -0.294925  0  3.541626  0  -1.195911  0  -0.324249  -0.261467  0  3.50939  0
N  N91  1  0.00313457  0.57560385  0.37167385  1  0  -0.349049  0  3.265108  0  0  -0.275128  0  3.522524  0  0  -0.294982  0  3.541606  0  -1.195488  0  -0.324255  -0.261524  0  3.509369  0
O  O92  1  0.72041663  0.16811159  0.01248876  1  0  -0.669637  0  2.09393  0  0  -0.591273  0  2.355672  0  0  -0.624495  0  2.346385  0  -1.14668  0  -0.333258  -0.567728  0  2.360908  0
O  O93  1  0.22041213  0.83188841  0.98750918  1  0  -0.669655  0  2.093919  0  0  -0.59126  0  2.355586  0  0  -0.62448  0  2.346301  0  -1.146791  0  -0.333233  -0.567704  0  2.360793  0
O  O94  1  0.22041471  0.33188655  0.51248825  1  0  -0.669585  0  2.093781  0  0  -0.591274  0  2.355586  0  0  -0.624498  0  2.346299  0  -1.146656  0  -0.333247  -0.567739  0  2.360842  0
O  O95  1  0.72041147  0.66811220  0.48751227  1  0  -0.669609  0  2.093985  0  0  -0.591236  0  2.355742  0  0  -0.624459  0  2.346458  0  -1.146654  0  -0.333213  -0.567698  0  2.360995  0
O  O96  1  0.56926697  0.30481801  0.93145232  1  0  -0.594918  0  1.945325  0  0  -0.549739  0  2.174708  0  0  -0.573528  0  2.167307  0  -1.169943  0  -0.309806  -0.532821  0  2.179011  0
O  O97  1  0.06925860  0.69520306  0.06854973  1  0  -0.595021  0  1.94538  0  0  -0.549799  0  2.174651  0  0  -0.573619  0  2.167314  0  -1.169937  0  -0.309826  -0.532882  0  2.178959  0
O  O98  1  0.06926376  0.19517393  0.43145078  1  0  -0.595085  0  1.945185  0  0  -0.549874  0  2.174547  0  0  -0.573668  0  2.167152  0  -1.169707  0  -0.309902  -0.532954  0  2.178846  0
O  O99  1  0.56925665  0.80481987  0.56854819  1  0  -0.595082  0  1.945256  0  0  -0.549858  0  2.174614  0  0  -0.57366  0  2.167234  0  -1.169965  0  -0.309877  -0.532936  0  2.178918  0
O  O100  1  0.30569705  0.10737535  0.05457418  1  0  -0.669889  0  2.098606  0  0  -0.589633  0  2.361153  0  0  -0.622932  0  2.351314  0  -1.162467  0  -0.332007  -0.566069  0  2.366878  0
O  O101  1  0.80569510  0.89261845  0.94542479  1  0  -0.669877  0  2.098676  0  0  -0.589602  0  2.361202  0  0  -0.622889  0  2.351332  0  -1.162431  0  -0.331972  -0.566037  0  2.366923  0
O  O102  1  0.80569768  0.39262155  0.55457572  1  0  -0.66985  0  2.098694  0  0  -0.589599  0  2.361261  0  0  -0.622883  0  2.351387  0  -1.162459  0  -0.331996  -0.566036  0  2.366985  0
O  O103  1  0.30569318  0.60737969  0.44542634  1  0  -0.669969  0  2.098649  0  0  -0.589679  0  2.361172  0  0  -0.622968  0  2.3513  0  -1.162496  0  -0.33202  -0.566111  0  2.366893  0
O  O104  1  0.45166499  0.02141284  0.14888542  1  0  -0.593805  0  1.895845  0  0  -0.555496  0  2.114775  0  0  -0.577723  0  2.106635  0  -1.168725  0  -0.322731  -0.539667  0  2.119745  0
O  O105  1  0.95166304  0.97858344  0.85111458  1  0  -0.593791  0  1.895973  0  0  -0.555476  0  2.114907  0  0  -0.577705  0  2.106766  0  -1.168683  0  -0.322752  -0.53965  0  2.119878  0
O  O106  1  0.95166433  0.47859026  0.64888799  1  0  -0.593843  0  1.895563  0  0  -0.555527  0  2.114504  0  0  -0.577759  0  2.106364  0  -1.168421  0  -0.322761  -0.539698  0  2.119472  0
O  O107  1  0.45165854  0.52141965  0.35111510  1  0  -0.593811  0  1.895964  0  0  -0.555515  0  2.114912  0  0  -0.577745  0  2.106774  0  -1.168635  0  -0.322719  -0.539687  0  2.119882  0
