# generated using pymatgen
data_CdH8C8(SN2)2
_symmetry_space_group_name_H-M   'P 1'
_cell_length_a   8.46558535
_cell_length_b   8.27463469
_cell_length_c   8.27455435
_cell_angle_alpha   100.77931961
_cell_angle_beta   99.78286873
_cell_angle_gamma   99.78191417
_symmetry_Int_Tables_number   1
_chemical_formula_structural   CdH8C8(SN2)2
_chemical_formula_sum   'Cd2 H16 C16 S4 N8'
_cell_volume   548.81027462
_cell_formula_units_Z   2
loop_
 _symmetry_equiv_pos_site_id
 _symmetry_equiv_pos_as_xyz
  1  'x, y, z'
loop_
 _atom_site_type_symbol
 _atom_site_label
 _atom_site_symmetry_multiplicity
 _atom_site_fract_x
 _atom_site_fract_y
 _atom_site_fract_z
 _atom_site_occupancy
 _atom_site_hle17_bader_spin_density
 _atom_site_hle17_ddec_charge
 _atom_site_hle17_ddec_spin_density
 _atom_site_hle17_ddec_sum_bond_order
 _atom_site_hle17_magmom
 _atom_site_hse06_10hf_bader_spin_density
 _atom_site_hse06_10hf_ddec_charge
 _atom_site_hse06_10hf_ddec_spin_density
 _atom_site_hse06_10hf_ddec_sum_bond_order
 _atom_site_hse06_10hf_magmom
 _atom_site_hse06_bader_spin_density
 _atom_site_hse06_ddec_charge
 _atom_site_hse06_ddec_spin_density
 _atom_site_hse06_ddec_sum_bond_order
 _atom_site_hse06_magmom
 _atom_site_pbe_bader_spin_density
 _atom_site_pbe_cm5_charge
 _atom_site_pbe_ddec_charge
 _atom_site_pbe_ddec_spin_density
 _atom_site_pbe_ddec_sum_bond_order
 _atom_site_pbe_magmom
Cd  Cd0  1  0.74999800  0.29198485  0.70801392  1  0  0.978775  0  1.921084  0  0  0.814787  0  2.372187  0  0  0.857442  0  2.335614  0  0  0.719674  0.785236  0  2.396623  0
Cd  Cd1  1  0.25000436  0.70801647  0.29198599  1  0  0.97882  0  1.920952  0  0  0.814825  0  2.372062  0  0  0.857483  0  2.335488  0  0  0.719679  0.785273  0  2.396498  0
H  H2  1  0.88808575  0.06637183  0.53861074  1  0  0.305312  0  0.900342  0  0  0.295374  0  0.954863  0  0  0.300627  0  0.952008  0  0  0.297737  0.29167  0  0.95687  0
H  H3  1  0.61190882  0.46138972  0.93363350  1  0  0.305262  0  0.900347  0  0  0.295394  0  0.954821  0  0  0.300648  0  0.951965  0  0  0.297726  0.291693  0  0.956826  0
H  H4  1  0.11191275  0.93362831  0.46139311  1  0  0.305258  0  0.900458  0  0  0.295384  0  0.954925  0  0  0.300639  0  0.952069  0  0  0.297699  0.291682  0  0.956932  0
H  H5  1  0.38809233  0.53861167  0.06637226  1  0  0.305279  0  0.900347  0  0  0.295412  0  0.954818  0  0  0.300664  0  0.951962  0  0  0.297729  0.29171  0  0.956825  0
H  H6  1  0.97887069  0.24177480  0.49132833  1  0  0.289219  0  0.944719  0  0  0.271089  0  1.019018  0  0  0.277101  0  1.015387  0  0  0.27504  0.266797  0  1.021648  0
H  H7  1  0.52112297  0.50866816  0.75821826  1  0  0.289152  0  0.944697  0  0  0.271028  0  1.019005  0  0  0.27704  0  1.015375  0  0  0.274999  0.266738  0  1.02163  0
H  H8  1  0.02112913  0.75822026  0.50867122  1  0  0.289176  0  0.944694  0  0  0.271026  0  1.019047  0  0  0.277041  0  1.015412  0  0  0.274997  0.266735  0  1.021675  0
H  H9  1  0.47887793  0.49133193  0.24178239  1  0  0.28914  0  0.944709  0  0  0.271011  0  1.019027  0  0  0.277024  0  1.015397  0  0  0.274999  0.266721  0  1.021653  0
H  H10  1  0.24999636  0.38241535  0.61758754  1  0  0.11519  0  0.971934  0  0  0.129831  0  1.030043  0  0  0.132887  0  1.028902  0  0  0.091845  0.127568  0  1.031103  0
H  H11  1  0.75000307  0.61758354  0.38241747  1  0  0.115176  0  0.971821  0  0  0.129811  0  1.02995  0  0  0.132863  0  1.028817  0  0  0.091821  0.127552  0  1.031006  0
H  H12  1  0.99222018  0.98777481  0.80847098  1  0  0.107718  0  0.962707  0  0  0.117619  0  1.02736  0  0  0.120393  0  1.027047  0  0  0.095456  0.115647  0  1.027719  0
H  H13  1  0.50776709  0.19152232  0.01221695  1  0  0.107695  0  0.962903  0  0  0.117549  0  1.027605  0  0  0.120329  0  1.027283  0  0  0.095403  0.115526  0  1.02802  0
H  H14  1  0.00777818  0.01221898  0.19152568  1  0  0.107681  0  0.962887  0  0  0.11757  0  1.027548  0  0  0.120341  0  1.027235  0  0  0.09543  0.115582  0  1.027924  0
H  H15  1  0.49223182  0.80847397  0.98777783  1  0  0.107699  0  0.962931  0  0  0.117577  0  1.027592  0  0  0.12035  0  1.027278  0  0  0.095409  0.115564  0  1.027996  0
H  H16  1  0.24999787  0.99306603  0.00692442  1  0  0.090101  0  0.975431  0  0  0.100008  0  1.038336  0  0  0.101888  0  1.037845  0  0  0.095166  0.098662  0  1.038694  0
H  H17  1  0.75000489  0.00693146  0.99307005  1  0  0.090117  0  0.975377  0  0  0.100032  0  1.038284  0  0  0.101912  0  1.037795  0  0  0.095175  0.098691  0  1.038627  0
C  C18  1  0.46113027  0.11412600  0.34947007  1  0  0.330659  0  3.977263  0  0  0.31  0  4.278972  0  0  0.331432  0  4.29336  0  0  0.158257  0.295454  0  4.268874  0
C  C19  1  0.03885513  0.65053873  0.88586146  1  0  0.330536  0  3.977643  0  0  0.309865  0  4.279351  0  0  0.331298  0  4.293745  0  0  0.158093  0.295317  0  4.269253  0
C  C20  1  0.53886235  0.88586929  0.65054517  1  0  0.330631  0  3.976901  0  0  0.309975  0  4.278624  0  0  0.33141  0  4.293015  0  0  0.158143  0.295426  0  4.268526  0
C  C21  1  0.96113783  0.34946892  0.11412825  1  0  0.330543  0  3.978  0  0  0.309877  0  4.279701  0  0  0.331308  0  4.294094  0  0  0.158146  0.295331  0  4.269604  0
C  C22  1  0.10602383  0.18373426  0.69955603  1  0  0.290552  0  3.828788  0  0  0.290638  0  4.073398  0  0  0.29988  0  4.094681  0  0  0.0758  0.284406  0  4.058847  0
C  C23  1  0.39396909  0.30043568  0.81626244  1  0  0.290407  0  3.828987  0  0  0.290591  0  4.073484  0  0  0.299833  0  4.094768  0  0  0.075778  0.284366  0  4.058916  0
C  C24  1  0.89397720  0.81626074  0.30043889  1  0  0.290547  0  3.828953  0  0  0.29062  0  4.073573  0  0  0.299864  0  4.094857  0  0  0.075791  0.284389  0  4.05902  0
C  C25  1  0.60602980  0.69956063  0.18373476  1  0  0.290343  0  3.829182  0  0  0.290542  0  4.073647  0  0  0.299785  0  4.094931  0  0  0.075768  0.284315  0  4.059084  0
C  C26  1  0.24999750  0.29699411  0.70300097  1  0  -0.283182  0  3.687737  0  0  -0.304588  0  3.927714  0  0  -0.313403  0  3.947902  0  0  -0.116889  -0.298717  0  3.914252  0
C  C27  1  0.75000487  0.70300717  0.29699410  1  0  -0.28308  0  3.687656  0  0  -0.304484  0  3.927627  0  0  -0.313298  0  3.947822  0  0  -0.116814  -0.298615  0  3.914163  0
C  C28  1  0.10530818  0.07427192  0.80985934  1  0  -0.200768  0  3.734765  0  0  -0.222979  0  3.988051  0  0  -0.230424  0  4.00963  0  0  -0.115072  -0.218104  0  3.973532  0
C  C29  1  0.39468550  0.19013544  0.92572529  1  0  -0.200645  0  3.735124  0  0  -0.222852  0  3.98832  0  0  -0.230305  0  4.009903  0  0  -0.115037  -0.217933  0  3.97382  0
C  C30  1  0.89469498  0.92573318  0.19014139  1  0  -0.20074  0  3.735067  0  0  -0.222939  0  3.988332  0  0  -0.230385  0  4.009918  0  0  -0.115083  -0.218051  0  3.973821  0
C  C31  1  0.60531274  0.80986338  0.07426982  1  0  -0.200668  0  3.735134  0  0  -0.2229  0  3.988346  0  0  -0.230346  0  4.009929  0  0  -0.115052  -0.217989  0  3.973843  0
C  C32  1  0.24999964  0.07843324  0.92156269  1  0  -0.022004  0  3.795238  0  0  -0.036087  0  4.048669  0  0  -0.033613  0  4.069588  0  0  -0.090736  -0.037471  0  4.034305  0
C  C33  1  0.75000457  0.92156558  0.07844194  1  0  -0.02202  0  3.795313  0  0  -0.036121  0  4.048747  0  0  -0.033646  0  4.069664  0  0  -0.090728  -0.037501  0  4.034383  0
S  S34  1  0.60282181  0.28411588  0.38141347  1  0  -0.359557  0  2.163019  0  0  -0.325225  0  2.492885  0  0  -0.341732  0  2.48574  0  0  -0.140178  -0.313638  0  2.497519  0
S  S35  1  0.89718492  0.61859269  0.71589495  1  0  -0.359313  0  2.163746  0  0  -0.324968  0  2.493625  0  0  -0.341473  0  2.486483  0  0  -0.140019  -0.313381  0  2.498256  0
S  S36  1  0.39717947  0.71589187  0.61860069  1  0  -0.359432  0  2.1633  0  0  -0.325101  0  2.493168  0  0  -0.341608  0  2.486026  0  0  -0.140066  -0.313514  0  2.497798  0
S  S37  1  0.10281252  0.38140233  0.28409693  1  0  -0.359476  0  2.163593  0  0  -0.325144  0  2.49346  0  0  -0.341649  0  2.486319  0  0  -0.140097  -0.313552  0  2.498082  0
N  N38  1  0.35808110  0.99113061  0.32348687  1  0  -0.534467  0  2.859436  0  0  -0.478823  0  3.132651  0  0  -0.499643  0  3.140301  0  0  -0.387514  -0.464676  0  3.127296  0
N  N39  1  0.14191565  0.67650982  0.00886770  1  0  -0.534611  0  2.858975  0  0  -0.478954  0  3.132177  0  0  -0.499779  0  3.139832  0  0  -0.387549  -0.464804  0  3.126819  0
N  N40  1  0.64192406  0.00887830  0.67652093  1  0  -0.534595  0  2.858796  0  0  -0.478941  0  3.131989  0  0  -0.499767  0  3.139641  0  0  -0.387508  -0.464794  0  3.126636  0
N  N41  1  0.85808566  0.32349785  0.99113679  1  0  -0.534461  0  2.859477  0  0  -0.478795  0  3.132639  0  0  -0.499618  0  3.140295  0  0  -0.387526  -0.464648  0  3.127282  0
N  N42  1  0.95859020  0.18433057  0.58788310  1  0  -0.668109  0  3.192716  0  0  -0.609678  0  3.420511  0  0  -0.630243  0  3.420429  0  0  -0.609034  -0.595208  0  3.420128  0
N  N43  1  0.54140495  0.41210718  0.81566691  1  0  -0.667917  0  3.192468  0  0  -0.609608  0  3.420175  0  0  -0.630169  0  3.420089  0  0  -0.60895  -0.595142  0  3.419795  0
N  N44  1  0.04141256  0.81566692  0.41211137  1  0  -0.668052  0  3.192788  0  0  -0.609676  0  3.420482  0  0  -0.630244  0  3.4204  0  0  -0.60896  -0.595206  0  3.420101  0
N  N45  1  0.45859834  0.58789288  0.18433416  1  0  -0.667888  0  3.192653  0  0  -0.609576  0  3.420347  0  0  -0.630137  0  3.420261  0  0  -0.608949  -0.595109  0  3.41997  0
