# generated using pymatgen
data_Zn4H21C36O15F
_symmetry_space_group_name_H-M   'P 1'
_cell_length_a   15.19303977
_cell_length_b   15.21884553
_cell_length_c   15.92997431
_cell_angle_alpha   90.30286728
_cell_angle_beta   89.99091818
_cell_angle_gamma   89.54430198
_symmetry_Int_Tables_number   1
_chemical_formula_structural   Zn4H21C36O15F
_chemical_formula_sum   'Zn4 H21 C36 O15 F1'
_cell_volume   3683.16900035
_cell_formula_units_Z   1
loop_
 _symmetry_equiv_pos_site_id
 _symmetry_equiv_pos_as_xyz
  1  'x, y, z'
loop_
 _atom_site_type_symbol
 _atom_site_label
 _atom_site_symmetry_multiplicity
 _atom_site_fract_x
 _atom_site_fract_y
 _atom_site_fract_z
 _atom_site_occupancy
 _atom_site_pbe_bader_charge
 _atom_site_pbe_bader_spin_density
 _atom_site_pbe_cm5_charge
 _atom_site_pbe_ddec_charge
 _atom_site_pbe_ddec_spin_density
 _atom_site_pbe_ddec_sum_bond_order
 _atom_site_pbe_magmom
Zn  Zn0  1  0.56700918  0.57718522  0.57438371  1  1.315966  0  0.672499  0.966442  0  2.363218  0
Zn  Zn1  1  0.58202540  0.43128108  0.43140553  1  1.312713  0  0.673699  0.963609  0  2.367017  0
Zn  Zn2  1  0.41744492  0.57529843  0.43568616  1  1.313018  0  0.672701  0.965668  0  2.364345  0
Zn  Zn3  1  0.42624623  0.41525320  0.56082843  1  1.315818  0  0.672309  0.964068  0  2.376825  0
H  H4  1  0.43314638  0.43450275  0.00538674  1  0.08199  0  0.118615  0.143106  0  0.973673  0
H  H5  1  0.61483028  0.85212112  0.50728894  1  0.090488  0  0.108703  0.12003  0  0.991226  0
H  H6  1  0.85445448  0.38840323  0.46999669  1  0.099679  0  0.107531  0.110999  0  1.027645  0
H  H7  1  0.67600143  0.60744386  0.08375874  1  0.060521  0  0.104794  0.066836  0  0.961438  0
H  H8  1  0.58920436  0.68738732  0.08376428  1  0.058075  0  0.104795  0.066748  0  0.962882  0
H  H9  1  0.64583960  0.74767428  0.94707621  1  0.053545  0  0.099559  0.134901  0  0.984816  0
H  H10  1  0.72866790  0.75135932  0.02612057  1  0.033145  0  0.098293  0.129677  0  0.991419  0
H  H11  1  0.73248859  0.66806577  0.94722465  1  0.059127  0  0.09972  0.135145  0  0.985652  0
H  H12  1  0.66812683  0.18231603  0.34331661  1  0.028172  0  0.097698  0.057787  0  0.974155  0
H  H13  1  0.74829799  0.10114776  0.37240682  1  0.042163  0  0.091834  0.0432  0  0.978395  0
H  H14  1  0.84714574  0.22350351  0.42480598  1  0.018966  0  0.090067  0.120382  0  1.001316  0
H  H15  1  0.83354867  0.65845377  0.54845041  1  0.101888  0  0.107464  0.113801  0  0.993318  0
H  H16  1  0.82341070  0.23351358  0.31569126  1  0.023311  0  0.094788  0.126755  0  0.991897  0
H  H17  1  0.76740847  0.30211116  0.38976555  1  0.047813  0  0.093165  0.135872  0  1.010846  0
H  H18  1  0.00173672  0.31795317  0.45445488  1  0.036073  0  0.105031  0.105362  0  0.998275  0
H  H19  1  0.99683434  0.67346567  0.54159025  1  0.063974  0  0.105439  0.106572  0  0.990426  0
H  H20  1  0.16542462  0.32944362  0.45892203  1  0.102115  0  0.108394  0.114001  0  0.988039  0
H  H21  1  0.14453743  0.60658414  0.51113960  1  0.052047  0  0.109064  0.115481  0  0.991533  0
H  H22  1  0.39441920  0.14725300  0.51487464  1  0.115365  0  0.111653  0.121498  0  0.991051  0
H  H23  1  0.68670989  0.99897677  0.48641858  1  0.080284  0  0.111642  0.129086  0  0.985267  0
H  H24  1  0.33115055  0.83850112  0.51705405  1  0.112502  0  0.11672  0.147488  0  0.977731  0
C  C25  1  0.52251009  0.26141008  0.49093774  1  1.579368  0  0.232596  0.629475  0  4.149167  0
C  C26  1  0.54640310  0.97822067  0.50269230  1  0.017029  0  -0.000691  0.11947  0  4.028228  0
C  C27  1  0.46215795  0.02146187  0.50835835  1  0.001454  0  -0.01483  -0.039355  0  4.017058  0
C  C28  1  0.48060089  0.73847400  0.51230633  1  1.549414  0  0.22886  0.608552  0  4.16277  0
C  C29  1  0.45760879  0.11402844  0.50662405  1  -0.014649  0  -0.073844  -0.101513  0  3.944879  0
C  C30  1  0.61574175  0.12076690  0.48336582  1  0.477579  0  0.088389  0.240692  0  4.067076  0
C  C31  1  0.62204567  0.03045767  0.49046764  1  0.00723  0  -0.095292  -0.251271  0  3.956931  0
C  C32  1  0.83511065  0.52239778  0.50765432  1  0.01348  0  -0.018567  -0.034706  0  3.992784  0
C  C33  1  0.16354200  0.46950947  0.48455051  1  -0.003299  0  -0.014378  -0.0231  0  3.989422  0
C  C34  1  0.03326879  0.38057586  0.46834971  1  0.01956  0  -0.085059  -0.126988  0  3.989921  0
C  C35  1  0.12357428  0.38682840  0.46995221  1  -0.071579  0  -0.085017  -0.102038  0  3.998236  0
C  C36  1  0.47944887  0.48373739  0.88713466  1  -0.45654  0  -0.026533  0.060097  0  4.183061  0
C  C37  1  0.11257266  0.54362114  0.50024454  1  -0.040961  0  -0.076074  -0.140674  0  3.92407  0
C  C38  1  0.01976075  0.53794831  0.50423861  1  0.022196  0  -0.00172  0.082779  0  3.997425  0
C  C39  1  0.97918608  0.45513115  0.48579600  1  -0.001955  0  -0.002957  0.078403  0  3.997684  0
C  C40  1  0.73735087  0.51470505  0.50783925  1  1.531729  0  0.228431  0.607236  0  4.16127  0
C  C41  1  0.88634121  0.45013494  0.48600223  1  -0.021281  0  -0.0747  -0.132142  0  3.918692  0
C  C42  1  0.87537712  0.60323884  0.52978135  1  0.001034  0  -0.086679  -0.100106  0  3.998313  0
C  C43  1  0.96552704  0.61102628  0.52646775  1  -0.101578  0  -0.087202  -0.133107  0  3.994769  0
C  C44  1  0.26133222  0.47697323  0.48519594  1  1.553941  0  0.228263  0.608229  0  4.164426  0
C  C45  1  0.51011436  0.51941978  0.27964336  1  1.679653  0  0.237455  0.67695  0  4.234811  0
C  C46  1  0.48411396  0.49236569  0.72109265  1  1.621772  0  0.225022  0.678035  0  4.241456  0
C  C47  1  0.52104675  0.53016630  0.11304299  1  -0.223665  0  -0.017127  -0.0861  0  4.097345  0
C  C48  1  0.51566739  0.52675345  0.18925909  1  -0.026814  0  -0.021624  -0.136263  0  3.911481  0
C  C49  1  0.52697501  0.53447827  0.02447180  1  0.661818  0  0.111264  0.282634  0  4.14377  0
C  C50  1  0.47682102  0.48066066  0.97440781  1  0.201669  0  -0.101097  -0.232608  0  4.079758  0
C  C51  1  0.63420930  0.64894250  0.04342094  1  0.376208  0  -0.059711  0.082289  0  3.899033  0
C  C52  1  0.68839112  0.70733782  0.98734890  1  -0.059949  0  -0.238117  -0.397043  0  3.976944  0
C  C53  1  0.72309087  0.16789237  0.38641369  1  0.399215  0  -0.065368  0.097644  0  3.919181  0
C  C54  1  0.79454210  0.23597408  0.37893011  1  -0.010854  0  -0.243642  -0.3956  0  3.967944  0
C  C55  1  0.48116308  0.48715145  0.81047881  1  0.162358  0  -0.051801  -0.223888  0  3.962074  0
C  C56  1  0.53238903  0.16361208  0.49325764  1  0.027411  0  -0.016268  -0.121193  0  3.943472  0
C  C57  1  0.47490273  0.83644175  0.51334511  1  0.058882  0  -0.012845  0.002892  0  4.006489  0
C  C58  1  0.38668574  0.96760479  0.51493502  1  0.398614  0  0.102272  0.252709  0  4.059032  0
C  C59  1  0.39078306  0.87765095  0.51505087  1  0.016875  0  -0.100449  -0.243851  0  3.990545  0
C  C60  1  0.55104204  0.88543066  0.50864891  1  -0.036147  0  -0.085929  -0.166512  0  3.932765  0
O  O61  1  0.49873215  0.50027959  0.49903228  1  -1.233806  0  -0.57256  -1.035316  0  2.534758  0
O  O62  1  0.56649097  0.46801972  0.31289014  1  -1.145162  0  -0.303584  -0.529702  0  2.26924  0
O  O63  1  0.43055626  0.44325697  0.68041775  1  -1.145996  0  -0.319052  -0.548714  0  2.278844  0
O  O64  1  0.44978553  0.56480838  0.31517283  1  -1.149753  0  -0.304012  -0.532314  0  2.263715  0
O  O65  1  0.54009635  0.54598502  0.69016863  1  -1.159457  0  -0.319153  -0.55149  0  2.281165  0
O  O66  1  0.58247633  0.59252926  0.98885499  1  -1.040008  0  -0.157438  -0.173183  0  2.486012  0
O  O67  1  0.69004520  0.17020857  0.47182967  1  -1.056708  0  -0.210363  -0.246696  0  2.47827  0
O  O68  1  0.69422779  0.57077585  0.55152387  1  -1.169799  0  -0.312031  -0.539309  0  2.327074  0
O  O69  1  0.30492851  0.41301976  0.51655752  1  -1.170444  0  -0.314762  -0.546529  0  2.310987  0
O  O70  1  0.56573716  0.30348604  0.43565399  1  -1.164525  0  -0.308176  -0.541085  0  2.338419  0
O  O71  1  0.41986853  0.69872750  0.47208844  1  -1.173268  0  -0.315565  -0.54397  0  2.318482  0
O  O72  1  0.46928405  0.29430442  0.54465076  1  -1.169239  0  -0.311833  -0.541021  0  2.324068  0
O  O73  1  0.54535882  0.70286516  0.55029943  1  -1.169689  0  -0.312638  -0.543018  0  2.320233  0
O  O74  1  0.70450218  0.45243402  0.46382562  1  -1.18191  0  -0.316505  -0.554825  0  2.350011  0
O  O75  1  0.29341922  0.54730242  0.45479649  1  -1.168189  0  -0.314643  -0.544437  0  2.325647  0
F  F76  1  0.30648040  0.00838592  0.51955412  1  -0.630023  0  -0.108895  -0.152931  0  1.309084  0
