# generated using pymatgen
data_ZnH12C18S2(IN3)2
_symmetry_space_group_name_H-M   'P 1'
_cell_length_a   9.88359493
_cell_length_b   10.34682777
_cell_length_c   11.69310805
_cell_angle_alpha   93.20784844
_cell_angle_beta   108.53059799
_cell_angle_gamma   99.53944700
_symmetry_Int_Tables_number   1
_chemical_formula_structural   ZnH12C18S2(IN3)2
_chemical_formula_sum   'Zn2 H24 C36 S4 I4 N12'
_cell_volume   1110.53666616
_cell_formula_units_Z   2
loop_
 _symmetry_equiv_pos_site_id
 _symmetry_equiv_pos_as_xyz
  1  'x, y, z'
loop_
 _atom_site_type_symbol
 _atom_site_label
 _atom_site_symmetry_multiplicity
 _atom_site_fract_x
 _atom_site_fract_y
 _atom_site_fract_z
 _atom_site_occupancy
 _atom_site_hle17_bader_spin_density
 _atom_site_hle17_ddec_charge
 _atom_site_hle17_ddec_spin_density
 _atom_site_hle17_ddec_sum_bond_order
 _atom_site_hle17_magmom
 _atom_site_hse06_10hf_bader_spin_density
 _atom_site_hse06_10hf_ddec_charge
 _atom_site_hse06_10hf_ddec_spin_density
 _atom_site_hse06_10hf_ddec_sum_bond_order
 _atom_site_hse06_10hf_magmom
 _atom_site_hse06_bader_spin_density
 _atom_site_hse06_ddec_charge
 _atom_site_hse06_ddec_spin_density
 _atom_site_hse06_ddec_sum_bond_order
 _atom_site_hse06_magmom
 _atom_site_pbe_bader_spin_density
 _atom_site_pbe_cm5_charge
 _atom_site_pbe_ddec_charge
 _atom_site_pbe_ddec_spin_density
 _atom_site_pbe_ddec_sum_bond_order
 _atom_site_pbe_magmom
Zn  Zn0  1  0.69344790  0.82484886  0.51411860  1  0  0.671108  0  2.20411  0  0  0.509746  0  2.660824  0  0  0.550298  0  2.624004  0  0  0.465692  0.481768  0  2.684765  0
Zn  Zn1  1  0.30655381  0.17515063  0.48588438  1  0  0.671123  0  2.204131  0  0  0.50975  0  2.66088  0  0  0.550299  0  2.624054  0  0  0.465697  0.481765  0  2.68483  0
H  H2  1  0.27302519  0.16575365  0.08517893  1  0  0.127182  0  0.959113  0  0  0.135615  0  1.021032  0  0  0.139737  0  1.018845  0  0  0.11018  0.132395  0  1.023262  0
H  H3  1  0.72697459  0.83424682  0.91482188  1  0  0.127196  0  0.959043  0  0  0.135623  0  1.02096  0  0  0.139743  0  1.018776  0  0  0.110184  0.132401  0  1.023195  0
H  H4  1  0.22899978  0.32885047  0.93513832  1  0  0.083525  0  0.930491  0  0  0.085847  0  1.002504  0  0  0.089205  0  0.998606  0  0  0.112613  0.082968  0  1.006041  0
H  H5  1  0.77100299  0.67114902  0.06486153  1  0  0.083516  0  0.93047  0  0  0.085837  0  1.002483  0  0  0.089206  0  0.998576  0  0  0.112599  0.082956  0  1.006025  0
H  H6  1  0.31830351  0.00551785  0.18202224  1  0  0.100466  0  0.99289  0  0  0.106948  0  1.061862  0  0  0.110444  0  1.060099  0  0  0.093327  0.105077  0  1.062349  0
H  H7  1  0.68169716  0.99447671  0.81798022  1  0  0.100527  0  0.992772  0  0  0.106998  0  1.061741  0  0  0.110491  0  1.059985  0  0  0.093318  0.105124  0  1.062228  0
H  H8  1  0.20266051  0.48722250  0.37778005  1  0  0.12029  0  0.969672  0  0  0.126903  0  1.036829  0  0  0.130754  0  1.035867  0  0  0.096858  0.123594  0  1.038883  0
H  H9  1  0.79733883  0.51278093  0.62221651  1  0  0.120384  0  0.969653  0  0  0.127002  0  1.036792  0  0  0.130848  0  1.035829  0  0  0.096903  0.123696  0  1.038843  0
H  H10  1  0.28052720  0.34289937  0.24161738  1  0  0.061831  0  0.972291  0  0  0.067182  0  1.04468  0  0  0.069967  0  1.041608  0  0  0.096318  0.065151  0  1.046486  0
H  H11  1  0.71946875  0.65709814  0.75838054  1  0  0.061859  0  0.972337  0  0  0.067221  0  1.044712  0  0  0.070004  0  1.04164  0  0  0.096372  0.065189  0  1.046522  0
H  H12  1  0.76358525  0.11702725  0.19069397  1  0  0.120759  0  0.944928  0  0  0.125843  0  1.010675  0  0  0.1301  0  1.008305  0  0  0.107382  0.122237  0  1.013345  0
H  H13  1  0.23641729  0.88297618  0.80931028  1  0  0.120777  0  0.945049  0  0  0.125877  0  1.010774  0  0  0.130131  0  1.008404  0  0  0.107391  0.122272  0  1.013434  0
H  H14  1  0.70284489  0.44179908  0.22404618  1  0  0.125105  0  0.934815  0  0  0.131811  0  0.996868  0  0  0.135704  0  0.99484  0  0  0.112098  0.128839  0  0.99854  0
H  H15  1  0.29715596  0.55820140  0.77595491  1  0  0.125099  0  0.93482  0  0  0.131817  0  0.996859  0  0  0.135711  0  0.994832  0  0  0.112088  0.128842  0  0.998536  0
H  H16  1  0.12618617  0.67888254  0.42412618  1  0  0.110208  0  0.965717  0  0  0.118026  0  1.031987  0  0  0.121799  0  1.030145  0  0  0.098197  0.113769  0  1.035934  0
H  H17  1  0.87381403  0.32111991  0.57586970  1  0  0.110197  0  0.965719  0  0  0.118014  0  1.032013  0  0  0.121787  0  1.030172  0  0  0.098199  0.113759  0  1.03594  0
H  H18  1  0.40537651  0.87627333  0.35284863  1  0  0.06675  0  0.98273  0  0  0.070471  0  1.05816  0  0  0.073447  0  1.0553  0  0  0.093811  0.067178  0  1.062544  0
H  H19  1  0.59462499  0.12372517  0.64715681  1  0  0.066735  0  0.982781  0  0  0.070483  0  1.058146  0  0  0.07346  0  1.055286  0  0  0.093852  0.067189  0  1.062535  0
H  H20  1  0.83365140  0.98340481  0.36379265  1  0  0.064009  0  0.991817  0  0  0.068642  0  1.068746  0  0  0.071482  0  1.065823  0  0  0.093893  0.066644  0  1.070835  0
H  H21  1  0.16634921  0.01659960  0.63621371  1  0  0.06406  0  0.991734  0  0  0.068646  0  1.068725  0  0  0.071485  0  1.065803  0  0  0.093914  0.066647  0  1.070816  0
H  H22  1  0.59735125  0.58056414  0.34303542  1  0  0.075235  0  0.959592  0  0  0.0792  0  1.034616  0  0  0.082255  0  1.031095  0  0  0.102517  0.076802  0  1.037422  0
H  H23  1  0.40265001  0.41943831  0.65696417  1  0  0.075275  0  0.959622  0  0  0.079246  0  1.034627  0  0  0.082298  0  1.031106  0  0  0.102544  0.07685  0  1.03744  0
H  H24  1  0.00295470  0.80791941  0.53320868  1  0  0.068451  0  0.978707  0  0  0.074224  0  1.05097  0  0  0.076765  0  1.048825  0  0  0.100725  0.071494  0  1.054012  0
H  H25  1  0.99704570  0.19208403  0.46678731  1  0  0.068437  0  0.978693  0  0  0.0742  0  1.050965  0  0  0.076742  0  1.048819  0  0  0.100719  0.071469  0  1.054011  0
C  C26  1  0.49112379  0.16225968  0.07719996  1  0  0.253648  0  3.734832  0  0  0.252623  0  3.976981  0  0  0.262224  0  3.99413  0  0  0.135252  0.246127  0  3.965458  0
C  C27  1  0.50887771  0.83773882  0.92280206  1  0  0.253683  0  3.73485  0  0  0.252645  0  3.976937  0  0  0.262247  0  3.994089  0  0  0.135274  0.246146  0  3.96542  0
C  C28  1  0.55395064  0.29373731  0.94560583  1  0  0.349995  0  3.816151  0  0  0.337155  0  4.102237  0  0  0.353146  0  4.11434  0  0  0.241329  0.326156  0  4.094377  0
C  C29  1  0.44604852  0.70626020  0.05439209  1  0  0.349923  0  3.816107  0  0  0.337031  0  4.102269  0  0  0.35302  0  4.114378  0  0  0.241268  0.326034  0  4.094405  0
C  C30  1  0.95185319  0.34598783  0.06534745  1  0  0.353404  0  3.806068  0  0  0.34053  0  4.093676  0  0  0.356688  0  4.104883  0  0  0.240667  0.329445  0  4.085023  0
C  C31  1  0.04814297  0.65401067  0.93465142  1  0  0.353577  0  3.805981  0  0  0.340659  0  4.09364  0  0  0.356815  0  4.104852  0  0  0.240721  0.329576  0  4.084981  0
C  C32  1  0.35583819  0.20084288  0.04525691  1  0  -0.206642  0  3.657754  0  0  -0.224968  0  3.900252  0  0  -0.23534  0  3.920014  0  0  -0.083467  -0.218508  0  3.887491  0
C  C33  1  0.64416031  0.79915660  0.95474436  1  0  -0.206651  0  3.657835  0  0  -0.224974  0  3.900325  0  0  -0.235344  0  3.920091  0  0  -0.083491  -0.218508  0  3.887564  0
C  C34  1  0.33058179  0.29196180  0.96099136  1  0  0.189939  0  3.692709  0  0  0.161044  0  3.954257  0  0  0.171708  0  3.967658  0  0  0.064396  0.154406  0  3.944916  0
C  C35  1  0.66941947  0.70804065  0.03900738  1  0  0.189991  0  3.692495  0  0  0.161105  0  3.954025  0  0  0.171759  0  3.967426  0  0  0.064473  0.154468  0  3.944685  0
C  C36  1  0.53477486  0.07456230  0.17243280  1  0  0.076794  0  3.725035  0  0  0.088144  0  3.954242  0  0  0.091727  0  3.973675  0  0  0.013008  0.085883  0  3.941567  0
C  C37  1  0.46522216  0.92543520  0.82757053  1  0  0.076753  0  3.725095  0  0  0.088206  0  3.954151  0  0  0.0918  0  3.973577  0  0  0.013004  0.085947  0  3.941483  0
C  C38  1  0.43380828  0.00401751  0.21811584  1  0  -0.138443  0  3.721023  0  0  -0.158576  0  3.969123  0  0  -0.165738  0  3.990193  0  0  -0.084281  -0.154562  0  3.955083  0
C  C39  1  0.56618981  0.99598000  0.78188265  1  0  -0.138602  0  3.720939  0  0  -0.158756  0  3.969037  0  0  -0.165927  0  3.990113  0  0  -0.084273  -0.154737  0  3.954992  0
C  C40  1  0.98610729  0.46901522  0.24318493  1  0  0.251958  0  3.755844  0  0  0.250583  0  3.999951  0  0  0.260683  0  4.016639  0  0  0.132737  0.243803  0  3.988131  0
C  C41  1  0.01388908  0.53098426  0.75681063  1  0  0.251897  0  3.755795  0  0  0.250533  0  3.999899  0  0  0.26058  0  4.01666  0  0  0.132681  0.243777  0  3.988033  0
C  C42  1  0.12812529  0.44619928  0.28771447  1  0  -0.218693  0  3.683734  0  0  -0.238269  0  3.933479  0  0  -0.249062  0  3.953686  0  0  -0.093371  -0.231834  0  3.920509  0
C  C43  1  0.87187043  0.55380217  0.71228102  1  0  -0.21873  0  3.68374  0  0  -0.23832  0  3.933501  0  0  -0.249088  0  3.953717  0  0  -0.093335  -0.231893  0  3.920517  0
C  C44  1  0.17163268  0.36614764  0.21134497  1  0  0.176064  0  3.747698  0  0  0.148132  0  4.01175  0  0  0.158227  0  4.026135  0  0  0.053395  0.141993  0  4.000333  0
C  C45  1  0.82836348  0.63385085  0.78865391  1  0  0.176061  0  3.747894  0  0  0.148114  0  4.01195  0  0  0.158215  0  4.026327  0  0  0.053355  0.141974  0  4.00054  0
C  C46  1  0.68128903  0.06516912  0.22428628  1  0  -0.128897  0  3.672444  0  0  -0.148677  0  3.918192  0  0  -0.154855  0  3.937168  0  0  -0.078326  -0.144896  0  3.906363  0
C  C47  1  0.31871009  0.93483332  0.77571701  1  0  -0.128898  0  3.672779  0  0  -0.14873  0  3.918523  0  0  -0.15491  0  3.937497  0  0  -0.078339  -0.144951  0  3.906696  0
C  C48  1  0.92315224  0.54770923  0.31528453  1  0  0.072265  0  3.727813  0  0  0.083849  0  3.956565  0  0  0.086833  0  3.977014  0  0  0.015755  0.082421  0  3.941959  0
C  C49  1  0.07684647  0.45229124  0.68471342  1  0  0.072301  0  3.727778  0  0  0.083883  0  3.956539  0  0  0.086877  0  3.976993  0  0  0.015725  0.082441  0  3.941924  0
C  C50  1  0.77290335  0.52088669  0.29299357  1  0  -0.11568  0  3.667232  0  0  -0.135769  0  3.917185  0  0  -0.141212  0  3.934027  0  0  -0.070852  -0.132512  0  3.90576  0
C  C51  1  0.22709664  0.47911477  0.70700477  1  0  -0.115647  0  3.667188  0  0  -0.135749  0  3.917143  0  0  -0.141185  0  3.93398  0  0  -0.07081  -0.132477  0  3.905712  0
C  C52  1  0.00898356  0.65150951  0.40442614  1  0  -0.140919  0  3.694163  0  0  -0.15835  0  3.936489  0  0  -0.165299  0  3.957245  0  0  -0.080525  -0.1531  0  3.922149  0
C  C53  1  0.99101857  0.34849196  0.59557192  1  0  -0.140913  0  3.694326  0  0  -0.158354  0  3.936638  0  0  -0.1653  0  3.95739  0  0  -0.080527  -0.153099  0  3.922299  0
C  C54  1  0.48108017  0.93108005  0.31405202  1  0  0.119983  0  3.723049  0  0  0.088523  0  3.973871  0  0  0.095221  0  3.992346  0  0  0.036206  0.08396  0  3.962938  0
C  C55  1  0.51892368  0.06891945  0.68595068  1  0  0.12012  0  3.722984  0  0  0.088642  0  3.973825  0  0  0.095339  0  3.992302  0  0  0.03617  0.084075  0  3.962896  0
C  C56  1  0.72021781  0.99090903  0.32045630  1  0  0.127335  0  3.694061  0  0  0.097058  0  3.940047  0  0  0.103615  0  3.958824  0  0  0.0379  0.092957  0  3.926834  0
C  C57  1  0.27978494  0.00909539  0.67954977  1  0  0.127339  0  3.694136  0  0  0.097075  0  3.940131  0  0  0.103634  0  3.958904  0  0  0.037879  0.092981  0  3.926916  0
C  C58  1  0.71381732  0.59817360  0.35793636  1  0  0.138224  0  3.691403  0  0  0.103256  0  3.94684  0  0  0.111687  0  3.962043  0  0  0.044793  0.097968  0  3.936231  0
C  C59  1  0.28618501  0.40182885  0.64206437  1  0  0.138081  0  3.691374  0  0  0.103125  0  3.946807  0  0  0.111557  0  3.962009  0  0  0.044734  0.097828  0  3.936212  0
C  C60  1  0.94156013  0.72467764  0.46498098  1  0  0.123881  0  3.707822  0  0  0.093522  0  3.953969  0  0  0.100048  0  3.972908  0  0  0.038222  0.089252  0  3.940086  0
C  C61  1  0.05844048  0.27532678  0.53501768  1  0  0.123901  0  3.707857  0  0  0.093574  0  3.953986  0  0  0.100103  0  3.972924  0  0  0.038248  0.08931  0  3.940099  0
S  S62  1  0.84453135  0.27369655  0.91558723  1  0  0.015659  0  2.415191  0  0  0.005906  0  2.779354  0  0  0.004272  0  2.775484  0  0  0.05606  0.006964  0  2.784019  0
S  S63  1  0.15546781  0.72630096  0.08441155  1  0  0.015606  0  2.415148  0  0  0.005872  0  2.779327  0  0  0.004235  0  2.775456  0  0  0.056065  0.006926  0  2.783991  0
S  S64  1  0.67381417  0.36771502  0.87218780  1  0  0.000897  0  2.474559  0  0  -0.00897  0  2.852533  0  0  -0.013311  0  2.851116  0  0  0.057192  -0.006148  0  2.854582  0
S  S65  1  0.32618499  0.63228249  0.12781269  1  0  0.000899  0  2.4745  0  0  -0.008962  0  2.852484  0  0  -0.013296  0  2.851068  0  0  0.057176  -0.006137  0  2.854527  0
I  I66  1  0.46604182  0.69917808  0.54964464  1  0  -0.469872  0  1.095949  0  0  -0.418688  0  1.422637  0  0  -0.436094  0  1.402239  0  0  -0.220198  -0.40379  0  1.43862  0
I  I67  1  0.53395989  0.30082141  0.45035748  1  0  -0.469905  0  1.095947  0  0  -0.418726  0  1.422634  0  0  -0.436131  0  1.402235  0  0  -0.220218  -0.403826  0  1.438615  0
I  I68  1  0.89216721  0.98384314  0.68474451  1  0  -0.460684  0  1.056181  0  0  -0.406912  0  1.363473  0  0  -0.424789  0  1.342713  0  0  -0.222059  -0.394367  0  1.377912  0
I  I69  1  0.10783876  0.01615636  0.31525535  1  0  -0.460678  0  1.056175  0  0  -0.406916  0  1.363495  0  0  -0.424792  0  1.342734  0  0  -0.222066  -0.394366  0  1.377933  0
N  N70  1  0.59151097  0.20942357  0.02612415  1  0  -0.407651  0  3.058608  0  0  -0.376621  0  3.322493  0  0  -0.392134  0  3.336957  0  0  -0.308401  -0.36553  0  3.31229  0
N  N71  1  0.40848884  0.79057197  0.97387727  1  0  -0.407626  0  3.05866  0  0  -0.376597  0  3.322579  0  0  -0.392119  0  3.337048  0  0  -0.30838  -0.365514  0  3.312381  0
N  N72  1  0.89670830  0.41772174  0.13062539  1  0  -0.407059  0  3.057587  0  0  -0.377606  0  3.323373  0  0  -0.392739  0  3.336926  0  0  -0.309374  -0.366036  0  3.312899  0
N  N73  1  0.10328807  0.58227774  0.86937359  1  0  -0.407113  0  3.057511  0  0  -0.377637  0  3.323287  0  0  -0.392747  0  3.336857  0  0  -0.309365  -0.366072  0  3.312804  0
N  N74  1  0.08452831  0.31523621  0.09917601  1  0  -0.37894  0  3.039366  0  0  -0.343391  0  3.308543  0  0  -0.358254  0  3.320026  0  0  -0.315794  -0.332316  0  3.300262  0
N  N75  1  0.91546637  0.68476031  0.90082322  1  0  -0.379047  0  3.039535  0  0  -0.343492  0  3.308749  0  0  -0.358355  0  3.32023  0  0  -0.315866  -0.33242  0  3.300472  0
N  N76  1  0.42942030  0.33961520  0.91021778  1  0  -0.368497  0  3.029869  0  0  -0.328206  0  3.29164  0  0  -0.344234  0  3.305585  0  0  -0.312795  -0.317656  0  3.282459  0
N  N77  1  0.57058078  0.66038134  0.08978403  1  0  -0.368489  0  3.029431  0  0  -0.328171  0  3.291177  0  0  -0.344198  0  3.305128  0  0  -0.312803  -0.31762  0  3.28199  0
N  N78  1  0.62224251  0.92550613  0.36552487  1  0  -0.299031  0  3.332782  0  0  -0.211157  0  3.595271  0  0  -0.230755  0  3.614094  0  0  -0.336622  -0.197644  0  3.58168  0
N  N79  1  0.37776110  0.07449731  0.63448053  1  0  -0.299143  0  3.332769  0  0  -0.211232  0  3.595225  0  0  -0.230828  0  3.614047  0  0  -0.33663  -0.197718  0  3.581638  0
N  N80  1  0.79643486  0.69901502  0.44198046  1  0  -0.30395  0  3.324179  0  0  -0.214607  0  3.58555  0  0  -0.234204  0  3.603991  0  0  -0.334449  -0.20034  0  3.572425  0
N  N81  1  0.20356854  0.30098744  0.55801885  1  0  -0.303882  0  3.323946  0  0  -0.21458  0  3.585374  0  0  -0.23418  0  3.60381  0  0  -0.33446  -0.200316  0  3.572258  0
