# generated using pymatgen
data_Tb2H56C57N2O17
_symmetry_space_group_name_H-M   'P 1'
_cell_length_a   12.64892173
_cell_length_b   13.04660996
_cell_length_c   25.94852706
_cell_angle_alpha   83.98821394
_cell_angle_beta   87.24093657
_cell_angle_gamma   66.96014499
_symmetry_Int_Tables_number   1
_chemical_formula_structural   Tb2H56C57N2O17
_chemical_formula_sum   'Tb4 H112 C114 N4 O34'
_cell_volume   3918.80207314
_cell_formula_units_Z   2
loop_
 _symmetry_equiv_pos_site_id
 _symmetry_equiv_pos_as_xyz
  1  'x, y, z'
loop_
 _atom_site_type_symbol
 _atom_site_label
 _atom_site_symmetry_multiplicity
 _atom_site_fract_x
 _atom_site_fract_y
 _atom_site_fract_z
 _atom_site_occupancy
 _atom_site_pbe_bader_charge
 _atom_site_pbe_bader_spin_density
 _atom_site_pbe_cm5_charge
 _atom_site_pbe_ddec_charge
 _atom_site_pbe_ddec_spin_density
 _atom_site_pbe_ddec_sum_bond_order
 _atom_site_pbe_magmom
Tb  Tb0  1  0.63626835  0.31060888  0.50354917  1  2.174122  0  1.500294  2.057466  0  2.202974  0
Tb  Tb1  1  0.36373635  0.68939248  0.49645086  1  2.174325  0  1.500259  2.057562  0  2.202935  0
Tb  Tb2  1  0.84369454  0.63342263  0.04203207  1  2.169165  0  1.52337  2.041576  0  2.207418  0
Tb  Tb3  1  0.15631037  0.36658209  0.95796856  1  2.169091  0  1.523295  2.042034  0  2.206867  0
H  H4  1  0.83282815  0.88827990  0.16447561  1  0.110825  0  0.109669  0.120109  0  0.993989  0
H  H5  1  0.16717012  0.11171975  0.83552465  1  0.110783  0  0.109683  0.120172  0  0.993891  0
H  H6  1  0.75222028  0.61107934  0.22960587  1  0.110282  0  0.104011  0.108404  0  0.998317  0
H  H7  1  0.24777884  0.38892201  0.77039698  1  0.110418  0  0.103985  0.108383  0  0.998219  0
H  H8  1  0.69677873  0.69552355  0.31460021  1  0.076489  0  0.107615  0.119863  0  0.999079  0
H  H9  1  0.30322579  0.30447616  0.68540339  1  0.076627  0  0.107624  0.119875  0  0.999032  0
H  H10  1  0.74454733  0.09532282  0.18467303  1  0.023806  0  0.092532  0.130344  0  0.990406  0
H  H11  1  0.25544876  0.90468018  0.81532941  1  0.023711  0  0.092538  0.130335  0  0.990374  0
H  H12  1  0.71436257  0.17931495  0.23762324  1  0.021808  0  0.087792  0.120646  0  1.004964  0
H  H13  1  0.28563650  0.82068469  0.76237661  1  0.021827  0  0.087787  0.120659  0  1.004958  0
H  H14  1  0.62165011  0.11179404  0.22454927  1  0.036534  0  0.08825  0.120831  0  1.035533  0
H  H15  1  0.37835040  0.88820982  0.77545149  1  0.036499  0  0.088255  0.120809  0  1.035552  0
H  H16  1  0.96319988  0.91811368  0.28587015  1  0.064484  0  0.089435  0.12575  0  1.009166  0
H  H17  1  0.03679431  0.08187840  0.71413136  1  0.064548  0  0.089433  0.125792  0  1.009061  0
H  H18  1  0.91207620  0.06647907  0.27351688  1  0.005368  0  0.085904  0.112896  0  1.022032  0
H  H19  1  0.08793118  0.93350974  0.72648531  1  0.005483  0  0.085883  0.112848  0  1.022057  0
H  H20  1  0.94641666  0.98107918  0.22096859  1  0.021134  0  0.091619  0.127257  0  1.005658  0
H  H21  1  0.05358306  0.01891294  0.77903280  1  0.021377  0  0.09159  0.127232  0  1.005658  0
H  H22  1  0.62932290  0.82880446  0.38782668  1  0.103625  0  0.102192  0.114303  0  1.040069  0
H  H23  1  0.37069696  0.17118276  0.61217766  1  0.103381  0  0.102188  0.114309  0  1.040047  0
H  H24  1  0.59103294  0.97741252  0.44875052  1  0.085477  0  0.106193  0.112808  0  0.993677  0
H  H25  1  0.40897692  0.02257798  0.55125192  1  0.085125  0  0.106173  0.112828  0  0.993557  0
H  H26  1  0.74542161  0.15271153  0.34092139  1  0.084755  0  0.106558  0.113652  0  0.996952  0
H  H27  1  0.25456775  0.84729058  0.65907892  1  0.084815  0  0.10651  0.113596  0  0.996932  0
H  H28  1  0.49424567  0.18340430  0.71405896  1  0.073885  0  0.100954  0.103559  0  1.049658  0
H  H29  1  0.50576811  0.81659624  0.28593786  1  0.073713  0  0.100948  0.103496  0  1.049511  0
H  H30  1  0.81031872  0.07413385  0.62736685  1  0.079114  0  0.100835  0.103105  0  1.026323  0
H  H31  1  0.18969220  0.92585999  0.37263269  1  0.079317  0  0.100865  0.103169  0  1.026198  0
H  H32  1  0.91776784  0.95944285  0.70618868  1  0.039968  0  0.096556  0.09515  0  1.034526  0
H  H33  1  0.08224421  0.04055603  0.29381057  1  0.039952  0  0.096576  0.095166  0  1.034504  0
H  H34  1  0.55579276  0.91615845  0.78770122  1  0.020565  0  0.085064  0.112746  0  1.022239  0
H  H35  1  0.44420685  0.08384372  0.21229964  1  0.020491  0  0.085073  0.112816  0  1.022246  0
H  H36  1  0.43806382  0.04867177  0.78445133  1  0.048344  0  0.08597  0.119891  0  1.049072  0
H  H37  1  0.56193917  0.95133378  0.21554929  1  0.048487  0  0.085979  0.119928  0  1.04913  0
H  H38  1  0.48463271  0.97246595  0.84567442  1  0.020584  0  0.092033  0.128587  0  0.989444  0
H  H39  1  0.51537095  0.02754380  0.15432673  1  0.020422  0  0.092031  0.128597  0  0.989345  0
H  H40  1  0.50603466  0.14259060  0.87590482  1  0.037085  0  0.09526  0.134972  0  0.988829  0
H  H41  1  0.49397160  0.85742078  0.12408926  1  0.036922  0  0.09524  0.135014  0  0.988754  0
H  H42  1  0.46338057  0.21835113  0.81428630  1  0.025062  0  0.08655  0.122568  0  1.023895  0
H  H43  1  0.53663064  0.78165190  0.18570890  1  0.025128  0  0.086545  0.12258  0  1.023852  0
H  H44  1  0.59689032  0.20208509  0.84132793  1  0.01555  0  0.083658  0.114181  0  1.028233  0
H  H45  1  0.40311627  0.79791959  0.15866688  1  0.015663  0  0.08361  0.114167  0  1.027994  0
H  H46  1  0.98816010  0.86289412  0.79825593  1  0.059598  0  0.098105  0.097702  0  1.020271  0
H  H47  1  0.01184313  0.13710303  0.20174436  1  0.059624  0  0.098125  0.09771  0  1.020239  0
H  H48  1  0.64516156  0.93558998  0.91545178  1  0.097319  0  0.111148  0.121591  0  0.993776  0
H  H49  1  0.35484444  0.06441219  0.08454472  1  0.097182  0  0.111128  0.121599  0  0.993753  0
H  H50  1  0.00911509  0.77600092  0.88942792  1  0.068633  0  0.102829  0.104368  0  1.018856  0
H  H51  1  0.99088534  0.22399538  0.11057132  1  0.068635  0  0.102828  0.104401  0  1.018785  0
H  H52  1  0.91198133  0.36667269  0.85386332  1  0.121573  0  0.110667  0.120799  0  0.995582  0
H  H53  1  0.08802351  0.63332619  0.14614185  1  0.121598  0  0.110618  0.120774  0  0.99561  0
H  H54  1  0.68508196  0.68834372  0.89877466  1  0.105592  0  0.108853  0.114834  0  1.007266  0
H  H55  1  0.31493169  0.31166102  0.10122270  1  0.105631  0  0.108841  0.114661  0  1.007283  0
H  H56  1  0.57869696  0.73104492  0.81510818  1  0.051908  0  0.098883  0.098072  0  1.022603  0
H  H57  1  0.42131136  0.26895729  0.18489135  1  0.051661  0  0.098882  0.09813  0  1.022513  0
H  H58  1  0.93085532  0.43549725  0.71667631  1  0.04075  0  0.088973  0.125101  0  0.996274  0
H  H59  1  0.06913343  0.56450236  0.28332645  1  0.026677  0  0.088935  0.125086  0  0.996233  0
H  H60  1  0.92276913  0.31172957  0.69719235  1  0.022827  0  0.084988  0.117128  0  1.008316  0
H  H61  1  0.07722570  0.68827259  0.30281131  1  0.022728  0  0.084992  0.117143  0  1.008348  0
H  H62  1  0.98169371  0.30917926  0.75842738  1  0.02794  0  0.085402  0.120545  0  1.034955  0
H  H63  1  0.01830308  0.69082206  0.24157398  1  0.02822  0  0.085409  0.120507  0  1.034964  0
H  H64  1  0.83819748  0.23290772  0.80378005  1  0.029899  0  0.088795  0.125369  0  0.996918  0
H  H65  1  0.16180194  0.76708694  0.19622546  1  0.030042  0  0.088772  0.125367  0  0.996873  0
H  H66  1  0.78411063  0.23295092  0.74168909  1  0.038614  0  0.086285  0.12249  0  1.029885  0
H  H67  1  0.21588770  0.76704456  0.25831409  1  0.043321  0  0.086271  0.122455  0  1.029935  0
H  H68  1  0.68854666  0.30363198  0.79045952  1  0.024106  0  0.083875  0.112731  0  1.035361  0
H  H69  1  0.31145238  0.69636181  0.20954219  1  0.024139  0  0.083874  0.112659  0  1.035358  0
H  H70  1  0.49596253  0.73281100  0.72486019  1  0.075002  0  0.097301  0.097994  0  1.03022  0
H  H71  1  0.50403800  0.26718110  0.27514003  1  0.074901  0  0.09731  0.09801  0  1.0303  0
H  H72  1  0.44837002  0.69267648  0.63892761  1  0.090945  0  0.1027  0.102931  0  1.042784  0
H  H73  1  0.55163715  0.30731483  0.36107330  1  0.090797  0  0.102753  0.102935  0  1.042993  0
H  H74  1  0.72149145  0.36684831  0.65308166  1  0.088104  0  0.10682  0.115057  0  1.006578  0
H  H75  1  0.27850484  0.63314632  0.34692237  1  0.088032  0  0.106771  0.114975  0  1.00677  0
H  H76  1  0.44765988  0.31671072  0.57104045  1  0.642435  0  0.286932  0.375333  0  0.97997  0
H  H77  1  0.55234365  0.68329149  0.42896226  1  0.642089  0  0.286902  0.375295  0  0.979983  0
H  H78  1  0.41957517  0.29934388  0.51184256  1  0.607506  0  0.326016  0.410663  0  0.87808  0
H  H79  1  0.58042508  0.70065664  0.48816031  1  0.607471  0  0.326002  0.41065  0  0.878053  0
H  H80  1  0.67174325  0.51875463  0.46983567  1  0.647165  0  0.295089  0.408957  0  0.918829  0
H  H81  1  0.32825571  0.48124920  0.53016319  1  0.647209  0  0.295086  0.408934  0  0.918859  0
H  H82  1  0.77904365  0.43470301  0.50168899  1  0.614459  0  0.322469  0.400864  0  0.890691  0
H  H83  1  0.22095395  0.56529830  0.49831042  1  0.61442  0  0.322406  0.400728  0  0.890823  0
H  H84  1  0.94952327  0.37609777  0.05528261  1  0.638673  0  0.298658  0.409147  0  0.922484  0
H  H85  1  0.05047310  0.62390856  0.94471617  1  0.638646  0  0.298669  0.409115  0  0.922494  0
H  H86  1  0.90271250  0.43576579  0.10701179  1  0.611053  0  0.319733  0.407209  0  0.892673  0
H  H87  1  0.09727693  0.56423628  0.89298428  1  0.610902  0  0.319714  0.407239  0  0.892624  0
H  H88  1  0.92220478  0.19042678  0.46049103  1  0.076325  0  0.133491  0.062044  0  0.981833  0
H  H89  1  0.07779067  0.80957201  0.53950972  1  0.076413  0  0.13354  0.06213  0  0.981912  0
H  H90  1  0.95989911  0.15241565  0.59854516  1  0.110218  0  0.114916  0.135899  0  1.000208  0
H  H91  1  0.04009101  0.84758061  0.40145737  1  0.110376  0  0.11495  0.135956  0  1.000204  0
H  H92  1  0.10689248  0.13834303  0.59114556  1  0.086961  0  0.10542  0.119981  0  1.005034  0
H  H93  1  0.89309941  0.86165073  0.40885861  1  0.087  0  0.105458  0.120061  0  1.004957  0
H  H94  1  0.07383278  0.01763534  0.59266204  1  0.079164  0  0.106406  0.123871  0  0.996077  0
H  H95  1  0.92615814  0.98236091  0.40733931  1  0.079298  0  0.106398  0.123861  0  0.995956  0
H  H96  1  0.10318323  0.09266428  0.45065137  1  0.059396  0  0.114551  0.125864  0  0.985216  0
H  H97  1  0.89679349  0.90733776  0.54934958  1  0.0596  0  0.114587  0.125872  0  0.985311  0
H  H98  1  0.16459086  0.98262982  0.50089635  1  0.102281  0  0.111411  0.126481  0  1.018546  0
H  H99  1  0.83539641  0.01736974  0.49910105  1  0.102394  0  0.111438  0.126481  0  1.018562  0
H  H100  1  0.19405572  0.10583200  0.49813091  1  0.068787  0  0.110527  0.126801  0  0.975978  0
H  H101  1  0.80593325  0.89416337  0.50186630  1  0.068487  0  0.110493  0.126814  0  0.976029  0
H  H102  1  0.65366395  0.56326746  0.12325391  1  0.117354  0  0.129644  0.055732  0  0.996136  0
H  H103  1  0.34632760  0.43673128  0.87674384  1  0.117127  0  0.129594  0.055651  0  0.996262  0
H  H104  1  0.37823151  0.72974231  0.03952040  1  0.085248  0  0.114276  0.128661  0  0.962757  0
H  H105  1  0.62176024  0.27025807  0.96047185  1  0.085236  0  0.114293  0.128671  0  0.962842  0
H  H106  1  0.39192359  0.59289287  0.02706290  1  0.055587  0  0.114681  0.130586  0  0.974366  0
H  H107  1  0.60807503  0.40710420  0.97293055  1  0.055771  0  0.114706  0.130639  0  0.974396  0
H  H108  1  0.49749071  0.64683756  0.00223768  1  0.104568  0  0.119119  0.138518  0  0.98313  0
H  H109  1  0.50250747  0.35315867  0.99775505  1  0.104742  0  0.119106  0.138505  0  0.983121  0
H  H110  1  0.51915780  0.51242551  0.15591379  1  0.048093  0  0.112462  0.124964  0  0.9855  0
H  H111  1  0.48083436  0.48758160  0.84408080  1  0.048169  0  0.112463  0.124964  0  0.985251  0
H  H112  1  0.44736033  0.47028939  0.10971002  1  0.089334  0  0.102842  0.117902  0  1.012674  0
H  H113  1  0.55263293  0.52971690  0.89028614  1  0.089403  0  0.102806  0.117862  0  1.012616  0
H  H114  1  0.37679897  0.60100277  0.13580762  1  0.080413  0  0.104113  0.116413  0  1.017204  0
H  H115  1  0.62319501  0.39900183  0.86418590  1  0.080122  0  0.104134  0.116422  0  1.017137  0
C  C116  1  0.81358213  0.70225447  0.14101894  1  1.550337  0  0.185391  0.566358  0  4.254011  0
C  C117  1  0.18641622  0.29774686  0.85898277  1  1.550392  0  0.185329  0.566041  0  4.254045  0
C  C118  1  0.79375834  0.74610582  0.19288806  1  -0.024028  0  -0.01607  -0.026775  0  3.979068  0
C  C119  1  0.20623460  0.25389716  0.80711367  1  -0.024057  0  -0.016121  -0.026689  0  3.978912  0
C  C120  1  0.80542808  0.84720190  0.19817569  1  -0.059424  0  -0.080574  -0.13659  0  3.949412  0
C  C121  1  0.19457004  0.15279608  0.80182658  1  -0.059506  0  -0.080601  -0.136716  0  3.949161  0
C  C122  1  0.75831707  0.69026199  0.23511959  1  -0.000832  0  -0.083288  -0.098284  0  3.987267  0
C  C123  1  0.24167711  0.30973597  0.76488276  1  -0.000143  0  -0.083264  -0.098279  0  3.987253  0
C  C124  1  0.72862240  0.73660235  0.28239170  1  -0.048618  0  -0.086832  -0.127377  0  3.987922  0
C  C125  1  0.27137843  0.26339481  0.71761057  1  -0.049383  0  -0.086841  -0.127392  0  3.98781  0
C  C126  1  0.73722146  0.83904554  0.28701283  1  -0.073033  0  -0.00728  0.022797  0  4.017713  0
C  C127  1  0.26277923  0.16094995  0.71299069  1  -0.073597  0  -0.007243  0.022902  0  4.017712  0
C  C128  1  0.77872281  0.89229429  0.24538807  1  -0.06559  0  -0.004347  0.01227  0  3.907062  0
C  C129  1  0.22126777  0.10770868  0.75461333  1  -0.065692  0  -0.004329  0.012433  0  3.907229  0
C  C130  1  0.78427951  0.99964306  0.26045371  1  0.056443  0  -0.005562  0.168203  0  3.848766  0
C  C131  1  0.21571589  0.00036161  0.73954865  1  0.056674  0  -0.005612  0.167852  0  3.84882  0
C  C132  1  0.71156154  0.10283833  0.22466633  1  -0.052482  0  -0.234901  -0.409229  0  3.893915  0
C  C133  1  0.28843906  0.89716134  0.77533580  1  -0.052394  0  -0.234854  -0.409102  0  3.893738  0
C  C134  1  0.90929531  0.99030564  0.26021308  1  -0.071273  0  -0.235319  -0.413419  0  3.910606  0
C  C135  1  0.09070498  0.00968899  0.73978779  1  -0.071756  0  -0.235293  -0.413341  0  3.910528  0
C  C136  1  0.73551133  0.00351161  0.31535048  1  -0.071409  0  -0.004581  0.017176  0  3.89895  0
C  C137  1  0.26448624  0.99648972  0.68465125  1  -0.071336  0  -0.00458  0.017322  0  3.898821  0
C  C138  1  0.70684954  0.90995359  0.32983007  1  -0.051748  0  -0.007644  0.025457  0  4.014136  0
C  C139  1  0.29314905  0.09004523  0.67017138  1  -0.051538  0  -0.007726  0.025239  0  4.014204  0
C  C140  1  0.65494451  0.89903783  0.37780976  1  -0.034358  0  -0.092381  -0.128572  0  3.988191  0
C  C141  1  0.34506668  0.10095520  0.62219329  1  -0.033441  0  -0.09229  -0.128479  0  3.988149  0
C  C142  1  0.63339360  0.98171949  0.41144977  1  -0.068125  0  -0.086885  -0.106414  0  3.993723  0
C  C143  1  0.36661487  0.01827437  0.58855406  1  -0.068145  0  -0.086924  -0.106412  0  3.993809  0
C  C144  1  0.71954913  0.08220390  0.35001678  1  -0.024739  0  -0.085956  -0.147308  0  3.968637  0
C  C145  1  0.28044564  0.91779657  0.64998351  1  -0.024775  0  -0.085928  -0.14725  0  3.968401  0
C  C146  1  0.66827184  0.07098990  0.39840627  1  0.003255  0  -0.018803  -0.030759  0  3.998795  0
C  C147  1  0.33172417  0.92901141  0.60159395  1  0.003144  0  -0.018805  -0.030978  0  3.998882  0
C  C148  1  0.65687271  0.15137367  0.43693004  1  1.536199  0  0.183327  0.565094  0  4.269905  0
C  C149  1  0.34313108  0.84862601  0.56307049  1  1.536208  0  0.183482  0.565578  0  4.269516  0
C  C150  1  0.58777367  0.20073588  0.61855993  1  1.558187  0  0.222057  0.607732  0  4.169558  0
C  C151  1  0.41224157  0.79925713  0.38143725  1  1.55888  0  0.221921  0.607616  0  4.1695  0
C  C152  1  0.64768890  0.13481836  0.66664242  1  0.017222  0  -0.019926  -0.042485  0  3.982774  0
C  C153  1  0.35232210  0.86517544  0.33335212  1  0.016755  0  -0.019906  -0.042312  0  3.982383  0
C  C154  1  0.58656446  0.13461959  0.71332524  1  -0.048252  0  -0.07986  -0.127142  0  3.932199  0
C  C155  1  0.41344810  0.86537423  0.28667080  1  -0.048075  0  -0.07978  -0.12702  0  3.932118  0
C  C156  1  0.76661044  0.07180599  0.66443704  1  -0.097799  0  -0.089835  -0.105099  0  4.005476  0
C  C157  1  0.23339791  0.92818446  0.33556081  1  -0.097541  0  -0.089892  -0.105288  0  4.00525  0
C  C158  1  0.82580714  0.00869064  0.70825388  1  -0.006849  0  -0.096275  -0.134666  0  4.023801  0
C  C159  1  0.17420225  0.99130316  0.29174261  1  -0.006842  0  -0.096324  -0.134597  0  4.023587  0
C  C160  1  0.76491747  0.00885311  0.75473439  1  -0.001333  0  -0.006564  0.029594  0  4.014389  0
C  C161  1  0.23509678  0.99114240  0.24526191  1  -0.001223  0  -0.006586  0.029483  0  4.014499  0
C  C162  1  0.64514700  0.07115186  0.75706367  1  -0.058776  0  -0.001261  0.022867  0  3.870657  0
C  C163  1  0.35486462  0.92884030  0.24293440  1  -0.058941  0  -0.001387  0.022555  0  3.871182  0
C  C164  1  0.59768875  0.05183033  0.81070728  1  0.059159  0  -0.003562  0.169028  0  3.836129  0
C  C165  1  0.40231460  0.94817437  0.18929222  1  0.058927  0  -0.003446  0.169405  0  3.835805  0
C  C166  1  0.51382124  0.99343224  0.80691875  1  -0.062099  0  -0.237413  -0.40715  0  3.890133  0
C  C167  1  0.48618119  0.00657079  0.19308202  1  -0.06204  0  -0.237475  -0.407414  0  3.890168  0
C  C168  1  0.53754529  0.16057184  0.83718189  1  -0.037968  0  -0.237621  -0.409047  0  3.886879  0
C  C169  1  0.46246264  0.83943537  0.16281392  1  -0.038017  0  -0.237537  -0.409132  0  3.886492  0
C  C170  1  0.70656930  0.97321895  0.83889603  1  -0.068799  0  -0.001684  0.020542  0  3.890172  0
C  C171  1  0.29343657  0.02678155  0.16110133  1  -0.068628  0  -0.001802  0.020363  0  3.889844  0
C  C172  1  0.80340464  0.95010224  0.80566445  1  -0.056574  0  -0.008218  0.026026  0  4.016385  0
C  C173  1  0.19660281  0.04989827  0.19433327  1  -0.05655  0  -0.00824  0.026192  0  4.016187  0
C  C174  1  0.91305991  0.87974605  0.82354759  1  -0.001864  0  -0.094488  -0.131123  0  4.016451  0
C  C175  1  0.08694343  0.12025278  0.17645261  1  -0.001859  0  -0.09443  -0.131147  0  4.016312  0
C  C176  1  0.71829204  0.92257687  0.88915545  1  -0.007362  0  -0.07841  -0.131966  0  3.93809  0
C  C177  1  0.28171011  0.07742697  0.11084181  1  -0.007319  0  -0.078309  -0.131998  0  3.938044  0
C  C178  1  0.92469008  0.83053061  0.87434208  1  -0.019149  0  -0.088416  -0.101149  0  3.995604  0
C  C179  1  0.07531396  0.16946654  0.12565742  1  -0.019042  0  -0.088539  -0.101282  0  3.995565  0
C  C180  1  0.82798361  0.84954786  0.90678929  1  -0.021768  0  -0.017645  -0.029737  0  3.984315  0
C  C181  1  0.17202108  0.15045350  0.09321113  1  -0.021958  0  -0.017562  -0.029452  0  3.98451  0
C  C182  1  0.83864945  0.78698807  0.95889820  1  1.535339  0  0.19269  0.573671  0  4.220381  0
C  C183  1  0.16135490  0.21301413  0.04110257  1  1.534967  0  0.192723  0.573546  0  4.220663  0
C  C184  1  0.86798517  0.50588013  0.93018341  1  1.601412  0  0.235201  0.658696  0  4.165381  0
C  C185  1  0.13201962  0.49412292  0.06981769  1  1.601365  0  0.235245  0.658712  0  4.165545  0
C  C186  1  0.80336536  0.52561002  0.88071954  1  0.026248  0  -0.016706  -0.042857  0  3.962225  0
C  C187  1  0.19664194  0.47439470  0.11927988  1  0.026921  0  -0.016752  -0.04288  0  3.962139  0
C  C188  1  0.83812907  0.44469928  0.84474079  1  -0.083317  0  -0.080426  -0.133866  0  3.931705  0
C  C189  1  0.16188049  0.55530378  0.15525868  1  -0.083388  0  -0.080289  -0.133802  0  3.931658  0
C  C190  1  0.70954628  0.62774507  0.86999698  1  -0.109392  0  -0.086048  -0.10535  0  3.995015  0
C  C191  1  0.29046305  0.37226051  0.13000274  1  -0.110362  0  -0.086015  -0.105115  0  3.994761  0
C  C192  1  0.65039314  0.65100537  0.82347401  1  -0.041673  0  -0.092384  -0.128391  0  4.003928  0
C  C193  1  0.34961629  0.34900189  0.17652639  1  -0.040989  0  -0.092339  -0.128406  0  4.003693  0
C  C194  1  0.68372124  0.56969912  0.78815323  1  -0.021714  0  -0.009156  0.024472  0  4.016121  0
C  C195  1  0.31627359  0.43030304  0.21185004  1  -0.022206  0  -0.009134  0.024266  0  4.015952  0
C  C196  1  0.77704316  0.46611202  0.79902680  1  -0.033352  0  -0.00335  0.016302  0  3.879535  0
C  C197  1  0.22295193  0.53388761  0.20097467  1  -0.033042  0  -0.003442  0.016262  0  3.879748  0
C  C198  1  0.79454265  0.39125876  0.75520567  1  0.059841  0  -0.004318  0.166769  0  3.832461  0
C  C199  1  0.20544881  0.60873416  0.24479740  1  0.059557  0  -0.00426  0.16666  0  3.832665  0
C  C200  1  0.91482206  0.36032032  0.73038215  1  -0.054056  0  -0.237896  -0.405303  0  3.898175  0
C  C201  1  0.08516859  0.63967846  0.26962139  1  -0.040078  0  -0.237864  -0.405207  0  3.898135  0
C  C202  1  0.77518615  0.28378808  0.77405247  1  -0.076733  0  -0.238763  -0.411254  0  3.895411  0
C  C203  1  0.22481341  0.71620238  0.22595172  1  -0.081421  0  -0.238781  -0.411171  0  3.895428  0
C  C204  1  0.70048450  0.46683198  0.71767561  1  0.021992  0  -0.00488  0.018335  0  3.884859  0
C  C205  1  0.29950796  0.53316430  0.28232803  1  0.021967  0  -0.004856  0.018284  0  3.884833  0
C  C206  1  0.63656723  0.57028016  0.73776103  1  -0.022611  0  -0.009244  0.024274  0  4.020655  0
C  C207  1  0.36343178  0.42971951  0.26224230  1  -0.021912  0  -0.009315  0.024766  0  4.020161  0
C  C208  1  0.54527474  0.65256387  0.70977166  1  -0.105294  0  -0.095426  -0.133505  0  4.006709  0
C  C209  1  0.45472814  0.34742826  0.29023006  1  -0.105281  0  -0.095413  -0.133641  0  4.006621  0
C  C210  1  0.51871114  0.63066866  0.66171895  1  -0.003778  0  -0.08636  -0.09187  0  3.984769  0
C  C211  1  0.48129003  0.36932180  0.33828405  1  -0.003846  0  -0.086373  -0.091912  0  3.98487  0
C  C212  1  0.67384628  0.44574210  0.66967840  1  -0.095151  0  -0.080656  -0.127124  0  3.935802  0
C  C213  1  0.32615117  0.55425755  0.33032341  1  -0.095156  0  -0.080602  -0.127035  0  3.936063  0
C  C214  1  0.58247358  0.52847588  0.64129601  1  -0.009484  0  -0.020457  -0.049865  0  3.96654  0
C  C215  1  0.41752400  0.47151957  0.35870487  1  -0.0093  0  -0.020525  -0.049965  0  3.966521  0
C  C216  1  0.55488950  0.50806186  0.58891663  1  1.5794  0  0.237914  0.666248  0  4.1465  0
C  C217  1  0.44511475  0.49193279  0.41108378  1  1.580674  0  0.237925  0.666152  0  4.147011  0
C  C218  1  0.92430236  0.18506096  0.50318784  1  1.407251  0  0.183566  0.306867  0  4.111723  0
C  C219  1  0.07567775  0.81496379  0.49681800  1  1.407521  0  0.183606  0.306963  0  4.11113  0
C  C220  1  0.04259994  0.10753628  0.58004890  1  0.226703  0  -0.131568  -0.273038  0  3.872655  0
C  C221  1  0.95738970  0.89245914  0.41995484  1  0.226375  0  -0.13163  -0.273225  0  3.872462  0
C  C222  1  0.12791171  0.07369833  0.49156073  1  0.241869  0  -0.123175  -0.274408  0  3.895544  0
C  C223  1  0.87207191  0.92630038  0.50843871  1  0.241671  0  -0.123229  -0.274499  0  3.895684  0
C  C224  1  0.60867554  0.60304400  0.08653013  1  1.364087  0  0.188915  0.321264  0  4.100156  0
C  C225  1  0.39132123  0.39695559  0.91346554  1  1.364168  0  0.189044  0.321472  0  4.100478  0
C  C226  1  0.43974407  0.64397455  0.03471879  1  0.237133  0  -0.121819  -0.266627  0  3.880452  0
C  C227  1  0.56025275  0.35602503  0.96527418  1  0.236837  0  -0.121843  -0.266667  0  3.8806  0
C  C228  1  0.46029475  0.54171749  0.12295209  1  0.25517  0  -0.1296  -0.286427  0  3.940946  0
C  C229  1  0.53969840  0.45828712  0.87704376  1  0.255229  0  -0.129567  -0.286381  0  3.94055  0
N  N230  1  0.02744557  0.12515420  0.52400509  1  -1.224462  0  -0.276571  0.032933  0  3.716216  0
N  N231  1  0.97254319  0.87483953  0.47599798  1  -1.224341  0  -0.276518  0.033145  0  3.716013  0
N  N232  1  0.50773919  0.59501716  0.08144226  1  -1.203131  0  -0.277531  0.02952  0  3.723489  0
N  N233  1  0.49225740  0.40497906  0.91855127  1  -1.203041  0  -0.277609  0.029511  0  3.72376  0
O  O234  1  0.82274020  0.76591649  0.10157434  1  -1.179842  0  -0.396299  -0.633617  0  2.151046  0
O  O235  1  0.17725541  0.23407981  0.89842962  1  -1.180036  0  -0.396275  -0.633593  0  2.15081  0
O  O236  1  0.81806435  0.60370467  0.13637550  1  -1.198042  0  -0.389947  -0.659606  0  2.212799  0
O  O237  1  0.18192986  0.39629913  0.86362424  1  -1.198089  0  -0.389831  -0.659482  0  2.212889  0
O  O238  1  0.73383599  0.19302473  0.43687099  1  -1.194804  0  -0.402711  -0.670498  0  2.203088  0
O  O239  1  0.26615966  0.80697743  0.56313073  1  -1.194839  0  -0.402731  -0.670722  0  2.202918  0
O  O240  1  0.57406137  0.17645290  0.46970141  1  -1.193184  0  -0.391423  -0.646623  0  2.172084  0
O  O241  1  0.42592948  0.82355927  0.53029679  1  -1.193174  0  -0.391547  -0.64682  0  2.172116  0
O  O242  1  0.64574777  0.18837043  0.57632802  1  -1.200309  0  -0.418664  -0.675856  0  2.297389  0
O  O243  1  0.35425949  0.81162084  0.42366826  1  -1.200451  0  -0.418723  -0.67604  0  2.297434  0
O  O244  1  0.48193379  0.26615547  0.62188013  1  -1.184381  0  -0.312464  -0.538288  0  2.184739  0
O  O245  1  0.51807136  0.73384673  0.37812023  1  -1.184702  0  -0.312301  -0.538064  0  2.184831  0
O  O246  1  0.93726366  0.71292128  0.97446182  1  -1.197557  0  -0.379041  -0.650464  0  2.239555  0
O  O247  1  0.06273719  0.28708174  0.02553859  1  -1.197484  0  -0.379029  -0.650519  0  2.239579  0
O  O248  1  0.74963419  0.80217289  0.98699581  1  -1.162489  0  -0.379296  -0.608477  0  2.151948  0
O  O249  1  0.25036613  0.19783347  0.01300328  1  -1.162158  0  -0.379276  -0.608525  0  2.152124  0
O  O250  1  0.81710875  0.56296574  0.96727140  1  -1.205907  0  -0.403501  -0.673537  0  2.304141  0
O  O251  1  0.18289953  0.43704236  0.03273013  1  -1.206078  0  -0.403556  -0.673755  0  2.3043  0
O  O252  1  0.97095283  0.43426184  0.93184715  1  -1.212458  0  -0.420248  -0.694122  0  2.351415  0
O  O253  1  0.02905164  0.56573616  0.06815307  1  -1.212765  0  -0.420243  -0.693927  0  2.351344  0
O  O254  1  0.46766523  0.58066986  0.56506410  1  -1.214243  0  -0.420411  -0.687072  0  2.328655  0
O  O255  1  0.53233408  0.41933900  0.43493372  1  -1.215503  0  -0.420414  -0.686956  0  2.328997  0
O  O256  1  0.62133745  0.41842135  0.57026099  1  -1.211647  0  -0.41559  -0.691233  0  2.335514  0
O  O257  1  0.37866489  0.58157412  0.42973902  1  -1.211523  0  -0.415574  -0.691212  0  2.335582  0
O  O258  1  0.43303309  0.35298053  0.53143986  1  -1.24879  0  -0.59757  -0.837411  0  2.096876  0
O  O259  1  0.56696480  0.64701997  0.46856305  1  -1.248439  0  -0.597539  -0.83738  0  2.096915  0
O  O260  1  0.73043585  0.43955595  0.47281953  1  -1.247505  0  -0.6279  -0.827761  0  1.997347  0
O  O261  1  0.26956360  0.56044871  0.52717774  1  -1.247516  0  -0.627873  -0.827627  0  1.997476  0
O  O262  1  0.88297690  0.43657888  0.07104434  1  -1.233862  0  -0.627945  -0.845295  0  2.016476  0
O  O263  1  0.11701852  0.56342993  0.92895125  1  -1.233545  0  -0.627938  -0.845437  0  2.016436  0
O  O264  1  0.83510552  0.23133989  0.52929577  1  -1.17961  0  -0.361466  -0.542704  0  2.366564  0
O  O265  1  0.16489533  0.76868661  0.47070378  1  -1.180014  0  -0.361559  -0.543008  0  2.36578  0
O  O266  1  0.65093439  0.65190887  0.05259973  1  -1.170069  0  -0.367271  -0.53896  0  2.344031  0
O  O267  1  0.34906203  0.34809744  0.94739636  1  -1.169937  0  -0.367292  -0.539158  0  2.344199  0
