# generated using pymatgen
data_CuH20C28S4(NO)4
_symmetry_space_group_name_H-M   'P 1'
_cell_length_a   10.62477707
_cell_length_b   11.02469125
_cell_length_c   12.26900000
_cell_angle_alpha   112.15757098
_cell_angle_beta   98.52040375
_cell_angle_gamma   90.57080466
_symmetry_Int_Tables_number   1
_chemical_formula_structural   CuH20C28S4(NO)4
_chemical_formula_sum   'Cu2 H40 C56 S8 N8 O8'
_cell_volume   1312.90078367
_cell_formula_units_Z   2
loop_
 _symmetry_equiv_pos_site_id
 _symmetry_equiv_pos_as_xyz
  1  'x, y, z'
loop_
 _atom_site_type_symbol
 _atom_site_label
 _atom_site_symmetry_multiplicity
 _atom_site_fract_x
 _atom_site_fract_y
 _atom_site_fract_z
 _atom_site_occupancy
 _atom_site_pbe_bader_charge
 _atom_site_pbe_bader_spin_density
 _atom_site_pbe_cm5_charge
 _atom_site_pbe_ddec_charge
 _atom_site_pbe_ddec_spin_density
 _atom_site_pbe_ddec_sum_bond_order
 _atom_site_pbe_magmom
Cu  Cu0  1  0.25014966  0.75622367  0.50027168  1  1.036612  0.549449  0.747402  0.73654  0.715725  2.213821  0.549
Cu  Cu1  1  0.74985005  0.24377600  0.49972834  1  1.036634  0.549466  0.747428  0.736576  0.715734  2.213763  0.549
H  H2  1  0.34179953  0.51037875  0.11181102  1  0.129115  0.001756  0.106295  0.147581  0.000852  1.010998  0.001
H  H3  1  0.65819834  0.48962190  0.88818991  1  0.129156  0.001757  0.106297  0.147558  0.000852  1.01098  0.001
H  H4  1  0.23612263  0.62546007  0.08995066  1  0.091471  -0.00026  0.111951  0.151164  -0.000279  0.974742  0.0
H  H5  1  0.76387518  0.37453960  0.91004911  1  0.091437  -0.000259  0.111947  0.151134  -0.000279  0.974767  0.0
H  H6  1  0.47303941  0.10069320  0.25312048  1  0.121276  0.000262  0.092579  0.111197  0.000323  1.05981  0.0
H  H7  1  0.52696308  0.89930548  0.74687955  1  0.121342  0.000262  0.09259  0.11124  0.000323  1.059816  0.0
H  H8  1  0.37593942  0.88541815  0.23631693  1  0.053585  4e-06  0.095318  0.101845  -2e-06  1.010352  0.0
H  H9  1  0.62406315  0.11458152  0.76368426  1  0.05363  5e-06  0.095326  0.101871  -2e-06  1.010352  0.0
H  H10  1  0.14405080  0.82507313  0.16112245  1  0.047211  2e-05  0.095625  0.097619  1.9e-05  1.013651  0.0
H  H11  1  0.85595169  0.17492556  0.83887840  1  0.047222  2e-05  0.095616  0.097588  1.9e-05  1.013661  0.0
H  H12  1  0.00567899  0.97577859  0.09983167  1  0.092602  -2e-06  0.103981  0.118824  -6e-06  1.014939  0.0
H  H13  1  0.99432256  0.02422010  0.90016988  1  0.092558  -2e-06  0.103973  0.118792  -6e-06  1.014948  0.0
H  H14  1  0.15994636  0.83400076  0.88863112  1  0.154679  0.001697  0.103502  0.139436  0.000853  1.025447  0.001
H  H15  1  0.84005613  0.16599792  0.11136810  1  0.154673  0.001697  0.103505  0.13946  0.000854  1.025447  0.001
H  H16  1  0.26635945  0.96920265  0.91254469  1  0.072186  -0.000269  0.115188  0.156847  -0.000295  0.962787  0.0
H  H17  1  0.73364122  0.03079702  0.08745463  1  0.072171  -0.000269  0.115186  0.15684  -0.000295  0.962789  0.0
H  H18  1  0.02163427  0.30549768  0.74052989  1  0.095042  0.00027  0.093023  0.111364  0.000315  1.062192  0.0
H  H19  1  0.97836476  0.69450591  0.25947056  1  0.095207  0.00027  0.093041  0.111367  0.000315  1.062179  0.0
H  H20  1  0.11408065  0.10488405  0.75950800  1  0.073046  4e-06  0.095972  0.101696  3e-06  1.011007  0.0
H  H21  1  0.88591635  0.89511758  0.24049070  1  0.073048  4e-06  0.095966  0.101682  3e-06  1.010986  0.0
H  H22  1  0.34451715  0.10918192  0.83747117  1  0.051014  1e-05  0.093005  0.092553  1e-05  1.024673  0.0
H  H23  1  0.65547977  0.89081873  0.16252882  1  0.050976  1e-05  0.093021  0.092574  1e-05  1.024673  0.0
H  H24  1  0.48671610  0.31279140  0.89847608  1  0.102603  3e-06  0.099405  0.111692  -1e-05  1.031907  0.0
H  H25  1  0.51328163  0.68720728  0.10152498  1  0.102576  3e-06  0.099388  0.111664  -1e-05  1.031933  0.0
H  H26  1  0.42643893  0.61525691  0.60894634  1  0.136129  0.001956  0.114919  0.088843  0.000849  1.011884  0.002
H  H27  1  0.57356173  0.38474276  0.39105053  1  0.136103  0.001956  0.114902  0.08884  0.000849  1.011917  0.002
H  H28  1  0.43639592  0.39332378  0.61172425  1  0.172003  0.000884  0.11118  0.138949  0.000492  1.039388  0.001
H  H29  1  0.56360474  0.60667589  0.38827344  1  0.17206  0.000884  0.111174  0.138955  0.000492  1.039372  0.001
H  H30  1  0.06338324  0.29557634  0.38622696  1  0.158088  0.000889  0.110869  0.139176  0.000485  1.040027  0.001
H  H31  1  0.93661654  0.70442431  0.61377339  1  0.158092  0.000889  0.11085  0.139119  0.000485  1.04002  0.001
H  H32  1  0.07313265  0.52082739  0.39091074  1  0.09923  0.001985  0.114697  0.088188  0.000848  1.014247  0.002
H  H33  1  0.92686713  0.47917326  0.60908880  1  0.099243  0.001985  0.11471  0.088213  0.000848  1.014228  0.002
H  H34  1  0.06358316  0.90324201  0.41080105  1  0.110285  0.002153  0.11989  0.089608  0.000919  1.010723  0.002
H  H35  1  0.93641566  0.09675864  0.58919918  1  0.110281  0.002152  0.119893  0.089614  0.000919  1.010711  0.002
H  H36  1  0.05311513  0.12588443  0.40924058  1  0.156275  0.000996  0.111213  0.133159  0.000561  1.05643  0.001
H  H37  1  0.94688369  0.87411623  0.59075965  1  0.156301  0.000996  0.111206  0.133112  0.000561  1.056397  0.001
H  H38  1  0.44680410  0.20541131  0.58931989  1  0.155793  0.000963  0.110847  0.132522  0.000544  1.063004  0.001
H  H39  1  0.55319656  0.79458836  0.41067943  1  0.155792  0.000963  0.110837  0.132497  0.000544  1.063007  0.001
H  H40  1  0.43608327  0.98211199  0.58941353  1  0.105773  0.002147  0.119838  0.089936  0.000921  1.005259  0.001
H  H41  1  0.56391555  0.01788866  0.41058670  1  0.105749  0.002147  0.119844  0.089916  0.000921  1.005255  0.001
C  C42  1  0.27989197  0.64297658  0.27266849  1  1.571559  -0.001721  0.19402  0.614933  -0.002444  4.187381  -0.004
C  C43  1  0.72010780  0.35702407  0.72733105  1  1.571552  -0.00172  0.193975  0.614844  -0.002444  4.187454  -0.004
C  C44  1  0.25564384  0.56009054  0.13868506  1  -0.135989  0.009969  -0.150048  -0.332503  0.007113  3.842937  0.008
C  C45  1  0.74435593  0.43991011  0.86131366  1  -0.136006  0.009969  -0.150038  -0.332423  0.007113  3.842932  0.008
C  C46  1  0.17134804  0.31860340  0.12904410  1  0.415494  4e-06  0.118134  0.099665  -7.8e-05  4.114324  0.0
C  C47  1  0.82865248  0.68139430  0.87095698  1  0.415543  4e-06  0.11809  0.099629  -7.8e-05  4.114224  0.0
C  C48  1  0.15949267  0.12466291  0.14381054  1  0.390316  3.5e-05  0.085566  0.182253  1.9e-05  4.07122  0.0
C  C49  1  0.84050799  0.87533675  0.85619205  1  0.390152  3.5e-05  0.085564  0.182196  1.9e-05  4.071275  0.0
C  C50  1  0.29209492  0.15864136  0.18783314  1  -0.23518  -6.2e-05  -0.019019  -0.033441  -8.9e-05  4.028334  0.0
C  C51  1  0.70790676  0.84135929  0.81216991  1  -0.234996  -6.1e-05  -0.018989  -0.033367  -8.9e-05  4.028273  0.0
C  C52  1  0.37128113  0.07387199  0.22155073  1  -0.071159  0.000307  -0.109404  -0.146935  0.000189  4.034509  0.0
C  C53  1  0.62872144  0.92612768  0.77845047  1  -0.071261  0.000307  -0.109471  -0.147069  0.000189  4.034567  0.0
C  C54  1  0.31629144  0.95367257  0.21109615  1  0.001709  6.5e-05  -0.107227  -0.105161  1.3e-05  4.051913  0.0
C  C55  1  0.68371017  0.04632710  0.78890656  1  0.001708  6.5e-05  -0.107184  -0.105156  1.3e-05  4.051733  0.0
C  C56  1  0.18540224  0.91924440  0.16832603  1  -0.045067  9.7e-05  -0.102042  -0.090856  3e-05  4.037888  0.0
C  C57  1  0.81460134  0.08075625  0.83167889  1  -0.045408  9.7e-05  -0.102056  -0.090824  3e-05  4.037664  0.0
C  C58  1  0.10656331  0.00344066  0.13459993  1  0.027874  0.000136  -0.091787  -0.150373  0.000106  3.951436  0.0
C  C59  1  0.89343640  0.99655901  0.86540416  1  0.028206  0.000136  -0.091781  -0.150327  0.000106  3.951469  0.0
C  C60  1  0.22174870  0.83525272  0.72851570  1  1.59599  -0.001803  0.194028  0.613301  -0.002404  4.192122  -0.004
C  C61  1  0.77825189  0.16474597  0.27148328  1  1.596005  -0.001803  0.194005  0.613244  -0.002404  4.192021  -0.004
C  C62  1  0.24633178  0.86290562  0.86217773  1  -0.175176  0.01015  -0.150273  -0.333564  0.007123  3.85448  0.008
C  C63  1  0.75366882  0.13709307  0.13782124  1  -0.175106  0.01015  -0.150273  -0.333583  0.007123  3.85445  0.008
C  C64  1  0.32837775  0.62858258  0.86666189  1  0.421446  -1e-06  0.116362  0.086822  -8.8e-05  4.12505  0.0
C  C65  1  0.67162393  0.37141807  0.13333871  1  0.421548  -1e-06  0.116401  0.086924  -8.8e-05  4.125005  0.0
C  C66  1  0.33627888  0.42160609  0.85018669  1  0.396461  4.4e-05  0.087109  0.187694  3.1e-05  4.057956  0.0
C  C67  1  0.66372185  0.57839456  0.14981297  1  0.396437  4.4e-05  0.087106  0.187679  3.1e-05  4.058011  0.0
C  C68  1  0.20439340  0.41802502  0.80516492  1  -0.241918  2e-06  -0.018164  -0.035303  -3e-05  4.03439  0.0
C  C69  1  0.79560740  0.58197661  0.19483346  1  -0.241903  2e-06  -0.018141  -0.035273  -3e-05  4.034397  0.0
C  C70  1  0.12308696  0.30502833  0.77189297  1  -0.004299  0.000262  -0.108706  -0.150107  0.000164  4.046989  0.0
C  C71  1  0.87691194  0.69497331  0.22810598  1  -0.004685  0.000262  -0.108732  -0.150131  0.000164  4.046937  0.0
C  C72  1  0.17519485  0.19441967  0.78435727  1  -0.033554  0.000153  -0.104333  -0.090976  8.4e-05  4.015747  0.0
C  C73  1  0.82480310  0.80558196  0.21564155  1  -0.033331  0.000153  -0.104364  -0.090969  8.4e-05  4.015595  0.0
C  C74  1  0.30541200  0.19680181  0.82887360  1  -0.055677  -5.4e-05  -0.103481  -0.094027  -9.8e-05  4.043644  0.0
C  C75  1  0.69458499  0.80319982  0.17112673  1  -0.055459  -5.4e-05  -0.10347  -0.094046  -9.8e-05  4.043621  0.0
C  C76  1  0.38643919  0.30904341  0.86166146  1  0.006151  0.000137  -0.0924  -0.149436  0.000104  3.957872  0.0
C  C77  1  0.61356059  0.69095724  0.13833890  1  0.005963  0.000137  -0.092375  -0.149373  0.000104  3.95793  0.0
C  C78  1  0.34906170  0.54037550  0.55972519  1  0.422569  -0.000771  0.043053  0.090089  -0.001178  3.955593  0.0
C  C79  1  0.65093889  0.45962318  0.44027215  1  0.422621  -0.000771  0.043078  0.090034  -0.001178  3.955631  0.0
C  C80  1  0.35304944  0.41513031  0.56074530  1  0.001344  0.005203  -0.079788  -0.166012  0.003583  3.898762  0.004
C  C81  1  0.64695122  0.58486936  0.43925239  1  0.001307  0.005203  -0.079784  -0.165969  0.003584  3.898646  0.004
C  C82  1  0.24990181  0.32194783  0.49898902  1  -0.047691  -0.003017  0.01661  0.109618  -0.003367  3.944687  -0.002
C  C83  1  0.75009796  0.67805282  0.50100970  1  -0.047741  -0.003017  0.016585  0.109554  -0.003367  3.944759  -0.002
C  C84  1  0.14673625  0.36163026  0.43747861  1  0.004527  0.005154  -0.079736  -0.166915  0.003592  3.896404  0.004
C  C85  1  0.85326250  0.63836940  0.56252047  1  0.00455  0.005153  -0.079705  -0.166805  0.003591  3.896325  0.004
C  C86  1  0.15057123  0.48831594  0.43968402  1  0.446108  -0.000736  0.043046  0.090559  -0.001129  3.955636  0.0
C  C87  1  0.84942855  0.51168471  0.56031552  1  0.446086  -0.000736  0.043037  0.090521  -0.001129  3.955649  0.0
C  C88  1  0.14558365  0.97448441  0.45063487  1  0.458536  -0.001065  0.048094  0.095014  -0.001411  3.94569  -0.001
C  C89  1  0.85441429  0.02551722  0.54936559  1  0.458566  -0.001065  0.048081  0.094965  -0.001411  3.945591  -0.001
C  C90  1  0.14134030  0.09972208  0.44972711  1  -0.041454  0.005463  -0.075933  -0.16451  0.00376  3.906542  0.004
C  C91  1  0.85865860  0.90027955  0.55027265  1  -0.04144  0.005463  -0.075899  -0.164389  0.00376  3.906388  0.004
C  C92  1  0.24992782  0.18795862  0.49913177  1  0.045714  -0.00292  0.018482  0.116025  -0.00327  3.935647  -0.002
C  C93  1  0.75007285  0.81204105  0.50086837  1  0.045697  -0.00292  0.018505  0.116025  -0.00327  3.935672  -0.002
C  C94  1  0.35852797  0.14366311  0.54898140  1  -0.062983  0.005483  -0.075584  -0.162337  0.003741  3.902587  0.004
C  C95  1  0.64147269  0.85633655  0.45101710  1  -0.06297  0.005484  -0.075582  -0.162343  0.003741  3.90253  0.004
C  C96  1  0.35421538  0.01797409  0.54900047  1  0.494722  -0.001153  0.047776  0.094872  -0.001435  3.946377  -0.001
C  C97  1  0.64578426  0.98202460  0.45099594  1  0.494711  -0.001153  0.047819  0.094945  -0.001435  3.946258  -0.001
S  S98  1  0.33215735  0.31209915  0.18849300  1  0.182708  -0.0  0.079542  0.069056  -6.1e-05  2.834385  0.0
S  S99  1  0.66784324  0.68789954  0.81150679  1  0.182618  -0.0  0.079559  0.069071  -6.1e-05  2.834337  0.0
S  S100  1  0.11719798  0.44474607  0.08684109  1  0.180765  0.000495  0.048787  0.08004  0.000284  2.861212  0.0
S  S101  1  0.88279976  0.55525261  0.91316078  1  0.180316  0.000495  0.048818  0.080072  0.000284  2.861323  0.0
S  S102  1  0.16677350  0.57166250  0.80675158  1  0.178969  3.8e-05  0.077291  0.065494  -3.6e-05  2.834616  0.0
S  S103  1  0.83322825  0.42833913  0.19324855  1  0.178944  3.8e-05  0.077265  0.065437  -3.6e-05  2.834646  0.0
S  S104  1  0.38418814  0.79170249  0.91238862  1  0.164454  0.000519  0.049312  0.081368  0.000297  2.799439  0.0
S  S105  1  0.61581259  0.20829816  0.08761185  1  0.164302  0.000519  0.04931  0.081342  0.000298  2.799432  0.0
N  N106  1  0.09432371  0.21726115  0.11163001  1  -1.189981  6.4e-05  -0.332877  -0.348013  1.5e-05  3.330352  0.0
N  N107  1  0.90567784  0.78273754  0.88837235  1  -1.189915  6.4e-05  -0.332899  -0.348035  1.5e-05  3.33025  0.0
N  N108  1  0.40345893  0.54151944  0.88297874  1  -1.184103  7.8e-05  -0.327381  -0.335688  2.9e-05  3.332471  0.0
N  N109  1  0.59654173  0.45848022  0.11702058  1  -1.18407  7.8e-05  -0.327413  -0.33575  3e-05  3.332461  0.0
N  N110  1  0.24970636  0.57682348  0.50003881  1  -1.235854  0.083366  -0.359153  -0.23826  0.056119  3.660454  0.072
N  N111  1  0.75029430  0.42317618  0.49995969  1  -1.235865  0.083361  -0.35917  -0.238254  0.056117  3.660453  0.072
N  N112  1  0.24989132  0.93404001  0.50005462  1  -1.237631  0.084614  -0.359506  -0.232077  0.056908  3.666511  0.073
N  N113  1  0.75010655  0.06596064  0.49994631  1  -1.237669  0.08461  -0.359582  -0.232127  0.056906  3.66636  0.073
O  O114  1  0.18129162  0.67737136  0.32448926  1  -1.121971  0.117275  -0.326083  -0.551978  0.075722  2.345136  0.106
O  O115  1  0.81870823  0.32263027  0.67551144  1  -1.12197  0.117269  -0.326061  -0.551933  0.075719  2.345148  0.106
O  O116  1  0.39265952  0.67403479  0.32491541  1  -1.19434  0.001342  -0.316847  -0.560997  -0.000153  2.210062  0.002
O  O117  1  0.60734121  0.32596586  0.67508507  1  -1.194342  0.001341  -0.31683  -0.560986  -0.000154  2.210099  0.002
O  O118  1  0.32009234  0.82542564  0.67593356  1  -1.120022  0.116424  -0.326438  -0.553947  0.075148  2.344173  0.105
O  O119  1  0.67990730  0.17457305  0.32406529  1  -1.120015  0.116421  -0.326435  -0.553934  0.075146  2.344055  0.105
O  O120  1  0.10889114  0.82464992  0.67751519  1  -1.187148  0.001524  -0.31769  -0.562091  -2.3e-05  2.207045  0.002
O  O121  1  0.89110850  0.17534877  0.32248367  1  -1.187165  0.001523  -0.317675  -0.562062  -2.4e-05  2.207063  0.002
