# generated using pymatgen
data_NdH4C12(O4F3)2
_symmetry_space_group_name_H-M   'P 1'
_cell_length_a   8.96473140
_cell_length_b   8.96678809
_cell_length_c   11.10732420
_cell_angle_alpha   109.02649142
_cell_angle_beta   108.89667525
_cell_angle_gamma   101.21760747
_symmetry_Int_Tables_number   1
_chemical_formula_structural   NdH4C12(O4F3)2
_chemical_formula_sum   'Nd2 H8 C24 O16 F12'
_cell_volume   752.29047492
_cell_formula_units_Z   2
loop_
 _symmetry_equiv_pos_site_id
 _symmetry_equiv_pos_as_xyz
  1  'x, y, z'
loop_
 _atom_site_type_symbol
 _atom_site_label
 _atom_site_symmetry_multiplicity
 _atom_site_fract_x
 _atom_site_fract_y
 _atom_site_fract_z
 _atom_site_occupancy
 _atom_site_hle17_bader_spin_density
 _atom_site_hle17_ddec_charge
 _atom_site_hle17_ddec_spin_density
 _atom_site_hle17_ddec_sum_bond_order
 _atom_site_hle17_magmom
 _atom_site_hse06_10hf_bader_spin_density
 _atom_site_hse06_10hf_ddec_charge
 _atom_site_hse06_10hf_ddec_spin_density
 _atom_site_hse06_10hf_ddec_sum_bond_order
 _atom_site_hse06_10hf_magmom
 _atom_site_hse06_bader_spin_density
 _atom_site_hse06_ddec_charge
 _atom_site_hse06_ddec_spin_density
 _atom_site_hse06_ddec_sum_bond_order
 _atom_site_hse06_magmom
 _atom_site_pbe_bader_spin_density
 _atom_site_pbe_cm5_charge
 _atom_site_pbe_ddec_charge
 _atom_site_pbe_ddec_spin_density
 _atom_site_pbe_ddec_sum_bond_order
 _atom_site_pbe_magmom
Nd  Nd0  1  0.12779564  0.83226915  0.95999044  1  0  2.322901  0  1.586519  0  0  2.221699  0  1.945404  0  0  2.261393  0  1.903719  0  0  1.491643  2.136566  0  2.078142  0
Nd  Nd1  1  0.87220395  0.16773175  0.04001162  1  0  2.322892  0  1.586547  0  0  2.221677  0  1.945433  0  0  2.261376  0  1.903743  0  0  1.49165  2.136526  0  2.078211  0
H  H2  1  0.31678048  0.71499528  0.75966287  1  0  0.449528  0  0.807474  0  0  0.428084  0  0.860718  0  0  0.43654  0  0.848252  0  0  0.326755  0.421763  0  0.869874  0
H  H3  1  0.95512927  0.55696901  0.24032942  1  0  0.449699  0  0.80705  0  0  0.428187  0  0.860503  0  0  0.43668  0  0.847957  0  0  0.326771  0.421833  0  0.869717  0
H  H4  1  0.68321697  0.28499934  0.24033519  1  0  0.449513  0  0.807506  0  0  0.428071  0  0.860738  0  0  0.436527  0  0.848272  0  0  0.326767  0.421752  0  0.869892  0
H  H5  1  0.04487107  0.44303061  0.75967161  1  0  0.449653  0  0.807057  0  0  0.428139  0  0.860555  0  0  0.436632  0  0.848012  0  0  0.32674  0.421787  0  0.869767  0
H  H6  1  0.39800622  0.90723590  0.84799268  1  0  0.471751  0  0.800767  0  0  0.441292  0  0.862887  0  0  0.451705  0  0.847337  0  0  0.317883  0.433609  0  0.874216  0
H  H7  1  0.05908408  0.54987069  0.15198230  1  0  0.472693  0  0.799786  0  0  0.442421  0  0.861371  0  0  0.452822  0  0.845841  0  0  0.318635  0.434769  0  0.872652  0
H  H8  1  0.60199209  0.09276123  0.15200626  1  0  0.471709  0  0.800838  0  0  0.441252  0  0.862951  0  0  0.451664  0  0.847405  0  0  0.317883  0.433568  0  0.874283  0
H  H9  1  0.94091701  0.45012767  0.84801860  1  0  0.472683  0  0.799793  0  0  0.442415  0  0.86137  0  0  0.452815  0  0.845841  0  0  0.318621  0.434762  0  0.872654  0
C  C10  1  0.75763182  0.75765739  0.00023234  1  0  0.771035  0  3.845311  0  0  0.72342  0  4.142197  0  0  0.759675  0  4.127069  0  0  0.248701  0.698397  0  4.148559  0
C  C11  1  0.24236169  0.24234985  0.99977153  1  0  0.771185  0  3.84497  0  0  0.723454  0  4.142062  0  0  0.759739  0  4.126873  0  0  0.248703  0.698435  0  4.148427  0
C  C12  1  0.62482757  0.62481195  0.00020624  1  0  -0.184527  0  3.746328  0  0  -0.190789  0  4.009413  0  0  -0.194637  0  4.021827  0  0  -0.014346  -0.189004  0  4.002958  0
C  C13  1  0.37517128  0.37519020  0.99979504  1  0  -0.184522  0  3.746275  0  0  -0.190775  0  4.009411  0  0  -0.19463  0  4.021816  0  0  -0.014321  -0.188997  0  4.002963  0
C  C14  1  0.13480691  0.14065143  0.27544980  1  0  0.752374  0  3.851386  0  0  0.700985  0  4.157359  0  0  0.736434  0  4.143542  0  0  0.23206  0.677151  0  4.159992  0
C  C15  1  0.86518970  0.85935451  0.72455277  1  0  0.752482  0  3.851056  0  0  0.700986  0  4.157219  0  0  0.736434  0  4.143403  0  0  0.23206  0.677147  0  4.159859  0
C  C16  1  0.26406739  0.13714932  0.40137571  1  0  -0.174692  0  3.712292  0  0  -0.177537  0  3.976835  0  0  -0.180298  0  3.98886  0  0  -0.010942  -0.176274  0  3.969931  0
C  C17  1  0.73593414  0.86285028  0.59862382  1  0  -0.174688  0  3.712271  0  0  -0.177489  0  3.976865  0  0  -0.180251  0  3.988893  0  0  -0.010952  -0.176222  0  3.969982  0
C  C18  1  0.22177904  0.03402060  0.46382948  1  0  0.202242  0  3.775832  0  0  0.158403  0  4.089206  0  0  0.167665  0  4.095505  0  0  0.09114  0.152148  0  4.085385  0
C  C19  1  0.57047661  0.75789077  0.53607400  1  0  0.199081  0  3.782409  0  0  0.157368  0  4.092549  0  0  0.165706  0  4.099966  0  0  0.090932  0.151136  0  4.088643  0
C  C20  1  0.77822206  0.96597774  0.53616872  1  0  0.202163  0  3.775772  0  0  0.158259  0  4.08919  0  0  0.167521  0  4.095489  0  0  0.091089  0.151993  0  4.085378  0
C  C21  1  0.42952449  0.24210757  0.46392509  1  0  0.19905  0  3.782553  0  0  0.157353  0  4.092661  0  0  0.165681  0  4.100071  0  0  0.090906  0.151125  0  4.088749  0
C  C22  1  0.33696643  0.04023649  0.58643910  1  0  0.212539  0  3.769385  0  0  0.173046  0  4.08045  0  0  0.184295  0  4.088474  0  0  0.095475  0.165209  0  4.075498  0
C  C23  1  0.45409411  0.75030420  0.41340515  1  0  0.215222  0  3.770867  0  0  0.174894  0  4.082087  0  0  0.185921  0  4.090893  0  0  0.095917  0.167183  0  4.077023  0
C  C24  1  0.66303701  0.95976183  0.41356061  1  0  0.212697  0  3.769156  0  0  0.173243  0  4.080251  0  0  0.184493  0  4.088269  0  0  0.095549  0.165417  0  4.075285  0
C  C25  1  0.54590849  0.24969160  0.58659099  1  0  0.215182  0  3.770914  0  0  0.174852  0  4.082058  0  0  0.185907  0  4.090829  0  0  0.095914  0.167148  0  4.076987  0
C  C26  1  0.50343721  0.15062486  0.65412815  1  0  -0.236989  0  3.736992  0  0  -0.241737  0  4.009037  0  0  -0.252133  0  4.029901  0  0  -0.033727  -0.23546  0  3.995993  0
C  C27  1  0.49656581  0.84937219  0.34586933  1  0  -0.237122  0  3.737002  0  0  -0.241893  0  4.009049  0  0  -0.252276  0  4.029915  0  0  -0.033755  -0.235622  0  3.996046  0
C  C28  1  0.64023936  0.60226925  0.12093193  1  0  0.190668  0  3.80312  0  0  0.156974  0  4.104264  0  0  0.165857  0  4.113019  0  0  0.091891  0.150583  0  4.09921  0
C  C29  1  0.48183292  0.51977002  0.87932554  1  0  0.193296  0  3.80373  0  0  0.15951  0  4.104626  0  0  0.168418  0  4.113426  0  0  0.092559  0.153135  0  4.099644  0
C  C30  1  0.35976056  0.39772911  0.87906776  1  0  0.190667  0  3.803109  0  0  0.156987  0  4.10424  0  0  0.165867  0  4.112997  0  0  0.091874  0.150597  0  4.099188  0
C  C31  1  0.51816656  0.48022710  0.12067461  1  0  0.19327  0  3.803763  0  0  0.159487  0  4.10467  0  0  0.168395  0  4.113469  0  0  0.092563  0.153119  0  4.099685  0
C  C32  1  0.62712809  0.16165631  0.78879403  1  0  0.670709  0  3.921221  0  0  0.623654  0  4.22902  0  0  0.656498  0  4.222429  0  0  0.194812  0.602576  0  4.22656  0
C  C33  1  0.37287388  0.83834454  0.21120504  1  0  0.670732  0  3.92135  0  0  0.623703  0  4.229158  0  0  0.656543  0  4.222566  0  0  0.194791  0.602605  0  4.226717  0
O  O34  1  0.86570361  0.70941145  0.96387162  1  0  -0.6923  0  1.995808  0  0  -0.653641  0  2.243412  0  0  -0.678136  0  2.231096  0  0  -0.378557  -0.629122  0  2.252753  0
O  O35  1  0.74550703  0.90196677  0.03645851  1  0  -0.69299  0  1.996737  0  0  -0.654103  0  2.243888  0  0  -0.67866  0  2.231651  0  0  -0.378442  -0.629501  0  2.25322  0
O  O36  1  0.13429698  0.29059569  0.03612961  1  0  -0.692297  0  1.995806  0  0  -0.653569  0  2.243442  0  0  -0.678073  0  2.231103  0  0  -0.37851  -0.629053  0  2.25279  0
O  O37  1  0.25448667  0.09803420  0.96354559  1  0  -0.693108  0  1.996444  0  0  -0.654202  0  2.243713  0  0  -0.678772  0  2.231463  0  0  -0.378496  -0.6296  0  2.253045  0
O  O38  1  0.58157845  0.06856899  0.84536866  1  0  -0.689475  0  1.97525  0  0  -0.650692  0  2.214308  0  0  -0.673059  0  2.203979  0  0  -0.366077  -0.629475  0  2.220637  0
O  O39  1  0.22317960  0.73638941  0.15480775  1  0  -0.688996  0  1.975058  0  0  -0.650997  0  2.214912  0  0  -0.673422  0  2.204631  0  0  -0.366209  -0.629725  0  2.221146  0
O  O40  1  0.41842352  0.93143185  0.15463041  1  0  -0.689515  0  1.975346  0  0  -0.650738  0  2.214387  0  0  -0.673103  0  2.204064  0  0  -0.366087  -0.629512  0  2.220715  0
O  O41  1  0.77682643  0.26361643  0.84519549  1  0  -0.689043  0  1.97498  0  0  -0.651029  0  2.214833  0  0  -0.673437  0  2.204504  0  0  -0.366225  -0.629763  0  2.221065  0
O  O42  1  0.32540920  0.80475137  0.84234363  1  0  -0.903361  0  1.81236  0  0  -0.865512  0  1.997189  0  0  -0.88186  0  1.966622  0  0  -0.622244  -0.846216  0  2.022551  0
O  O43  1  0.96221926  0.48295702  0.15762475  1  0  -0.904005  0  1.810894  0  0  -0.866357  0  1.996471  0  0  -0.88263  0  1.965755  0  0  -0.622736  -0.847089  0  2.022007  0
O  O44  1  0.67458675  0.19524579  0.15765649  1  0  -0.903294  0  1.812442  0  0  -0.865443  0  1.997269  0  0  -0.881801  0  1.966717  0  0  -0.622267  -0.846141  0  2.022627  0
O  O45  1  0.03777948  0.51704137  0.84237642  1  0  -0.903936  0  1.810862  0  0  -0.866284  0  1.996464  0  0  -0.882556  0  1.965752  0  0  -0.622689  -0.847013  0  2.021997  0
O  O46  1  0.11054599  0.04241078  0.15276356  1  0  -0.815949  0  2.147823  0  0  -0.770731  0  2.407632  0  0  -0.796506  0  2.396542  0  0  -0.414686  -0.740139  0  2.414595  0
O  O47  1  0.88944978  0.95759264  0.84723542  1  0  -0.815945  0  2.147733  0  0  -0.770717  0  2.407657  0  0  -0.796495  0  2.396568  0  0  -0.414673  -0.740123  0  2.414629  0
O  O48  1  0.05645951  0.24095721  0.29733909  1  0  -0.64276  0  1.883293  0  0  -0.614405  0  2.10564  0  0  -0.635623  0  2.093177  0  0  -0.344577  -0.593699  0  2.114732  0
O  O49  1  0.94353921  0.75904119  0.70266389  1  0  -0.642853  0  1.882919  0  0  -0.614454  0  2.105318  0  0  -0.635674  0  2.092858  0  0  -0.344605  -0.593741  0  2.114412  0
F  F50  1  0.27987464  0.93382728  0.63631396  1  0  -0.153197  0  1.275432  0  0  -0.099144  0  1.443496  0  0  -0.106666  0  1.431558  0  0  -0.07096  -0.093903  0  1.451636  0
F  F51  1  0.29797611  0.64289633  0.36336808  1  0  -0.153795  0  1.276343  0  0  -0.099727  0  1.444494  0  0  -0.107394  0  1.432836  0  0  -0.070758  -0.094435  0  1.452627  0
F  F52  1  0.72012807  0.06617230  0.36368498  1  0  -0.153246  0  1.27534  0  0  -0.099204  0  1.443399  0  0  -0.106723  0  1.431461  0  0  -0.070997  -0.093962  0  1.451534  0
F  F53  1  0.70202756  0.35709568  0.63662647  1  0  -0.153798  0  1.27632  0  0  -0.099752  0  1.444483  0  0  -0.107429  0  1.432813  0  0  -0.070783  -0.094464  0  1.452612  0
F  F54  1  0.06497864  0.92359497  0.40437390  1  0  -0.158097  0  1.262443  0  0  -0.108091  0  1.43117  0  0  -0.117728  0  1.421778  0  0  -0.082289  -0.102862  0  1.439388  0
F  F55  1  0.51957252  0.66047822  0.59552362  1  0  -0.157322  0  1.265004  0  0  -0.108148  0  1.43325  0  0  -0.11553  0  1.421739  0  0  -0.082536  -0.102905  0  1.441431  0
F  F56  1  0.93502332  0.07640588  0.59562607  1  0  -0.158121  0  1.262423  0  0  -0.108053  0  1.431129  0  0  -0.11769  0  1.421735  0  0  -0.082261  -0.102817  0  1.439352  0
F  F57  1  0.48042826  0.33952265  0.40447694  1  0  -0.157313  0  1.265016  0  0  -0.108148  0  1.433258  0  0  -0.115531  0  1.421749  0  0  -0.082538  -0.102914  0  1.441439  0
F  F58  1  0.77798330  0.69945492  0.24283212  1  0  -0.161955  0  1.263867  0  0  -0.118659  0  1.441124  0  0  -0.126989  0  1.430566  0  0  -0.07778  -0.112601  0  1.448742  0
F  F59  1  0.45762483  0.53608394  0.75767631  1  0  -0.163219  0  1.264684  0  0  -0.119559  0  1.441708  0  0  -0.128241  0  1.431201  0  0  -0.07823  -0.113535  0  1.449374  0
F  F60  1  0.22201619  0.30054218  0.75716623  1  0  -0.161984  0  1.263847  0  0  -0.118693  0  1.441099  0  0  -0.127023  0  1.430542  0  0  -0.077793  -0.112634  0  1.448716  0
F  F61  1  0.54238022  0.46391563  0.24232506  1  0  -0.163203  0  1.264741  0  0  -0.119543  0  1.441766  0  0  -0.128225  0  1.431258  0  0  -0.078235  -0.113517  0  1.449428  0
