# generated using pymatgen
data_Al2H31C36N2O10F
_symmetry_space_group_name_H-M   'P 1'
_cell_length_a   6.76107621
_cell_length_b   23.39160802
_cell_length_c   26.10244745
_cell_angle_alpha   78.12154729
_cell_angle_beta   91.22787704
_cell_angle_gamma   91.00541320
_symmetry_Int_Tables_number   1
_chemical_formula_structural   Al2H31C36N2O10F
_chemical_formula_sum   'Al4 H62 C72 N4 O20 F2'
_cell_volume   4038.47555173
_cell_formula_units_Z   2
loop_
 _symmetry_equiv_pos_site_id
 _symmetry_equiv_pos_as_xyz
  1  'x, y, z'
loop_
 _atom_site_type_symbol
 _atom_site_label
 _atom_site_symmetry_multiplicity
 _atom_site_fract_x
 _atom_site_fract_y
 _atom_site_fract_z
 _atom_site_occupancy
 _atom_site_pbe_bader_charge
 _atom_site_pbe_bader_spin_density
 _atom_site_pbe_cm5_charge
 _atom_site_pbe_ddec_charge
 _atom_site_pbe_ddec_spin_density
 _atom_site_pbe_ddec_sum_bond_order
 _atom_site_pbe_magmom
Al  Al0  1  0.88288024  0.50058435  0.50069037  1  2.502964  0  0.404254  1.645544  0  2.568124  0
Al  Al1  1  0.38291634  0.50142971  0.50180183  1  2.502161  0  0.403095  1.645897  0  2.566949  0
Al  Al2  1  0.30137311  0.00200001  0.00111789  1  2.504263  0  0.399736  1.632165  0  2.586945  0
Al  Al3  1  0.80196407  0.99816889  0.99938434  1  2.499187  0  0.401358  1.628275  0  2.576786  0
H  H4  1  0.35573770  0.79732724  0.86275065  1  0.042582  0  0.097575  0.097  0  1.092809  0
H  H5  1  0.87662585  0.18483791  0.16358762  1  0.063977  0  0.106579  0.111143  0  1.079038  0
H  H6  1  0.75258347  0.90717347  0.87905663  1  0.089929  0  0.106235  0.116706  0  1.027283  0
H  H7  1  0.26135695  0.09930360  0.10824939  1  0.095969  0  0.110866  0.120528  0  1.05242  0
H  H8  1  0.94250127  0.84273861  0.73371000  1  0.130359  0  0.114765  0.141412  0  0.985397  0
H  H9  1  0.30495717  0.18173919  0.24810735  1  0.105567  0  0.1133  0.139763  0  0.991371  0
H  H10  1  0.24635016  0.64671561  0.77711216  1  0.072089  0  0.103555  0.104737  0  0.994138  0
H  H11  1  0.84261704  0.32885818  0.24754693  1  0.071255  0  0.102261  0.101854  0  0.999513  0
H  H12  1  0.21673047  0.70426927  0.84634080  1  0.075086  0  0.101064  0.105225  0  0.999233  0
H  H13  1  0.82870042  0.27117321  0.17879188  1  0.04937  0  0.095528  0.095112  0  1.051613  0
H  H14  1  0.42700434  0.65234451  0.69273991  1  0.071496  0  0.099128  0.097926  0  1.009851  0
H  H15  1  0.90277668  0.31450157  0.34234922  1  0.070601  0  0.100729  0.102868  0  1.011948  0
H  H16  1  0.44218174  0.58975329  0.62608309  1  0.09822  0  0.109341  0.114308  0  0.99531  0
H  H17  1  0.92049203  0.37976153  0.40700314  1  0.071581  0  0.108838  0.113838  0  0.998886  0
H  H18  1  0.83153022  0.62467318  0.58501642  1  0.111784  0  0.11139  0.118039  0  0.992673  0
H  H19  1  0.29770169  0.41120216  0.38580179  1  0.097201  0  0.10949  0.11506  0  0.998646  0
H  H20  1  0.81638970  0.68950094  0.64948227  1  0.073975  0  0.100445  0.104396  0  1.006529  0
H  H21  1  0.27805990  0.34737275  0.32021849  1  0.035727  0  0.097054  0.098532  0  1.017686  0
H  H22  1  0.33380673  0.76043526  0.32448134  1  0.065852  0  0.097686  0.099735  0  0.973104  0
H  H23  1  0.83089630  0.24020778  0.67849974  1  0.034287  0  0.096759  0.097597  0  0.973422  0
H  H24  1  0.24062001  0.84143144  0.25937241  1  0.037904  0  0.096944  0.098253  0  0.969241  0
H  H25  1  0.73358888  0.15923052  0.74290806  1  0.02852  0  0.09728  0.099051  0  0.970222  0
H  H26  1  0.77018122  0.77521921  0.22030637  1  0.028945  0  0.091278  0.086995  0  0.98935  0
H  H27  1  0.27167660  0.22537080  0.77855171  1  0.021225  0  0.091138  0.086881  0  0.991254  0
H  H28  1  0.86183350  0.83345693  0.24802546  1  0.046699  0  0.09703  0.098229  0  0.974538  0
H  H29  1  0.35588216  0.16715499  0.75147179  1  0.022283  0  0.097  0.098358  0  0.974496  0
H  H30  1  0.95521071  0.77069649  0.32707823  1  0.027308  0  0.097031  0.098757  0  0.969011  0
H  H31  1  0.45134962  0.22994706  0.67311646  1  0.046201  0  0.096079  0.096698  0  0.969403  0
H  H32  1  0.79864977  0.71861338  0.30595532  1  0.046598  0  0.09478  0.093497  0  0.991006  0
H  H33  1  0.30109331  0.28199819  0.69312236  1  0.026642  0  0.095155  0.09381  0  0.989992  0
H  H34  1  0.25154229  0.73171403  0.17474112  1  0.016147  0  0.093628  0.09202  0  0.976876  0
H  H35  1  0.75968923  0.26887317  0.82778946  1  0.023822  0  0.093622  0.092  0  0.976792  0
H  H36  1  0.99361530  0.72738973  0.16346568  1  0.040766  0  0.095057  0.09375  0  0.978915  0
H  H37  1  0.50266669  0.27311825  0.83709801  1  0.02399  0  0.094374  0.092985  0  0.980036  0
H  H38  1  0.20216148  0.64957629  0.24259730  1  0.022458  0  0.09689  0.0977  0  0.974935  0
H  H39  1  0.71474970  0.35102401  0.75958071  1  0.049609  0  0.0965  0.097274  0  0.975685  0
H  H40  1  0.39691927  0.81226053  0.21817020  1  0.018086  0  0.093931  0.0918  0  0.992644  0
H  H41  1  0.89505466  0.18842110  0.78528301  1  0.040041  0  0.094498  0.092892  0  0.991214  0
H  H42  1  0.42503566  0.72239392  0.27830488  1  0.017161  0  0.091941  0.089043  0  0.990346  0
H  H43  1  0.92884296  0.27828293  0.72532134  1  -0.000309  0  0.091567  0.088212  0  0.989627  0
H  H44  1  0.94425922  0.66025301  0.24284833  1  0.040804  0  0.095765  0.09569  0  0.972275  0
H  H45  1  0.45576462  0.34024277  0.75738010  1  0.03931  0  0.095629  0.095815  0  0.973011  0
H  H46  1  0.40392535  0.90467387  0.94407990  1  0.496036  0  0.302898  0.260546  0  1.017081  0
H  H47  1  0.66652918  0.83855606  0.96483777  1  0.067725  0  0.104943  0.117969  0  0.994048  0
H  H48  1  0.55831976  0.79123978  0.92706682  1  0.007512  0  0.094677  0.09636  0  1.03179  0
H  H49  1  0.44887479  0.79680235  0.98732967  1  0.024736  0  0.084363  0.078957  0  0.996974  0
H  H50  1  0.94039889  0.08621536  0.07943080  1  0.467542  0  0.301114  0.260546  0  0.97076  0
H  H51  1  0.12597065  0.16441872  0.02869072  1  0.063095  0  0.102079  0.113594  0  0.989882  0
H  H52  1  0.96756924  0.21443683  0.05040401  1  0.030028  0  0.095479  0.099596  0  1.007884  0
H  H53  1  0.86906634  0.16766696  0.00986372  1  0.033433  0  0.08753  0.085729  0  1.003411  0
H  H54  1  0.59473528  0.85863928  0.82185394  1  0.420614  0  0.299005  0.245201  0  0.960295  0
H  H55  1  0.50343628  0.77165649  0.79533519  1  0.048031  0  0.096829  0.110748  0  1.022754  0
H  H56  1  0.61088766  0.74957768  0.85957837  1  0.015698  0  0.079526  0.068391  0  1.025963  0
H  H57  1  0.74924728  0.74689150  0.80332055  1  0.041153  0  0.094722  0.105918  0  1.03806  0
H  H58  1  0.09965372  0.16493979  0.13480907  1  0.473643  0  0.2862  0.221521  0  1.065543  0
H  H59  1  0.17152401  0.26543117  0.18151365  1  0.047065  0  0.089519  0.09452  0  1.01508  0
H  H60  1  0.04895971  0.26171349  0.12106763  1  0.031613  0  0.097149  0.096041  0  1.016354  0
H  H61  1  0.31033089  0.27141276  0.12365105  1  0.042105  0  0.095687  0.100303  0  0.994824  0
H  H62  1  0.63558624  0.57598572  0.47561300  1  0.626713  0  0.352575  0.430727  0  0.853098  0
H  H63  1  0.13222442  0.42548132  0.52546158  1  0.624858  0  0.353359  0.43187  0  0.851174  0
H  H64  1  0.54699307  0.92902673  0.03269703  1  0.606501  0  0.348271  0.420422  0  0.868008  0
H  H65  1  0.04772624  0.07315096  0.97137106  1  0.62843  0  0.347819  0.42033  0  0.869576  0
C  C66  1  0.55008177  0.07818392  0.92397587  1  1.654125  0  0.277162  0.735788  0  4.140971  0
C  C67  1  0.05699388  0.92230082  0.07701051  1  1.638046  0  0.276483  0.735211  0  4.142133  0
C  C68  1  0.63951137  0.42520924  0.57931583  1  1.693462  0  0.276245  0.729984  0  4.146715  0
C  C69  1  0.12719463  0.57641487  0.42298704  1  1.665457  0  0.275767  0.728805  0  4.151169  0
C  C70  1  0.61787909  0.43690170  0.43984716  1  1.555366  0  0.26609  0.642022  0  4.099871  0
C  C71  1  0.14355429  0.56556918  0.56227215  1  1.566819  0  0.265972  0.639292  0  4.106455  0
C  C72  1  0.23289458  0.86259009  0.89935538  1  0.387091  0  0.095473  0.215532  0  4.044717  0
C  C73  1  0.75195309  0.13213954  0.11257852  1  0.350872  0  0.07746  0.191175  0  4.020349  0
C  C74  1  0.22329711  0.82150450  0.86675182  1  0.022778  0  -0.110745  -0.248245  0  3.992996  0
C  C75  1  0.74094479  0.16906777  0.14816497  1  -0.039403  0  -0.102873  -0.231231  0  3.991008  0
C  C76  1  0.05868637  0.81362586  0.83586021  1  -0.003973  0  -0.010629  0.009314  0  3.973557  0
C  C77  1  0.56354156  0.18496617  0.16763168  1  -0.032356  0  -0.016337  -0.012167  0  3.982204  0
C  C78  1  0.88133606  0.84358103  0.84131996  1  0.336882  0  0.076172  0.152467  0  4.061985  0
C  C79  1  0.38653950  0.16309494  0.14836931  1  0.424694  0  0.095083  0.187894  0  4.049433  0
C  C80  1  0.88709659  0.88401682  0.87378361  1  -0.029804  0  -0.09787  -0.18842  0  3.998182  0
C  C81  1  0.39787336  0.11900262  0.11953532  1  0.021297  0  -0.096518  -0.189565  0  3.974103  0
C  C82  1  0.05810101  0.89539504  0.90194524  1  0.014298  0  -0.035447  -0.159136  0  3.985476  0
C  C83  1  0.57582307  0.10366156  0.10033725  1  -0.036972  0  -0.028193  -0.136028  0  4.00279  0
C  C84  1  0.01162865  0.80011207  0.74402817  1  0.009802  0  -0.094654  -0.243687  0  3.967437  0
C  C85  1  0.42425384  0.21389049  0.24693604  1  0.05382  0  -0.099395  -0.253311  0  3.976729  0
C  C86  1  0.02693518  0.76660303  0.70638166  1  0.42894  0  0.097007  0.245698  0  4.048217  0
C  C87  1  0.43341537  0.24788809  0.28455055  1  0.378551  0  0.096465  0.245585  0  4.049141  0
C  C88  1  0.11039269  0.71076676  0.71629007  1  0.037145  0  -0.018656  -0.050413  0  4.027002  0
C  C89  1  0.58200675  0.28994846  0.28690988  1  0.022388  0  -0.020896  -0.053849  0  4.02687  0
C  C90  1  0.18166085  0.69010520  0.76764731  1  -0.05457  0  -0.088706  -0.109248  0  4.014783  0
C  C91  1  0.72578683  0.29601008  0.24791962  1  -0.033014  0  -0.089935  -0.104927  0  4.020469  0
C  C92  1  0.16525173  0.72248925  0.80655455  1  -0.066475  0  -0.100528  -0.160907  0  4.025083  0
C  C93  1  0.71819977  0.26323171  0.20917120  1  -0.055075  0  -0.10357  -0.155887  0  4.005216  0
C  C94  1  0.07851776  0.77788910  0.79551612  1  -0.049184  0  -0.004241  0.101304  0  4.007914  0
C  C95  1  0.56745064  0.22133980  0.20767966  1  -0.001071  0  -0.004312  0.109678  0  3.993694  0
C  C96  1  0.29601688  0.64620921  0.66919170  1  -0.025288  0  -0.093283  -0.140658  0  3.989668  0
C  C97  1  0.77048624  0.33652321  0.35113461  1  -0.034517  0  -0.091797  -0.141751  0  3.979322  0
C  C98  1  0.30547173  0.61134459  0.63205000  1  -0.083374  0  -0.081261  -0.085177  0  3.98181  0
C  C99  1  0.78093501  0.37248371  0.38748317  1  -0.024415  0  -0.081217  -0.081658  0  3.982813  0
C  C100  1  0.13758291  0.60346504  0.60170510  1  -0.000533  0  -0.018168  -0.048994  0  3.977902  0
C  C101  1  0.60999860  0.39924525  0.40021622  1  -0.034603  0  -0.018894  -0.053899  0  3.983272  0
C  C102  1  0.96139643  0.63158330  0.60857358  1  -0.031475  0  -0.079676  -0.08083  0  3.974808  0
C  C103  1  0.42903085  0.38974673  0.37580978  1  0.02125  0  -0.081524  -0.081485  0  3.979509  0
C  C104  1  0.95360206  0.66750340  0.64474891  1  -0.05386  0  -0.092221  -0.139329  0  3.989596  0
C  C105  1  0.41881676  0.35393406  0.33945490  1  -0.037236  0  -0.093432  -0.140371  0  3.990558  0
C  C106  1  0.12044154  0.67495319  0.67598662  1  -0.031362  0  -0.005106  0.091537  0  4.008861  0
C  C107  1  0.58937063  0.32668793  0.32654966  1  -0.022918  0  -0.002838  0.096997  0  4.004784  0
C  C108  1  0.26650862  0.80254311  0.24303251  1  -0.001756  0  -0.152262  -0.188351  0  3.849936  0
C  C109  1  0.76417977  0.19811652  0.75947143  1  -0.032136  0  -0.153433  -0.191997  0  3.851453  0
C  C110  1  0.89582925  0.78948048  0.24229975  1  -0.038949  0  -0.153328  -0.188769  0  3.86035  0
C  C111  1  0.39470676  0.21112806  0.75746633  1  -0.010433  0  -0.153613  -0.189388  0  3.859818  0
C  C112  1  0.92905198  0.74689704  0.29532079  1  -0.020296  0  -0.15273  -0.191606  0  3.851779  0
C  C113  1  0.42931693  0.25373751  0.70470222  1  -0.026766  0  -0.152103  -0.189071  0  3.849848  0
C  C114  1  0.12769245  0.62217915  0.37661517  1  0.080052  0  -0.053994  -0.228478  0  3.990493  0
C  C115  1  0.63747830  0.37887740  0.62529065  1  0.259843  0  -0.054427  -0.230233  0  3.988868  0
C  C116  1  0.08388288  0.79228796  0.20884907  1  0.141321  0  0.000797  0.165609  0  3.896006  0
C  C117  1  0.58432883  0.20827553  0.79234089  1  0.13801  0  0.000412  0.166734  0  3.892042  0
C  C118  1  0.29947888  0.74797334  0.28691177  1  -0.054502  0  -0.154204  -0.192586  0  3.85698  0
C  C119  1  0.80013299  0.25269408  0.71583453  1  0.003747  0  -0.152347  -0.187676  0  3.853562  0
C  C120  1  0.11146398  0.70844783  0.29225230  1  0.124397  0  0.001877  0.172274  0  3.891735  0
C  C121  1  0.61571450  0.29218718  0.70916486  1  0.165169  0  0.000947  0.170534  0  3.894048  0
C  C122  1  0.08867127  0.68271360  0.24213505  1  -0.018779  0  -0.152022  -0.187515  0  3.84703  0
C  C123  1  0.59809801  0.31783676  0.75917229  1  -0.045639  0  -0.15133  -0.187669  0  3.852189  0
C  C124  1  0.10693687  0.73226823  0.19311041  1  -0.0184  0  -0.150779  -0.184455  0  3.85334  0
C  C125  1  0.61406244  0.26828603  0.80831243  1  -0.01695  0  -0.15099  -0.184328  0  3.853708  0
C  C126  1  0.12340248  0.66158620  0.33816764  1  -0.371595  0  -0.020167  -0.030423  0  4.030926  0
C  C127  1  0.63055261  0.33918597  0.66346815  1  -0.586059  0  -0.019668  -0.029472  0  4.03131  0
C  C128  1  0.06966655  0.83817160  0.16233212  1  -0.486275  0  -0.013342  -0.012551  0  4.02557  0
C  C129  1  0.56796252  0.16235071  0.83876208  1  -0.518857  0  -0.01288  -0.013051  0  4.021991  0
C  C130  1  0.06019665  0.87650769  0.12311882  1  0.21295  0  -0.057584  -0.243482  0  3.996029  0
C  C131  1  0.55563762  0.12404073  0.87790677  1  0.243246  0  -0.057776  -0.243434  0  3.99322  0
C  C132  1  0.56678261  0.06249247  0.06392256  1  1.53979  0  0.26386  0.649709  0  4.086505  0
C  C133  1  0.04572356  0.93713573  0.93704775  1  1.499405  0  0.259182  0.646994  0  4.085671  0
C  C134  1  0.52495601  0.82170822  0.95241422  1  0.305593  0  -0.141022  -0.20759  0  3.985398  0
C  C135  1  0.97601446  0.17048014  0.04193722  1  0.2341  0  -0.143864  -0.215439  0  3.956175  0
C  C136  1  0.63944762  0.77241301  0.81872023  1  0.267798  0  -0.151901  -0.225234  0  3.997481  0
C  C137  1  0.18278421  0.24905762  0.14504854  1  0.235002  0  -0.143442  -0.216779  0  3.981222  0
N  N138  1  0.40915339  0.87077274  0.92504523  1  -1.210704  0  -0.456798  -0.310888  0  3.544981  0
N  N139  1  0.93785035  0.12614505  0.08971361  1  -1.140701  0  -0.471485  -0.344358  0  3.446255  0
N  N140  1  0.70624470  0.83289309  0.81452738  1  -1.138565  0  -0.465359  -0.32383  0  3.507256  0
N  N141  1  0.20261524  0.18569665  0.15448723  1  -1.200052  0  -0.468986  -0.320677  0  3.542524  0
O  O142  1  0.45286552  0.45528947  0.45232989  1  -1.253106  0  -0.23884  -0.599231  0  2.356903  0
O  O143  1  0.97776554  0.55476753  0.54174621  1  -1.256449  0  -0.239029  -0.602505  0  2.364795  0
O  O144  1  0.80800313  0.44574722  0.56328212  1  -1.24287  0  -0.229036  -0.584247  0  2.272824  0
O  O145  1  0.29437764  0.56229555  0.44498863  1  -1.239726  0  -0.228185  -0.587853  0  2.283432  0
O  O146  1  0.78777068  0.44707436  0.45867259  1  -1.259687  0  -0.240368  -0.603115  0  2.341874  0
O  O147  1  0.31202351  0.54757104  0.55174692  1  -1.255503  0  -0.23779  -0.594261  0  2.332319  0
O  O148  1  0.95863382  0.55483945  0.43792618  1  -1.232636  0  -0.228815  -0.583221  0  2.275624  0
O  O149  1  0.47123264  0.44084350  0.55874567  1  -1.241493  0  -0.227684  -0.585997  0  2.281413  0
O  O150  1  0.21056723  0.95422134  0.95471923  1  -1.26938  0  -0.241311  -0.611867  0  2.424926  0
O  O151  1  0.72964799  0.04264080  0.05099180  1  -1.26579  0  -0.238437  -0.600661  0  2.381995  0
O  O152  1  0.63515081  0.53660151  0.49654868  1  -1.430749  0  -0.448884  -0.990089  0  2.167141  0
O  O153  1  0.13166661  0.46551615  0.50598697  1  -1.427585  0  -0.448727  -0.990594  0  2.17136  0
O  O154  1  0.38075853  0.06026097  0.94154664  1  -1.24495  0  -0.229329  -0.586213  0  2.276481  0
O  O155  1  0.88848178  0.93734598  0.05614764  1  -1.247743  0  -0.230902  -0.59178  0  2.284816  0
O  O156  1  0.54778510  0.96317033  0.00424250  1  -1.411912  0  -0.446774  -0.969695  0  2.139279  0
O  O157  1  0.05087367  0.03677281  0.99722149  1  -1.433793  0  -0.449289  -0.975212  0  2.150882  0
O  O158  1  0.71735386  0.05963862  0.94348074  1  -1.248752  0  -0.229515  -0.594523  0  2.296482  0
O  O159  1  0.22447407  0.94376859  0.06079653  1  -1.241784  0  -0.230211  -0.5888  0  2.283461  0
O  O160  1  0.39560770  0.05042774  0.04688633  1  -1.260979  0  -0.240592  -0.60308  0  2.362723  0
O  O161  1  0.87552144  0.95287668  0.94936704  1  -1.261003  0  -0.244534  -0.60038  0  2.324026  0
F  F162  1  0.95907214  0.79005997  0.65694691  1  -0.634799  0  -0.109457  -0.153934  0  1.321803  0
F  F163  1  0.29011533  0.23856506  0.32179608  1  -0.650147  0  -0.111875  -0.159034  0  1.324063  0
