# generated using pymatgen
data_Zn2H18C31Br6(NO9)2
_symmetry_space_group_name_H-M   'P 1'
_cell_length_a   9.95249841
_cell_length_b   10.91737613
_cell_length_c   10.95913917
_cell_angle_alpha   88.99463215
_cell_angle_beta   92.63330591
_cell_angle_gamma   83.69003885
_symmetry_Int_Tables_number   1
_chemical_formula_structural   Zn2H18C31Br6(NO9)2
_chemical_formula_sum   'Zn2 H18 C31 Br6 N2 O18'
_cell_volume   1181.99729244
_cell_formula_units_Z   1
loop_
 _symmetry_equiv_pos_site_id
 _symmetry_equiv_pos_as_xyz
  1  'x, y, z'
loop_
 _atom_site_type_symbol
 _atom_site_label
 _atom_site_symmetry_multiplicity
 _atom_site_fract_x
 _atom_site_fract_y
 _atom_site_fract_z
 _atom_site_occupancy
 _atom_site_pbe_bader_charge
 _atom_site_pbe_bader_spin_density
 _atom_site_pbe_cm5_charge
 _atom_site_pbe_ddec_charge
 _atom_site_pbe_ddec_spin_density
 _atom_site_pbe_ddec_sum_bond_order
 _atom_site_pbe_magmom
Zn  Zn0  1  0.35272924  0.50691547  0.48699533  1  1.310078  0  0.67709  0.861407  0  2.286837  0
Zn  Zn1  1  0.64604424  0.47929264  0.50875974  1  1.30239  0  0.684444  0.851465  0  2.390938  0
H  H2  1  0.27672529  0.55475134  0.88343160  1  0.070273  0  0.11177  0.11019  0  0.993511  0
H  H3  1  0.54678333  0.31237446  0.86787524  1  0.058826  0  0.103604  0.123644  0  0.957872  0
H  H4  1  0.62624519  0.32888918  0.07081492  1  0.182464  0  0.109087  0.108234  0  1.034377  0
H  H5  1  0.70184771  0.08909868  0.42932971  1  0.124535  0  0.108114  0.127639  0  1.000396  0
H  H6  1  0.18211324  0.15012874  0.54814905  1  0.093927  0  0.10921  0.12452  0  0.971428  0
H  H7  1  0.24668644  0.89264751  0.66725650  1  0.101491  0  0.103353  0.101767  0  1.007494  0
H  H8  1  0.86204306  0.39187473  0.34517050  1  0.172384  0  0.139434  0.133448  0  0.982374  0
H  H9  1  0.16756356  0.59970789  0.74372465  1  0.14154  0  0.111145  0.150393  0  1.026605  0
H  H10  1  0.09223681  0.73158881  0.65598951  1  0.142188  0  0.104782  0.147362  0  1.01238  0
H  H11  1  0.29106788  0.49082543  0.07373865  1  0.119374  0  0.099102  0.098075  0  1.000439  0
H  H12  1  0.37498888  0.35613057  0.89963245  1  0.045247  0  0.093043  0.105292  0  1.007704  0
H  H13  1  0.70438506  0.47363727  0.90635804  1  0.076997  0  0.097372  0.109027  0  1.017922  0
H  H14  1  0.65208920  0.63267324  0.88769974  1  0.113696  0  0.085749  0.106576  0  1.067815  0
H  H15  1  0.94404705  0.53180004  0.16254972  1  0.664786  0  0.312727  0.367423  0  0.942363  0
H  H16  1  0.35755843  0.09867432  0.88580417  1  0.625179  0  0.329426  0.364399  0  0.902614  0
H  H17  1  0.43201854  0.85685801  0.81552310  1  0.648197  0  0.325848  0.370962  0  0.894758  0
H  H18  1  0.26487900  0.26697161  0.24747719  1  0.616217  0  0.289858  0.333961  0  0.990021  0
H  H19  1  0.94331075  0.35143069  0.86393461  1  0.656042  0  0.358721  0.405144  0  0.815289  0
C  C20  1  0.48704666  0.72708045  0.48127033  1  1.618758  0  0.216225  0.611131  0  4.172991  0
C  C21  1  0.50183506  0.49480737  0.11677926  1  0.037817  0  -0.0129  -0.069135  0  3.695258  0
C  C22  1  0.52031181  0.36601615  0.05463716  1  -0.071943  0  -0.061105  0.044029  0  3.622491  0
C  C23  1  0.62501215  0.55799914  0.06969439  1  -0.000123  0  0.011197  0.048488  0  3.588047  0
C  C24  1  0.38915233  0.94299758  0.52578960  1  -0.051695  0  -0.012254  0.020797  0  3.904521  0
C  C25  1  0.49437572  0.86292683  0.48145047  1  0.056334  0  -0.006797  -0.083187  0  3.898089  0
C  C26  1  0.60848799  0.92110702  0.44838066  1  -0.135754  0  -0.005162  0.091096  0  3.910281  0
C  C27  1  0.61339386  0.04814368  0.45863869  1  0.070948  0  -0.08455  -0.146973  0  3.960834  0
C  C28  1  0.50738557  0.12533943  0.50622518  1  -0.011921  0  -0.010846  -0.048576  0  3.970444  0
C  C29  1  0.39605239  0.06844536  0.53996351  1  0.052434  0  -0.004222  0.055332  0  3.893421  0
C  C30  1  0.26148442  0.09127745  0.60044126  1  0.028238  0  -0.076166  -0.19336  0  3.814425  0
C  C31  1  0.49171818  0.51080592  0.73505609  1  1.588899  0  0.220787  0.595835  0  4.095047  0
C  C32  1  0.25361163  0.94764311  0.58358604  1  -0.000971  0  -0.059895  0.008847  0  3.682238  0
C  C33  1  0.93232876  0.54460318  0.58557812  1  0.609511  0  0.143966  0.140256  0  3.852178  0
C  C34  1  0.92090637  0.43778686  0.41328186  1  0.544015  0  0.074323  0.037092  0  3.800184  0
C  C35  1  0.05916923  0.44410647  0.39960867  1  0.424802  0  0.13936  0.087769  0  3.875626  0
C  C36  1  0.06814160  0.55752890  0.56718462  1  0.544212  0  0.150011  0.229604  0  3.874851  0
C  C37  1  0.08647798  0.63385948  0.67740767  1  -0.034335  0  -0.143878  -0.279341  0  3.781553  0
C  C38  1  0.93811427  0.60643773  0.70862834  1  0.012255  0  0.01512  -0.003775  0  3.713359  0
C  C39  1  0.51338175  0.26051828  0.51295983  1  1.589737  0  0.21598  0.597931  0  4.177953  0
C  C40  1  0.50861647  0.48309277  0.25811952  1  1.621749  0  0.210274  0.587008  0  4.14191  0
C  C41  1  0.36748746  0.58999669  0.92378420  1  -0.010165  0  -0.083148  -0.18248  0  3.775059  0
C  C42  1  0.36280039  0.55910496  0.06361928  1  -0.025576  0  -0.06997  0.017167  0  3.631586  0
C  C43  1  0.47924213  0.37743303  0.91847200  1  -0.011705  0  -0.165046  -0.240325  0  3.87832  0
C  C44  1  0.62613989  0.54722213  0.92895837  1  -0.060165  0  -0.176912  -0.2536  0  3.845102  0
C  C45  1  0.49120354  0.51159949  0.87524583  1  0.037442  0  -0.014076  0.048179  0  3.758328  0
C  C46  1  0.76586200  0.49890354  0.11990803  1  1.597809  0  0.227103  0.5748  0  4.075509  0
C  C47  1  0.26620643  0.13489811  0.73058363  1  1.492941  0  0.240714  0.629048  0  4.023043  0
C  C48  1  0.34689590  0.72519564  0.88050572  1  1.537529  0  0.226039  0.594537  0  4.065021  0
C  C49  1  0.12282574  0.38724219  0.28962777  1  1.615943  0  0.252218  0.568506  0  4.120074  0
C  C50  1  0.94858659  0.51961329  0.82093432  1  1.579002  0  0.236394  0.563547  0  4.111263  0
Br  Br51  1  0.76396073  0.83453459  0.38197717  1  -0.0182  0  0.040349  -0.02515  0  1.645355  0
Br  Br52  1  0.09639782  0.91576453  0.47797625  1  -0.115248  0  -0.019726  -0.116784  0  1.396751  0
Br  Br53  1  0.81272019  0.75168305  0.73418217  1  -0.009619  0  0.065399  0.000824  0  1.403051  0
Br  Br54  1  0.27264266  0.69460444  0.15687652  1  -0.080583  0  -0.015551  -0.082531  0  1.481891  0
Br  Br55  1  0.43201232  0.22569521  0.12472672  1  -0.171764  0  0.030699  -0.092588  0  1.384883  0
Br  Br56  1  0.60269771  0.73409047  0.11270174  1  -0.084689  0  0.00031  -0.086713  0  1.579725  0
N  N57  1  0.85458654  0.48590741  0.50990453  1  -1.180536  0  -0.274748  -0.149696  0  3.428963  0
N  N58  1  0.13816269  0.50395786  0.47848644  1  -1.181126  0  -0.266358  -0.201911  0  3.35679  0
O  O59  1  0.37148567  0.68974613  0.46147056  1  -1.147799  0  -0.310358  -0.533138  0  2.340785  0
O  O60  1  0.59799284  0.66111580  0.50617427  1  -1.166956  0  -0.313536  -0.557008  0  2.502718  0
O  O61  1  0.37982562  0.53989619  0.67553735  1  -1.175139  0  -0.309811  -0.539612  0  2.323411  0
O  O62  1  0.60487907  0.47539771  0.69109902  1  -1.17662  0  -0.31594  -0.54076  0  2.340088  0
O  O63  1  0.40375924  0.32520590  0.53676900  1  -1.162609  0  -0.312089  -0.541929  0  2.34383  0
O  O64  1  0.62619911  0.29989877  0.49234648  1  -1.152235  0  -0.314931  -0.528713  0  2.324971  0
O  O65  1  0.39962062  0.46505697  0.30817322  1  -1.178309  0  -0.318605  -0.566702  0  2.430133  0
O  O66  1  0.62181494  0.49170046  0.31266298  1  -1.160156  0  -0.297457  -0.526727  0  2.352292  0
O  O67  1  0.80067305  0.38736966  0.11258140  1  -1.16022  0  -0.307283  -0.49951  0  2.128432  0
O  O68  1  0.85112761  0.57809418  0.15596083  1  -1.158578  0  -0.330789  -0.463903  0  2.371436  0
O  O69  1  0.19424763  0.22167323  0.76953730  1  -1.139957  0  -0.291356  -0.487202  0  2.069576  0
O  O70  1  0.36252797  0.06521246  0.80318930  1  -1.130685  0  -0.334183  -0.495366  0  2.242429  0
O  O71  1  0.23642300  0.78642618  0.87506780  1  -1.144641  0  -0.293466  -0.489868  0  2.141543  0
O  O72  1  0.45886296  0.76982805  0.83908205  1  -1.149363  0  -0.332829  -0.475857  0  2.325743  0
O  O73  1  0.09499585  0.43137281  0.18665687  1  -1.107296  0  -0.245147  -0.450273  0  2.223883  0
O  O74  1  0.20779241  0.28803299  0.31854932  1  -1.124504  0  -0.306478  -0.424041  0  2.347747  0
O  O75  1  0.98450240  0.55025152  0.92212748  1  -1.109459  0  -0.258559  -0.42499  0  2.145959  0
O  O76  1  0.92250688  0.40492922  0.79093018  1  -1.12556  0  -0.314223  -0.451027  0  2.253395  0
