# generated using pymatgen
data_MnH6(C3O)4
_symmetry_space_group_name_H-M   'P 1'
_cell_length_a   4.86358479
_cell_length_b   13.32343704
_cell_length_c   15.00075159
_cell_angle_alpha   90.00022045
_cell_angle_beta   90.00037774
_cell_angle_gamma   92.43326610
_symmetry_Int_Tables_number   1
_chemical_formula_structural   MnH6(C3O)4
_chemical_formula_sum   'Mn4 H24 C48 O16'
_cell_volume   971.16724377
_cell_formula_units_Z   4
loop_
 _symmetry_equiv_pos_site_id
 _symmetry_equiv_pos_as_xyz
  1  'x, y, z'
loop_
 _atom_site_type_symbol
 _atom_site_label
 _atom_site_symmetry_multiplicity
 _atom_site_fract_x
 _atom_site_fract_y
 _atom_site_fract_z
 _atom_site_occupancy
 _atom_site_hle17_ddec_charge
 _atom_site_hle17_ddec_spin_density
 _atom_site_hle17_ddec_sum_bond_order
 _atom_site_hle17_magmom
 _atom_site_hse06_10hf_ddec_charge
 _atom_site_hse06_10hf_ddec_spin_density
 _atom_site_hse06_10hf_ddec_sum_bond_order
 _atom_site_hse06_10hf_magmom
 _atom_site_hse06_ddec_charge
 _atom_site_hse06_ddec_spin_density
 _atom_site_hse06_ddec_sum_bond_order
 _atom_site_hse06_magmom
 _atom_site_pbe_cm5_charge
 _atom_site_pbe_ddec_charge
 _atom_site_pbe_ddec_spin_density
 _atom_site_pbe_ddec_sum_bond_order
 _atom_site_pbe_magmom
Mn  Mn0  1  0.75035358  0.50324428  0.56313412  1  1.225257  4.775814  1.752995  4.662  1.078059  4.69961  2.236295  4.521  1.140066  4.746692  2.159827  4.59  0.615102  1.029895  4.649148  2.292479  4.451
Mn  Mn1  1  0.74964532  0.99675470  0.06313335  1  1.225218  4.775829  1.753058  4.662  1.078007  4.699623  2.236339  4.521  1.140011  4.746706  2.159876  4.59  0.615076  1.029847  4.649153  2.292518  4.451
Mn  Mn2  1  0.24964540  0.49675462  0.43686590  1  1.225227  4.775822  1.75304  4.662  1.078006  4.69962  2.236355  4.521  1.140007  4.746701  2.159896  4.59  0.615087  1.029848  4.649153  2.292538  4.451
Mn  Mn3  1  0.25035168  0.00324495  0.93686600  1  1.22522  4.77582  1.753046  4.662  1.077986  4.699616  2.236375  4.521  1.139999  4.746697  2.159894  4.59  0.615073  1.029816  4.649144  2.292553  4.451
H  H4  1  0.57646605  0.23609734  0.59325663  1  0.097126  -0.000447  0.952353  0.0  0.106317  -0.000371  1.016987  0.0  0.109156  -0.000409  1.015595  0.0  0.105907  0.104232  -0.000325  1.018132  0.0
H  H5  1  0.92353549  0.26390183  0.09325544  1  0.09713  -0.000439  0.952301  0.0  0.106317  -0.000371  1.016947  0.0  0.109154  -0.000409  1.015557  0.0  0.105912  0.104232  -0.000325  1.018088  0.0
H  H6  1  0.42353087  0.76390156  0.40674339  1  0.097127  -0.000428  0.95242  0.0  0.106326  -0.000371  1.017032  0.0  0.109165  -0.000409  1.015642  0.0  0.105909  0.104243  -0.000325  1.018182  0.0
H  H7  1  0.07646372  0.73609933  0.90674391  1  0.097084  -0.000434  0.952413  0.0  0.10628  -0.000371  1.017038  0.0  0.109118  -0.000409  1.015648  0.0  0.105886  0.104196  -0.000325  1.018184  0.0
H  H8  1  0.81480396  0.12796035  0.70238323  1  0.096935  -0.000216  0.956521  0.0  0.107023  -0.000186  1.01855  0.0  0.109845  -0.000203  1.017817  0.0  0.104572  0.104972  -0.000162  1.019195  0.0
H  H9  1  0.68519361  0.37203855  0.20238057  1  0.096904  -0.000221  0.956537  0.0  0.106992  -0.000186  1.018567  0.0  0.109815  -0.000203  1.017834  0.0  0.104562  0.104943  -0.000161  1.019212  0.0
H  H10  1  0.18518679  0.87203853  0.29761878  1  0.096921  -0.000219  0.956521  0.0  0.107005  -0.000186  1.018553  0.0  0.109828  -0.000203  1.017824  0.0  0.10458  0.104959  -0.000162  1.019202  0.0
H  H11  1  0.31480545  0.62796110  0.79762012  1  0.096914  -0.000195  0.95655  0.0  0.10701  -0.000185  1.018568  0.0  0.109832  -0.000203  1.017836  0.0  0.104583  0.104964  -0.000162  1.019213  0.0
H  H12  1  0.56874762  0.25424324  0.98950747  1  0.10265  -0.000738  0.969634  0.0  0.11338  -0.000727  1.029148  0.0  0.116354  -0.00078  1.027911  0.0  0.103189  0.111165  -0.000658  1.030202  0.0
H  H13  1  0.93125157  0.24575473  0.48950489  1  0.102586  -0.000729  0.9697  0.0  0.113366  -0.000727  1.029158  0.0  0.116341  -0.00078  1.02792  0.0  0.103199  0.11115  -0.000658  1.030214  0.0
H  H14  1  0.43125958  0.74575568  0.01049522  1  0.102656  -0.000717  0.969692  0.0  0.113369  -0.000727  1.029221  0.0  0.116343  -0.000781  1.027983  0.0  0.103195  0.111153  -0.000657  1.03028  0.0
H  H15  1  0.06874322  0.75424341  0.51049446  1  0.102662  -0.000736  0.969639  0.0  0.113359  -0.000727  1.029192  0.0  0.116332  -0.00078  1.027956  0.0  0.103177  0.111146  -0.000658  1.030251  0.0
H  H16  1  0.31086311  0.39784754  0.04212491  1  0.081861  6e-06  0.956758  0.0  0.094946  1e-05  1.014701  0.0  0.097349  9e-06  1.014312  0.0  0.097962  0.093212  1.6e-05  1.015084  0.0
H  H17  1  0.18913001  0.10215171  0.54212321  1  0.081868  3e-06  0.956768  0.0  0.094956  1e-05  1.014701  0.0  0.097359  9e-06  1.014311  0.0  0.09796  0.09322  1.6e-05  1.015078  0.0
H  H18  1  0.68913175  0.60215135  0.95787578  1  0.081826  1e-05  0.956777  0.0  0.094896  1e-05  1.014735  0.0  0.097299  9e-06  1.014346  0.0  0.097952  0.093165  1.6e-05  1.015116  0.0
H  H19  1  0.81086683  0.89784644  0.45787480  1  0.081812  8e-06  0.956792  0.0  0.094886  1e-05  1.014747  0.0  0.097288  9e-06  1.01436  0.0  0.09794  0.093153  1.6e-05  1.015127  0.0
H  H20  1  0.06073029  0.50283762  0.93230288  1  0.080938  -1.6e-05  0.976014  0.0  0.094006  4e-06  1.035934  0.0  0.09606  5e-06  1.035642  0.0  0.097878  0.09252  7e-06  1.036235  0.0
H  H21  1  0.43926658  0.99716039  0.43230186  1  0.080983  -1.4e-05  0.975931  0.0  0.094029  4e-06  1.035882  0.0  0.096083  5e-06  1.035582  0.0  0.097849  0.092543  7e-06  1.036173  0.0
H  H22  1  0.93926435  0.49715902  0.06769714  1  0.081007  -1.7e-05  0.975947  0.0  0.094051  4e-06  1.035892  0.0  0.096109  5e-06  1.035593  0.0  0.097866  0.092565  7e-06  1.036179  0.0
H  H23  1  0.56073461  0.00284002  0.56769683  1  0.080986  -0.0  0.975939  0.0  0.094038  4e-06  1.035876  0.0  0.096093  5e-06  1.035576  0.0  0.097863  0.092548  7e-06  1.036169  0.0
H  H24  1  0.07385221  0.46363004  0.77283415  1  0.099595  -0.00038  0.978964  0.0  0.108898  -0.000283  1.040335  0.0  0.111888  -0.000357  1.039221  0.0  0.102972  0.106717  -0.000197  1.041268  0.0
H  H25  1  0.42614975  0.03636954  0.27283352  1  0.099572  -0.000384  0.978986  0.0  0.108871  -0.000283  1.040366  0.0  0.11186  -0.000357  1.039254  0.0  0.102954  0.106691  -0.000196  1.041293  0.0
H  H26  1  0.92614677  0.53636887  0.22716653  1  0.099656  -0.000401  0.978977  0.0  0.108944  -0.000283  1.040367  0.0  0.111933  -0.000357  1.039253  0.0  0.102973  0.10676  -0.000196  1.041293  0.0
H  H27  1  0.57384930  0.96363011  0.72716584  1  0.099604  -0.000392  0.978968  0.0  0.108906  -0.000283  1.040339  0.0  0.111896  -0.000357  1.039226  0.0  0.10296  0.106721  -0.000196  1.04126  0.0
C  C28  1  0.23603312  0.38086843  0.62406697  1  0.69285  0.012004  3.803455  0.012  0.636725  0.021848  4.0965  0.02  0.675025  0.016154  4.087243  0.015  0.240129  0.60938  0.028048  4.102288  0.024
C  C29  1  0.26396978  0.11912972  0.12406760  1  0.692935  0.012005  3.803358  0.012  0.636725  0.021849  4.096531  0.02  0.675013  0.016153  4.087273  0.015  0.240117  0.609382  0.02805  4.102313  0.024
C  C30  1  0.76396791  0.61913048  0.37593171  1  0.69279  0.011998  3.803571  0.012  0.636654  0.021849  4.096641  0.02  0.67494  0.016155  4.087386  0.015  0.240092  0.609316  0.02805  4.102423  0.024
C  C31  1  0.73602920  0.88086918  0.87593108  1  0.692924  0.011988  3.803414  0.012  0.636738  0.021848  4.096563  0.02  0.675023  0.016153  4.087306  0.015  0.240108  0.60939  0.02805  4.102348  0.024
C  C32  1  0.37370903  0.32001292  0.69327688  1  -0.096006  0.001865  3.69445  0.002  -0.082527  0.003419  3.936192  0.002  -0.089537  0.001905  3.95543  0.002  -0.005935  -0.078166  0.005385  3.923894  0.004
C  C33  1  0.12629547  0.17998705  0.19327409  1  -0.095991  0.001937  3.694299  0.002  -0.082547  0.003418  3.936137  0.002  -0.089521  0.001907  3.955329  0.002  -0.005958  -0.078172  0.005384  3.923829  0.004
C  C34  1  0.62629642  0.67998900  0.30672514  1  -0.095909  0.001959  3.694307  0.002  -0.082506  0.003418  3.93613  0.002  -0.089473  0.001904  3.955316  0.002  -0.005958  -0.078136  0.005385  3.923824  0.004
C  C35  1  0.87370579  0.82001411  0.80672459  1  -0.095994  0.00196  3.694405  0.002  -0.082565  0.003418  3.936251  0.002  -0.089534  0.001905  3.955435  0.002  -0.005958  -0.078183  0.005384  3.923938  0.004
C  C36  1  0.54686875  0.24658502  0.66456704  1  -0.051181  0.001653  3.737866  0.002  -0.080117  0.002845  3.999326  0.003  -0.078765  0.001843  4.016577  0.002  -0.079892  -0.081097  0.004254  3.987981  0.004
C  C37  1  0.95313238  0.25341597  0.16456655  1  -0.051303  0.001583  3.737825  0.002  -0.080225  0.002846  3.999313  0.003  -0.078883  0.00184  4.016555  0.002  -0.079931  -0.081202  0.004255  3.987961  0.004
C  C38  1  0.45313061  0.75341764  0.33543364  1  -0.051361  0.001539  3.738013  0.002  -0.080283  0.002846  3.999495  0.003  -0.078945  0.001842  4.016738  0.002  -0.079953  -0.081264  0.004255  3.988158  0.004
C  C39  1  0.04686477  0.74658518  0.83543214  1  -0.051196  0.001558  3.737913  0.002  -0.080111  0.002845  3.999391  0.003  -0.078772  0.00184  4.01663  0.002  -0.079869  -0.081094  0.004255  3.988047  0.004
C  C40  1  0.68180815  0.18619804  0.72584202  1  -0.062438  0.001226  3.732152  0.001  -0.089961  0.002883  3.990656  0.002  -0.090061  0.00176  4.00898  0.001  -0.080123  -0.08994  0.004311  3.978458  0.003
C  C41  1  0.81818991  0.31380098  0.22584077  1  -0.062354  0.001288  3.732087  0.001  -0.089878  0.002881  3.990561  0.002  -0.089978  0.001761  4.008887  0.001  -0.080087  -0.089848  0.004311  3.978365  0.003
C  C42  1  0.31819106  0.81380312  0.27416000  1  -0.062293  0.001312  3.73208  0.001  -0.089823  0.002883  3.99057  0.002  -0.089925  0.001765  4.008895  0.001  -0.08005  -0.089799  0.004311  3.978383  0.003
C  C43  1  0.18180709  0.68619867  0.77415792  1  -0.062398  0.00126  3.732196  0.001  -0.089938  0.002881  3.990702  0.002  -0.090039  0.001762  4.009027  0.001  -0.080119  -0.089906  0.004311  3.978513  0.003
C  C44  1  0.64593976  0.19868929  0.81676078  1  -0.088864  0.00285  3.691875  0.003  -0.075545  0.004217  3.933487  0.003  -0.081687  0.002715  3.952404  0.002  -0.003412  -0.071676  0.006355  3.921303  0.005
C  C45  1  0.85405615  0.30131089  0.31675956  1  -0.088868  0.00279  3.691887  0.003  -0.075532  0.004219  3.933454  0.003  -0.081672  0.002716  3.952369  0.002  -0.003425  -0.071669  0.006357  3.921284  0.005
C  C46  1  0.35406174  0.80131412  0.18324058  1  -0.088819  0.002767  3.691742  0.003  -0.075496  0.004218  3.933313  0.003  -0.081632  0.002709  3.952229  0.002  -0.003422  -0.071633  0.006356  3.921137  0.005
C  C47  1  0.14594701  0.69868878  0.68324046  1  -0.088901  0.00276  3.691992  0.003  -0.075574  0.00422  3.933563  0.003  -0.081713  0.002711  3.95248  0.002  -0.003433  -0.071714  0.006356  3.921401  0.005
C  C48  1  0.48117687  0.27719523  0.84959709  1  0.060794  0.00025  3.715451  0.0  0.068409  0.001087  3.94473  0.001  0.068963  0.000491  3.968498  0.001  0.005604  0.067955  0.001784  3.92888  0.002
C  C49  1  0.01882060  0.22280545  0.34959622  1  0.06082  0.000321  3.715526  0.001  0.06843  0.001086  3.944794  0.001  0.068985  0.000491  3.968563  0.001  0.005647  0.067978  0.001784  3.928955  0.002
C  C50  1  0.51883087  0.72280895  0.15040160  1  0.060708  0.000323  3.715493  0.001  0.068332  0.001088  3.944723  0.001  0.068886  0.000491  3.968492  0.001  0.005611  0.06788  0.001785  3.928874  0.002
C  C51  1  0.98117838  0.77719346  0.65040180  1  0.060731  0.000327  3.715537  0.001  0.068388  0.001087  3.94474  0.001  0.068941  0.00049  3.968512  0.001  0.005612  0.06794  0.001784  3.928897  0.002
C  C52  1  0.34022889  0.33832596  0.78666020  1  0.061097  0.001104  3.713589  0.001  0.070326  0.0018  3.940306  0.002  0.070961  0.001254  3.964377  0.001  0.005926  0.069866  0.002516  3.924207  0.002
C  C53  1  0.15977351  0.16167519  0.28665942  1  0.061152  0.001013  3.71344  0.001  0.070392  0.001801  3.940165  0.002  0.071015  0.001254  3.964232  0.001  0.005946  0.069931  0.002517  3.924074  0.002
C  C54  1  0.65978090  0.66167823  0.21334049  1  0.061139  0.00101  3.713349  0.001  0.070414  0.001801  3.940027  0.002  0.071035  0.001255  3.964091  0.001  0.005941  0.069953  0.002517  3.923925  0.002
C  C55  1  0.84023186  0.83832598  0.71333993  1  0.061136  0.001021  3.713408  0.001  0.070375  0.001801  3.940128  0.002  0.070998  0.001253  3.964194  0.001  0.005953  0.069912  0.002516  3.924029  0.002
C  C56  1  0.46298631  0.30043086  0.94183049  1  -0.103953  -0.000145  3.719668  0.0  -0.127082  -0.00021  3.972747  0.0  -0.129618  -0.000312  3.994008  0.0  -0.090711  -0.125407  2e-06  3.958558  0.0
C  C57  1  0.03701491  0.19956799  0.44182824  1  -0.103869  -0.000233  3.719698  0.0  -0.12704  -0.000209  3.972767  0.0  -0.129575  -0.000314  3.994024  0.0  -0.090706  -0.125369  2e-06  3.958577  0.0
C  C58  1  0.53702120  0.69957106  0.05817020  1  -0.10397  -0.00028  3.719821  0.0  -0.127085  -0.00021  3.972868  0.0  -0.12962  -0.000311  3.994124  0.0  -0.090738  -0.125417  2e-06  3.958684  0.0
C  C59  1  0.96298605  0.80043017  0.55817111  1  -0.103873  -0.000218  3.719696  0.0  -0.126989  -0.00021  3.972745  0.0  -0.129524  -0.000312  3.994003  0.0  -0.090657  -0.125324  2e-06  3.958568  0.0
C  C60  1  0.31634647  0.38025682  0.97113367  1  -0.072068  -0.000261  3.803557  0.0  -0.087041  9.5e-05  4.058748  0.0  -0.089514  -0.000105  4.081438  0.0  -0.095375  -0.085287  0.000278  4.043301  0.0
C  C61  1  0.18365306  0.11973991  0.47113280  1  -0.072146  -0.000155  3.803554  0.0  -0.087128  9.5e-05  4.058764  0.0  -0.0896  -0.000101  4.081453  0.0  -0.095419  -0.085365  0.000278  4.043301  0.0
C  C62  1  0.68365875  0.61974285  0.02886702  1  -0.07198  -0.000137  3.80359  0.0  -0.086952  9.6e-05  4.058774  0.0  -0.089423  -0.000104  4.081465  0.0  -0.095343  -0.085192  0.000278  4.04332  0.0
C  C63  1  0.81634576  0.88025749  0.52886656  1  -0.072055  -0.000169  3.803547  0.0  -0.087025  9.6e-05  4.058744  0.0  -0.089498  -0.000103  4.081434  0.0  -0.095377  -0.085262  0.000278  4.04329  0.0
C  C64  1  0.17587783  0.43940566  0.90941271  1  -0.075829  0.000431  3.808156  0.0  -0.090584  0.000473  4.059924  0.0  -0.092756  0.000358  4.082821  0.0  -0.095852  -0.089014  0.000689  4.044255  0.0
C  C65  1  0.32412491  0.06059455  0.40941127  1  -0.075852  0.000351  3.808235  0.0  -0.09059  0.000472  4.059977  0.0  -0.092758  0.000357  4.082871  0.0  -0.095806  -0.089014  0.000689  4.044297  0.0
C  C66  1  0.82412122  0.56059399  0.09058931  1  -0.075888  0.000322  3.808292  0.0  -0.090624  0.000472  4.060029  0.0  -0.092798  0.000354  4.082927  0.0  -0.095821  -0.089049  0.000689  4.044342  0.0
C  C67  1  0.67587627  0.93940586  0.59058741  1  -0.075846  0.000325  3.808186  0.0  -0.090587  0.000473  4.059926  0.0  -0.092755  0.000356  4.082819  0.0  -0.095833  -0.089013  0.000689  4.044232  0.0
C  C68  1  0.18536199  0.41834902  0.81964985  1  -0.111883  -0.000789  3.742272  0.0  -0.133218  -0.000596  3.992704  0.0  -0.136051  -0.000718  4.013973  0.0  -0.092727  -0.131269  -0.000431  3.97831  0.0
C  C69  1  0.31464095  0.08165078  0.31964913  1  -0.111878  -0.000624  3.742334  0.0  -0.133205  -0.000597  3.992745  0.0  -0.136041  -0.000717  4.014021  0.0  -0.092703  -0.131253  -0.000431  3.978344  0.0
C  C70  1  0.81464331  0.58165140  0.18035217  1  -0.111975  -0.00052  3.742395  0.0  -0.133309  -0.000596  3.99279  0.0  -0.136143  -0.00071  4.014065  0.0  -0.092743  -0.131357  -0.000431  3.978377  0.0
C  C71  1  0.68535818  0.91834963  0.68034956  1  -0.11192  -0.000598  3.742305  0.0  -0.133255  -0.000597  3.992726  0.0  -0.136092  -0.000715  4.014001  0.0  -0.092711  -0.131294  -0.000431  3.978302  0.0
C  C72  1  0.77567170  0.12545170  0.87736375  1  0.696169  0.012982  3.797759  0.013  0.641079  0.023165  4.089577  0.021  0.679483  0.017191  4.079645  0.016  0.241016  0.613596  0.029636  4.095902  0.026
C  C73  1  0.72431930  0.37454875  0.37736185  1  0.696137  0.012985  3.798065  0.013  0.641067  0.023162  4.089834  0.021  0.679467  0.01719  4.079906  0.016  0.241002  0.613589  0.029635  4.096158  0.026
C  C74  1  0.22431936  0.87455019  0.12263827  1  0.696088  0.012996  3.797912  0.013  0.641035  0.023165  4.089645  0.021  0.679434  0.017192  4.079724  0.016  0.241013  0.61357  0.029637  4.095959  0.026
C  C75  1  0.27567968  0.62545016  0.62263951  1  0.696326  0.013004  3.797902  0.013  0.64124  0.023158  4.089695  0.021  0.679636  0.01719  4.079766  0.016  0.241109  0.613764  0.029632  4.096028  0.026
O  O76  1  0.37882875  0.40417819  0.55367403  1  -0.696795  0.057065  2.139296  0.035  -0.622842  0.071922  2.422667  0.045  -0.658455  0.064544  2.4072  0.039  -0.299114  -0.595453  0.078995  2.43195  0.052
O  O77  1  0.12117468  0.09581888  0.05367427  1  -0.696818  0.057068  2.139232  0.035  -0.622828  0.071926  2.422657  0.045  -0.658423  0.064543  2.407154  0.039  -0.299084  -0.595429  0.078994  2.431925  0.052
O  O78  1  0.62117214  0.59581921  0.44632466  1  -0.696733  0.057069  2.139278  0.035  -0.622778  0.07192  2.42266  0.045  -0.658381  0.064542  2.407175  0.039  -0.299044  -0.595376  0.07899  2.431926  0.052
O  O79  1  0.87882415  0.90417852  0.94632508  1  -0.696799  0.057079  2.139243  0.035  -0.622836  0.071926  2.42267  0.045  -0.658441  0.064548  2.407187  0.039  -0.299092  -0.595437  0.078994  2.431935  0.052
O  O80  1  0.99082706  0.40626035  0.63649187  1  -0.618108  0.039408  2.074774  0.027  -0.550506  0.048341  2.338096  0.032  -0.582303  0.041593  2.325157  0.026  -0.287637  -0.526826  0.05536  2.346596  0.039
O  O81  1  0.50917539  0.09373901  0.13649187  1  -0.618159  0.039418  2.074767  0.027  -0.550486  0.048337  2.338092  0.032  -0.58228  0.041592  2.325155  0.026  -0.287653  -0.526833  0.055359  2.346614  0.039
O  O82  1  0.00917405  0.59373931  0.36350815  1  -0.618103  0.039421  2.074804  0.027  -0.550448  0.048339  2.33809  0.032  -0.582243  0.041591  2.325155  0.026  -0.287635  -0.526798  0.055359  2.346612  0.039
O  O83  1  0.49082580  0.90626140  0.86350682  1  -0.61816  0.03942  2.074723  0.027  -0.550481  0.048335  2.338032  0.032  -0.582274  0.041588  2.325093  0.026  -0.28765  -0.52682  0.055357  2.346544  0.039
O  O84  1  0.01202425  0.09530380  0.85759387  1  -0.615732  0.03978  2.015314  0.028  -0.554011  0.048943  2.277522  0.033  -0.585398  0.041904  2.2642  0.026  -0.292335  -0.530556  0.056357  2.286262  0.04
O  O85  1  0.48796920  0.40469615  0.35759330  1  -0.615746  0.039772  2.015549  0.028  -0.554026  0.048947  2.277736  0.033  -0.585409  0.041903  2.264414  0.026  -0.292301  -0.530566  0.056357  2.286475  0.04
O  O86  1  0.98796856  0.90469509  0.14240615  1  -0.615753  0.039771  2.015554  0.028  -0.554031  0.048946  2.277732  0.033  -0.585412  0.041905  2.26441  0.026  -0.29232  -0.530574  0.056358  2.286462  0.04
O  O87  1  0.51202986  0.59530350  0.64240672  1  -0.615801  0.039772  2.015483  0.028  -0.554084  0.048948  2.277691  0.033  -0.585467  0.041905  2.264371  0.026  -0.292321  -0.530619  0.056357  2.286434  0.04
O  O88  1  0.63330797  0.09353774  0.94523014  1  -0.70238  0.05646  2.173826  0.033  -0.625675  0.071699  2.45532  0.044  -0.660962  0.064457  2.43906  0.037  -0.297143  -0.598787  0.078627  2.465586  0.05
O  O89  1  0.86668848  0.40646228  0.44522865  1  -0.70234  0.056457  2.173861  0.033  -0.625685  0.071701  2.45538  0.044  -0.660964  0.064457  2.439116  0.037  -0.297158  -0.59879  0.078626  2.465645  0.05
O  O90  1  0.36668720  0.90646417  0.05476987  1  -0.702339  0.056453  2.173737  0.033  -0.625695  0.0717  2.45529  0.044  -0.660995  0.064459  2.439049  0.037  -0.297172  -0.59881  0.078626  2.465557  0.05
O  O91  1  0.13331659  0.59353588  0.55477203  1  -0.702494  0.056454  2.173914  0.033  -0.625804  0.071706  2.455403  0.044  -0.661076  0.064461  2.439132  0.037  -0.297255  -0.598911  0.078629  2.465682  0.05
