# generated using pymatgen
data_CdCoH14C8(NO5)2
_symmetry_space_group_name_H-M   'P 1'
_cell_length_a   7.71746418
_cell_length_b   8.23798905
_cell_length_c   11.00145953
_cell_angle_alpha   89.99955788
_cell_angle_beta   90.00167648
_cell_angle_gamma   111.56168524
_symmetry_Int_Tables_number   1
_chemical_formula_structural   CdCoH14C8(NO5)2
_chemical_formula_sum   'Cd2 Co2 H28 C16 N4 O20'
_cell_volume   650.48842117
_cell_formula_units_Z   2
loop_
 _symmetry_equiv_pos_site_id
 _symmetry_equiv_pos_as_xyz
  1  'x, y, z'
loop_
 _atom_site_type_symbol
 _atom_site_label
 _atom_site_symmetry_multiplicity
 _atom_site_fract_x
 _atom_site_fract_y
 _atom_site_fract_z
 _atom_site_occupancy
 _atom_site_hle17_ddec_charge
 _atom_site_hle17_ddec_spin_density
 _atom_site_hle17_ddec_sum_bond_order
 _atom_site_hle17_magmom
 _atom_site_hse06_10hf_ddec_charge
 _atom_site_hse06_10hf_ddec_spin_density
 _atom_site_hse06_10hf_ddec_sum_bond_order
 _atom_site_hse06_10hf_magmom
 _atom_site_hse06_ddec_charge
 _atom_site_hse06_ddec_spin_density
 _atom_site_hse06_ddec_sum_bond_order
 _atom_site_hse06_magmom
 _atom_site_pbe_cm5_charge
 _atom_site_pbe_ddec_charge
 _atom_site_pbe_ddec_spin_density
 _atom_site_pbe_ddec_sum_bond_order
 _atom_site_pbe_magmom
Cd  Cd0  1  0.50000464  0.50000078  0.49999916  1  1.264253  -0.000468  1.622112  -0.001  1.098884  -0.000758  2.080944  -0.001  1.156033  -0.000387  2.018914  -0.001  0.774953  1.057421  -0.001129  2.124232  -0.002
Cd  Cd1  1  0.00000080  0.50000192  0.99999950  1  1.26416  0.000468  1.622184  0.001  1.098792  0.00076  2.081145  0.001  1.155954  0.000389  2.019083  0.001  0.7749  1.057318  0.001131  2.124447  0.002
Co  Co2  1  0.00000369  0.49999951  0.50000130  1  0.92239  -2.873193  1.954155  -2.562  0.894882  -2.8599  2.334988  -2.635  0.978983  -2.904166  2.261955  -2.709  0.631858  0.826903  -2.817057  2.392536  -2.566
Co  Co3  1  0.49999843  0.49999795  0.99999918  1  0.922636  2.873215  1.954203  2.562  0.895222  2.859888  2.334931  2.635  0.979311  2.904153  2.26188  2.709  0.631956  0.827248  2.817053  2.392501  2.566
H  H4  1  0.62768146  0.77672210  0.35775581  1  0.413598  4e-06  0.901524  0.0  0.377947  -2.2e-05  0.974602  0.0  0.390302  -2e-05  0.956768  0.0  0.285926  0.369153  -2.2e-05  0.987268  0.0
H  H5  1  0.12767337  0.77670729  0.14224745  1  0.413401  -3e-06  0.9018  0.0  0.377824  2.2e-05  0.974759  0.0  0.390179  2.1e-05  0.956932  0.0  0.285877  0.369031  2.2e-05  0.987423  0.0
H  H6  1  0.37232154  0.22328333  0.64224341  1  0.413565  3e-06  0.901548  0.0  0.377881  -2.2e-05  0.97468  0.0  0.390236  -2e-05  0.956845  0.0  0.285899  0.36909  -2.2e-05  0.987342  0.0
H  H7  1  0.87232393  0.22329680  0.85774814  1  0.413424  -3e-06  0.901767  0.0  0.377842  2.2e-05  0.974734  0.0  0.390197  2e-05  0.956908  0.0  0.285917  0.369051  2.2e-05  0.987395  0.0
H  H8  1  0.74865823  0.66574547  0.30981010  1  0.433504  3.4e-05  0.825611  0.0  0.406175  -2.7e-05  0.896333  0.0  0.414993  -2.2e-05  0.886812  0.0  0.313199  0.39986  -2.8e-05  0.903123  0.0
H  H9  1  0.24866297  0.66574527  0.19020811  1  0.433368  -3.4e-05  0.825646  0.0  0.406149  2.6e-05  0.896185  0.0  0.414966  2.2e-05  0.886664  0.0  0.313219  0.399838  2.8e-05  0.902971  0.0
H  H10  1  0.25134629  0.33426387  0.69018821  1  0.433495  3.4e-05  0.825626  0.0  0.406173  -2.7e-05  0.896339  0.0  0.414991  -2.2e-05  0.886817  0.0  0.313204  0.39986  -2.8e-05  0.903129  0.0
H  H11  1  0.75133094  0.33426010  0.80979475  1  0.433307  -3.4e-05  0.825708  0.0  0.406083  2.7e-05  0.89626  0.0  0.4149  2.2e-05  0.88674  0.0  0.313181  0.399773  2.8e-05  0.903045  0.0
H  H12  1  0.92031135  0.78415747  0.50957502  1  0.266847  0.000528  0.926272  0.002  0.259968  -0.00027  0.980714  0.0  0.265878  -0.000157  0.97721  0.0  0.295369  0.255655  -0.000344  0.983378  0.0
H  H13  1  0.42027981  0.78415841  0.99042790  1  0.266836  -0.000527  0.926167  -0.002  0.259941  0.000271  0.980671  0.0  0.265853  0.000157  0.977164  0.0  0.295314  0.255624  0.000345  0.983335  0.0
H  H14  1  0.07969303  0.21584144  0.49042421  1  0.266844  0.000528  0.92625  0.002  0.259975  -0.00027  0.980671  0.0  0.265882  -0.000157  0.977175  0.0  0.295384  0.255651  -0.000344  0.983338  0.0
H  H15  1  0.57971677  0.21584046  0.00957315  1  0.266828  -0.000527  0.926179  -0.002  0.259925  0.000271  0.980699  0.0  0.26584  0.000157  0.977189  0.0  0.295305  0.255606  0.000345  0.983363  0.0
H  H16  1  0.25210668  0.00574909  0.45417504  1  0.110262  -0.000756  0.93037  -0.001  0.121864  -0.000463  0.994374  -0.001  0.124748  -0.000323  0.99239  0.0  0.109789  0.119671  -0.000569  0.996015  -0.001
H  H17  1  0.75209678  0.00576109  0.04583072  1  0.110236  0.000756  0.930322  0.001  0.121848  0.000463  0.99427  0.001  0.124733  0.000322  0.992283  0.0  0.109767  0.119654  0.000569  0.995917  0.001
H  H18  1  0.74789409  0.99424721  0.54582419  1  0.110261  -0.000756  0.930306  -0.001  0.121883  -0.000463  0.994282  -0.001  0.124765  -0.000322  0.992299  0.0  0.109797  0.119693  -0.000569  0.995922  -0.001
H  H19  1  0.24790110  0.99423779  0.95416578  1  0.110234  0.000755  0.930375  0.001  0.121835  0.000463  0.994335  0.001  0.124727  0.000322  0.992351  0.0  0.109777  0.119644  0.000569  0.99598  0.001
H  H20  1  0.10635957  0.85785461  0.34706164  1  0.116139  0.00018  0.929069  0.0  0.12955  0.000215  0.992035  0.0  0.131967  0.000167  0.990663  0.0  0.1197  0.127696  0.000271  0.993285  0.0
H  H21  1  0.60636322  0.85783983  0.15294890  1  0.116266  -0.00018  0.928926  0.0  0.129585  -0.000215  0.991974  0.0  0.132  -0.000167  0.990606  0.0  0.119687  0.127735  -0.000271  0.993228  0.0
H  H22  1  0.89364380  0.14214169  0.65293940  1  0.116276  0.00018  0.92906  0.0  0.129649  0.000215  0.992066  0.0  0.132067  0.000167  0.990689  0.0  0.119749  0.127791  0.000271  0.993323  0.0
H  H23  1  0.39363466  0.14215905  0.84705033  1  0.116276  -0.00018  0.928925  0.0  0.129601  -0.000215  0.99196  0.0  0.132022  -0.000167  0.990595  0.0  0.119691  0.12775  -0.000271  0.993221  0.0
H  H24  1  0.03416508  0.89596558  0.69528095  1  0.108486  -0.000611  0.926152  -0.001  0.119909  -0.000446  0.990576  -0.001  0.122717  -0.000327  0.988775  0.0  0.111462  0.117857  -0.000554  0.992048  -0.001
H  H25  1  0.53416075  0.89600092  0.80472520  1  0.108605  0.000611  0.92585  0.001  0.119979  0.000446  0.99035  0.001  0.122743  0.000327  0.988602  0.0  0.111448  0.117962  0.000553  0.991792  0.001
H  H26  1  0.96582760  0.10403327  0.30471918  1  0.108535  -0.000611  0.926177  -0.001  0.119933  -0.000446  0.990626  -0.001  0.122727  -0.000327  0.988844  0.0  0.111484  0.117876  -0.000554  0.992099  -0.001
H  H27  1  0.46582631  0.10399008  0.19527221  1  0.108601  0.000611  0.925891  0.001  0.119996  0.000446  0.990371  0.001  0.12276  0.000327  0.988617  0.0  0.111459  0.117946  0.000554  0.99184  0.001
H  H28  1  0.25605869  0.90104939  0.65276613  1  0.116937  -6.7e-05  0.938521  0.0  0.132219  6e-06  0.996892  0.0  0.134449  3.2e-05  0.995949  0.0  0.118447  0.13058  -2.7e-05  0.997752  0.0
H  H29  1  0.75604750  0.90102888  0.84724000  1  0.117001  6.7e-05  0.938561  0.0  0.132237  -6e-06  0.996965  0.0  0.134497  -3.2e-05  0.995979  0.0  0.118476  0.130598  2.7e-05  0.997829  0.0
H  H30  1  0.74393522  0.09895598  0.34723582  1  0.117001  -6.7e-05  0.938523  0.0  0.1323  6e-06  0.996843  0.0  0.134563  3.2e-05  0.995853  0.0  0.118505  0.130656  -2.7e-05  0.997702  0.0
H  H31  1  0.24394230  0.09897256  0.15275740  1  0.117087  6.7e-05  0.938446  0.0  0.132329  -6e-06  0.99684  0.0  0.134581  -3.2e-05  0.995866  0.0  0.11847  0.130686  2.7e-05  0.9977  0.0
C  C32  1  0.32702817  0.78539841  0.41560139  1  0.695187  0.000687  3.806075  0.001  0.646026  -0.000847  4.110683  -0.001  0.681431  -0.000469  4.103193  -0.001  0.220016  0.621289  -0.001181  4.115028  -0.001
C  C33  1  0.82705265  0.78539125  0.08438592  1  0.694972  -0.000686  3.806919  -0.001  0.645713  0.00085  4.111683  0.001  0.68115  0.000472  4.104165  0.001  0.219901  0.620963  0.001184  4.116037  0.001
C  C34  1  0.67297512  0.21460441  0.58439875  1  0.695165  0.000687  3.806185  0.001  0.646033  -0.000847  4.110754  -0.001  0.681437  -0.000469  4.103266  -0.001  0.220021  0.621303  -0.001181  4.115089  -0.001
C  C35  1  0.17294523  0.21460763  0.91561057  1  0.695033  -0.000686  3.80676  -0.001  0.645788  0.00085  4.111498  0.001  0.681219  0.000472  4.103997  0.001  0.219882  0.621041  0.001184  4.115853  0.001
C  C36  1  0.18040900  0.86617924  0.43365362  1  -0.142735  0.001374  3.632568  0.004  -0.19881  0.000148  3.891827  0.002  -0.20016  0.000363  3.898079  0.002  -0.073722  -0.19786  -5.1e-05  3.887734  0.002
C  C37  1  0.68042251  0.86617584  0.06635658  1  -0.142829  -0.001378  3.632517  -0.004  -0.198695  -0.000148  3.89165  -0.002  -0.200055  -0.000363  3.897903  -0.002  -0.073726  -0.197756  5.1e-05  3.887559  -0.002
C  C38  1  0.81959227  0.13381836  0.56634834  1  -0.142816  0.001376  3.632494  0.004  -0.198905  0.000148  3.891793  0.002  -0.200248  0.000363  3.898037  0.002  -0.073768  -0.197967  -5.1e-05  3.887696  0.002
C  C39  1  0.31957486  0.13382173  0.93364174  1  -0.142898  -0.001377  3.632571  -0.004  -0.198757  -0.000147  3.891678  -0.002  -0.200149  -0.000362  3.897982  -0.002  -0.073742  -0.197818  5.1e-05  3.887593  -0.002
C  C40  1  0.10696577  0.81869904  0.65225218  1  -0.142365  0.000808  3.62548  0.003  -0.194106  -0.000335  3.877313  0.001  -0.195963  -6.8e-05  3.885192  0.001  -0.076078  -0.192945  -0.000601  3.871999  0.001
C  C41  1  0.60694197  0.81869278  0.84773865  1  -0.142673  -0.000811  3.625157  -0.003  -0.194417  0.000335  3.87698  -0.001  -0.196261  6.7e-05  3.884835  -0.001  -0.076217  -0.193296  0.000601  3.87167  -0.001
C  C42  1  0.89303103  0.18130375  0.34774614  1  -0.142492  0.000809  3.625518  0.003  -0.194267  -0.000335  3.877399  0.001  -0.196132  -6.5e-05  3.885254  0.001  -0.076186  -0.193117  -0.000601  3.872069  0.001
C  C43  1  0.39305281  0.18130478  0.15226058  1  -0.142869  -0.00081  3.62511  -0.003  -0.194599  0.000335  3.876992  -0.001  -0.196428  6.6e-05  3.884841  -0.001  -0.076266  -0.193453  0.000602  3.871675  -0.001
C  C44  1  0.08570461  0.66321020  0.73396339  1  0.690348  0.000363  3.836932  0.001  0.646207  -0.001673  4.138157  -0.002  0.681095  -0.001008  4.132574  -0.001  0.212346  0.622068  -0.002354  4.140521  -0.003
C  C45  1  0.58561435  0.66318496  0.76602336  1  0.690317  -0.000361  3.836464  -0.001  0.646391  0.001677  4.137408  0.002  0.681294  0.00101  4.131802  0.001  0.212379  0.622249  0.002357  4.139781  0.003
C  C46  1  0.91429608  0.33679260  0.26603675  1  0.690326  0.000362  3.83702  0.001  0.646268  -0.001674  4.138125  -0.002  0.681165  -0.001008  4.132532  -0.001  0.212388  0.622124  -0.002354  4.140489  -0.003
C  C47  1  0.41439161  0.33681137  0.23397860  1  0.690591  -0.00036  3.836037  -0.001  0.646493  0.001677  4.137232  0.002  0.681388  0.00101  4.131631  0.001  0.21245  0.62235  0.002356  4.139596  0.003
N  N48  1  0.04434403  0.76989071  0.52638929  1  -0.367512  -0.037881  3.307321  -0.066  -0.323978  -0.02676  3.569751  -0.042  -0.346784  -0.022248  3.580593  -0.035  -0.490453  -0.307147  -0.030213  3.562473  -0.047
N  N49  1  0.54431743  0.76988369  0.97361599  1  -0.367606  0.037898  3.306917  0.066  -0.324094  0.026769  3.569221  0.042  -0.346911  0.022254  3.580039  0.035  -0.490384  -0.307237  0.030224  3.561937  0.047
N  N50  1  0.95565904  0.23010820  0.47361085  1  -0.367598  -0.037884  3.307209  -0.066  -0.324057  -0.026762  3.569631  -0.042  -0.346871  -0.02225  3.580473  -0.035  -0.490501  -0.307178  -0.030215  3.56231  -0.047
N  N51  1  0.45567916  0.23011518  0.02638415  1  -0.367549  0.037899  3.306881  0.066  -0.324023  0.02677  3.569168  0.042  -0.346841  0.022254  3.580008  0.035  -0.490362  -0.307159  0.030225  3.561867  0.047
O  O52  1  0.28758602  0.63147759  0.46122447  1  -0.671549  -0.030774  2.155323  -0.049  -0.61506  -0.025315  2.446743  -0.039  -0.654091  -0.02078  2.433822  -0.032  -0.322889  -0.585927  -0.029571  2.454799  -0.045
O  O53  1  0.78758461  0.63149222  0.03871930  1  -0.671551  0.030756  2.156201  0.049  -0.614924  0.025303  2.447461  0.039  -0.653933  0.020771  2.434435  0.032  -0.322773  -0.585782  0.029556  2.455506  0.045
O  O54  1  0.71242377  0.36852526  0.53878112  1  -0.671566  -0.03077  2.155584  -0.049  -0.615004  -0.025312  2.446861  -0.039  -0.654033  -0.020777  2.433939  -0.032  -0.322855  -0.585868  -0.029567  2.454907  -0.045
O  O55  1  0.21241457  0.36850667  0.96127811  1  -0.671632  0.030758  2.156062  0.049  -0.615026  0.025305  2.447362  0.039  -0.654039  0.020773  2.434362  0.032  -0.32278  -0.585879  0.029557  2.455404  0.045
O  O56  1  0.47323430  0.86761841  0.35713768  1  -0.611906  -0.003628  1.975167  -0.006  -0.558031  -0.002801  2.199677  -0.005  -0.583103  -0.00184  2.189068  -0.003  -0.305665  -0.540379  -0.003956  2.206753  -0.006
O  O57  1  0.97325360  0.86762842  0.14287397  1  -0.611646  0.003626  1.974963  0.006  -0.557836  0.002801  2.199538  0.005  -0.582924  0.001841  2.188932  0.003  -0.305604  -0.540177  0.003955  2.206607  0.006
O  O58  1  0.52676517  0.13237788  0.64286336  1  -0.611867  -0.003628  1.975097  -0.006  -0.558  -0.002801  2.199608  -0.005  -0.583069  -0.00184  2.188995  -0.003  -0.305666  -0.540352  -0.003955  2.206684  -0.006
O  O59  1  0.02674507  0.13236917  0.85712434  1  -0.611618  0.003626  1.974976  0.006  -0.557803  0.002801  2.199539  0.005  -0.582886  0.001842  2.188937  0.003  -0.305574  -0.540145  0.003955  2.206609  0.006
O  O60  1  0.04568913  0.51195151  0.68689966  1  -0.631441  -0.037565  2.040923  -0.061  -0.591972  -0.029714  2.305184  -0.045  -0.62739  -0.024144  2.294584  -0.036  -0.321317  -0.564901  -0.034997  2.311433  -0.053
O  O61  1  0.54556059  0.51193277  0.81310532  1  -0.631389  0.037558  2.040619  0.061  -0.592116  0.029712  2.304928  0.045  -0.627538  0.024146  2.294295  0.036  -0.321389  -0.565047  0.034993  2.311184  0.053
O  O62  1  0.95431805  0.48805133  0.31310229  1  -0.631402  -0.037565  2.040975  -0.061  -0.591932  -0.029713  2.305179  -0.045  -0.627355  -0.024144  2.294577  -0.036  -0.321318  -0.564863  -0.034998  2.311426  -0.053
O  O63  1  0.45444848  0.48806488  0.18689936  1  -0.631459  0.037555  2.040357  0.061  -0.592124  0.02971  2.304727  0.045  -0.627542  0.024143  2.294097  0.036  -0.321488  -0.56506  0.034994  2.310982  0.053
O  O64  1  0.11262397  0.69727874  0.84640137  1  -0.647757  -0.004955  1.987873  -0.008  -0.584628  -0.003909  2.238406  -0.006  -0.614917  -0.002571  2.227072  -0.004  -0.330241  -0.562685  -0.005511  2.245346  -0.009
O  O65  1  0.61255672  0.69728828  0.65358482  1  -0.6476  0.004955  1.987613  0.008  -0.584439  0.00391  2.237946  0.006  -0.614736  0.002573  2.22661  0.004  -0.330134  -0.562493  0.005512  2.244879  0.009
O  O66  1  0.88737932  0.30272408  0.15359967  1  -0.647763  -0.004955  1.987892  -0.008  -0.584671  -0.003909  2.238405  -0.006  -0.614964  -0.002571  2.227064  -0.004  -0.330285  -0.562734  -0.005511  2.245348  -0.009
O  O67  1  0.38744874  0.30270673  0.34641714  1  -0.647688  0.004955  1.987487  0.008  -0.58447  0.003909  2.237915  0.006  -0.614764  0.002573  2.226581  0.004  -0.330111  -0.56253  0.005512  2.244849  0.009
O  O68  1  0.71797129  0.71872598  0.38193734  1  -0.829394  0.000286  1.904441  0.0  -0.770265  -9.8e-05  2.116114  0.0  -0.792786  -4.9e-05  2.085104  0.0  -0.569298  -0.754254  -0.000133  2.138032  0.0
O  O69  1  0.21796705  0.71871369  0.11807539  1  -0.829054  -0.000285  1.904708  0.0  -0.770072  9.9e-05  2.116246  0.0  -0.792597  4.8e-05  2.085223  0.0  -0.569248  -0.754062  0.000134  2.138161  0.0
O  O70  1  0.28203121  0.28127814  0.61806189  1  -0.829359  0.000287  1.904436  0.0  -0.770212  -9.8e-05  2.116124  0.0  -0.79273  -4.9e-05  2.085118  0.0  -0.569271  -0.754198  -0.000133  2.138036  0.0
O  O71  1  0.78203285  0.28129041  0.88192383  1  -0.829016  -0.000286  1.904734  0.0  -0.770013  9.8e-05  2.116263  0.0  -0.792539  4.8e-05  2.085242  0.0  -0.569242  -0.753996  0.000134  2.138174  0.0
