# generated using pymatgen
data_AgH34C21S4NO3
_symmetry_space_group_name_H-M   'P 1'
_cell_length_a   8.00632856
_cell_length_b   11.72845576
_cell_length_c   13.80660000
_cell_angle_alpha   90.00000000
_cell_angle_beta   90.00000000
_cell_angle_gamma   92.13502460
_symmetry_Int_Tables_number   1
_chemical_formula_structural   AgH34C21S4NO3
_chemical_formula_sum   'Ag2 H68 C42 S8 N2 O6'
_cell_volume   1295.56556559
_cell_formula_units_Z   2
loop_
 _symmetry_equiv_pos_site_id
 _symmetry_equiv_pos_as_xyz
  1  'x, y, z'
loop_
 _atom_site_type_symbol
 _atom_site_label
 _atom_site_symmetry_multiplicity
 _atom_site_fract_x
 _atom_site_fract_y
 _atom_site_fract_z
 _atom_site_occupancy
 _atom_site_hle17_bader_spin_density
 _atom_site_hle17_ddec_charge
 _atom_site_hle17_ddec_spin_density
 _atom_site_hle17_ddec_sum_bond_order
 _atom_site_hle17_magmom
 _atom_site_hse06_10hf_bader_spin_density
 _atom_site_hse06_10hf_ddec_charge
 _atom_site_hse06_10hf_ddec_spin_density
 _atom_site_hse06_10hf_ddec_sum_bond_order
 _atom_site_hse06_10hf_magmom
 _atom_site_hse06_bader_spin_density
 _atom_site_hse06_ddec_charge
 _atom_site_hse06_ddec_spin_density
 _atom_site_hse06_ddec_sum_bond_order
 _atom_site_hse06_magmom
 _atom_site_pbe_bader_charge
 _atom_site_pbe_bader_spin_density
 _atom_site_pbe_cm5_charge
 _atom_site_pbe_ddec_charge
 _atom_site_pbe_ddec_spin_density
 _atom_site_pbe_ddec_sum_bond_order
 _atom_site_pbe_magmom
Ag  Ag0  1  0.60995003  0.41852633  0.72178016  1  0  0.265178  0  1.796305  0  0  0.144299  0  2.283646  0  0  0.164835  0  2.242202  0  0.397381  0  0.34754  0.130328  0  2.312141  0
Ag  Ag1  1  0.39004095  0.58146821  0.22178016  1  0  0.265154  0  1.796329  0  0  0.144271  0  2.283645  0  0  0.164806  0  2.242201  0  0.397342  0  0.347511  0.130297  0  2.312142  0
H  H2  1  0.91825348  0.55099036  0.47226978  1  0  0.096864  0  0.958597  0  0  0.111023  0  1.026545  0  0  0.11209  0  1.026532  0  0.075816  0  0.101258  0.110177  0  1.02673  0
H  H3  1  0.08173700  0.44901784  0.97226689  1  0  0.096757  0  0.958735  0  0  0.111012  0  1.026561  0  0  0.112075  0  1.026559  0  0.075881  0  0.101233  0.110135  0  1.026773  0
H  H4  1  0.75304631  0.61762936  0.53174496  1  0  0.100102  0  0.920617  0  0  0.122612  0  0.971637  0  0  0.12279  0  0.972518  0  0.067355  0  0.104513  0.12239  0  0.971178  0
H  H5  1  0.24694893  0.38237457  0.03173627  1  0  0.100147  0  0.920499  0  0  0.122619  0  0.971579  0  0  0.122799  0  0.972457  0  0.067501  0  0.104521  0.122399  0  0.971113  0
H  H6  1  0.96899900  0.68850459  0.63044051  1  0  0.046339  0  0.911141  0  0  0.064642  0  0.971607  0  0  0.065604  0  0.97067  0  -0.009603  0  0.092692  0.063848  0  0.972387  0
H  H7  1  0.03100601  0.31149507  0.13043907  1  0  0.046356  0  0.911127  0  0  0.064661  0  0.971581  0  0  0.065642  0  0.970624  0  -0.009585  0  0.092689  0.063865  0  0.972363  0
H  H8  1  0.92642249  0.55829989  0.69171121  1  0  0.052953  0  0.969068  0  0  0.065799  0  1.044607  0  0  0.066674  0  1.043907  0  0.068587  0  0.094313  0.06505  0  1.04525  0
H  H9  1  0.07357876  0.44169977  0.19170759  1  0  0.052895  0  0.969151  0  0  0.065774  0  1.044633  0  0  0.066647  0  1.043937  0  0.068705  0  0.094283  0.065025  0  1.045275  0
H  H10  1  0.97298401  0.35492309  0.64011632  1  0  0.095313  0  0.971063  0  0  0.110479  0  1.033895  0  0  0.111461  0  1.03411  0  0.07481  0  0.098392  0.109719  0  1.033844  0
H  H11  1  0.02701234  0.64507828  0.14011487  1  0  0.095351  0  0.970987  0  0  0.110513  0  1.03385  0  0  0.111498  0  1.034059  0  0.074933  0  0.098398  0.109753  0  1.033798  0
H  H12  1  0.82965103  0.24309758  0.60787522  1  0  0.111357  0  0.942924  0  0  0.128641  0  0.998845  0  0  0.130075  0  0.998074  0  0.121059  0  0.103151  0.127471  0  0.999576  0
H  H13  1  0.17034167  0.75690549  0.10787594  1  0  0.111419  0  0.942845  0  0  0.12867  0  0.998816  0  0  0.130104  0  0.998047  0  0.120777  0  0.103152  0.127502  0  0.999544  0
H  H14  1  0.03947595  0.38075687  0.45859879  1  0  0.051013  0  1.0288  0  0  0.059372  0  1.107703  0  0  0.060439  0  1.108424  0  0.05867  0  0.07269  0.058548  0  1.107273  0
H  H15  1  0.96052068  0.61924962  0.95859661  1  0  0.051125  0  1.028761  0  0  0.059458  0  1.107689  0  0  0.060526  0  1.108407  0  0.058634  0  0.07269  0.058631  0  1.10726  0
H  H16  1  0.92634007  0.25104874  0.43696855  1  0  0.069139  0  0.942529  0  0  0.086566  0  1.004828  0  0  0.086676  0  1.006345  0  0.016317  0  0.085638  0.086419  0  1.003837  0
H  H17  1  0.07365906  0.74895775  0.93697072  1  0  0.069195  0  0.942504  0  0  0.086604  0  1.004814  0  0  0.086714  0  1.00633  0  0.016283  0  0.085658  0.086458  0  1.003822  0
H  H18  1  0.43948057  0.32607744  0.31824707  1  0  0.07554  0  0.94457  0  0  0.095654  0  1.001818  0  0  0.096206  0  1.001663  0  0.068281  0  0.090701  0.095163  0  1.002075  0
H  H19  1  0.56052313  0.67392137  0.81824635  1  0  0.075555  0  0.944595  0  0  0.095663  0  1.001849  0  0  0.096224  0  1.001687  0  0.0683  0  0.090701  0.095174  0  1.002102  0
H  H20  1  0.47655023  0.35384291  0.44151131  1  0  0.070935  0  1.011882  0  0  0.080447  0  1.089396  0  0  0.081033  0  1.090715  0  0.088161  0  0.085697  0.079982  0  1.088578  0
H  H21  1  0.52345468  0.64615505  0.94151058  1  0  0.070964  0  1.011865  0  0  0.080489  0  1.089378  0  0  0.081074  0  1.090696  0  0.088178  0  0.085719  0.080028  0  1.088554  0
H  H22  1  0.34361691  0.16327208  0.40858720  1  0  0.083564  0  0.946298  0  0  0.103487  0  1.005171  0  0  0.103047  0  1.007259  0  0.041461  0  0.098061  0.103755  0  1.003736  0
H  H23  1  0.65637551  0.83672588  0.90858937  1  0  0.083521  0  0.946314  0  0  0.103498  0  1.005147  0  0  0.103061  0  1.007233  0  0.041459  0  0.098042  0.103766  0  1.003711  0
H  H24  1  0.17266523  0.22267322  0.35087784  1  0  0.068645  0  0.947663  0  0  0.08621  0  1.009334  0  0  0.086398  0  1.010718  0  0.013953  0  0.086175  0.086012  0  1.008464  0
H  H25  1  0.82733256  0.77733157  0.85088001  1  0  0.068619  0  0.947699  0  0  0.086218  0  1.009346  0  0  0.086409  0  1.010728  0  0.013832  0  0.086196  0.086022  0  1.008476  0
H  H26  1  0.43501473  0.51359802  0.51938421  1  0  0.076997  0  0.991967  0  0  0.092378  0  1.064282  0  0  0.092957  0  1.064284  0  0.088758  0  0.089589  0.09189  0  1.064416  0
H  H27  1  0.56498763  0.48639909  0.01938203  1  0  0.076924  0  0.99206  0  0  0.092313  0  1.064388  0  0  0.092896  0  1.064382  0  0.088822  0  0.089545  0.091816  0  1.064522  0
H  H28  1  0.44352222  0.63382944  0.43950647  1  0  0.093848  0  0.970723  0  0  0.103622  0  1.042767  0  0  0.105166  0  1.042177  0  0.094844  0  0.091313  0.102475  0  1.043241  0
H  H29  1  0.55648130  0.36616596  0.93950502  1  0  0.093813  0  0.970727  0  0  0.103629  0  1.042735  0  0  0.105173  0  1.042146  0  0.094919  0  0.091329  0.102479  0  1.043206  0
H  H30  1  0.27991645  0.70832147  0.55897759  1  0  0.062899  0  0.907293  0  0  0.080286  0  0.967097  0  0  0.081033  0  0.966412  0  0.052371  0  0.098522  0.079637  0  0.967736  0
H  H31  1  0.72008341  0.29167563  0.05897831  1  0  0.062921  0  0.907222  0  0  0.080303  0  0.967042  0  0  0.081051  0  0.966357  0  0.052336  0  0.098528  0.079663  0  0.967673  0
H  H32  1  0.13100563  0.65401405  0.47661915  1  0  0.073902  0  0.957279  0  0  0.088941  0  1.023048  0  0  0.089701  0  1.022651  0  0.07292  0  0.103779  0.088296  0  1.023458  0
H  H33  1  0.86899674  0.34598305  0.97661843  1  0  0.073918  0  0.957171  0  0  0.088964  0  1.022934  0  0  0.089725  0  1.022537  0  0.072897  0  0.103765  0.088321  0  1.023343  0
H  H34  1  0.06889842  0.44970468  0.77436588  1  0  0.1088  0  0.946221  0  0  0.124584  0  1.010263  0  0  0.12592  0  1.009892  0  0.105057  0  0.102695  0.123552  0  1.010683  0
H  H35  1  0.93109622  0.55028816  0.27436806  1  0  0.108858  0  0.946089  0  0  0.12462  0  1.010172  0  0  0.12595  0  1.009799  0  0.105293  0  0.102698  0.123589  0  1.01059  0
H  H36  1  0.22506989  0.51969171  0.84476120  1  0  0.091914  0  0.949033  0  0  0.108993  0  1.011822  0  0  0.109586  0  1.012543  0  0.048627  0  0.096005  0.108538  0  1.011387  0
H  H37  1  0.77492980  0.48030198  0.34476120  1  0  0.091941  0  0.949065  0  0  0.109035  0  1.011832  0  0  0.109622  0  1.012553  0  0.04878  0  0.096  0.108577  0  1.011404  0
H  H38  1  0.22938239  0.65428111  0.72782148  1  0  0.038461  0  0.927454  0  0  0.052724  0  0.997873  0  0  0.053699  0  0.996994  0  -0.00165  0  0.088841  0.051897  0  0.998647  0
H  H39  1  0.77061970  0.34571088  0.22782148  1  0  0.038403  0  0.927407  0  0  0.052688  0  0.997808  0  0  0.053662  0  0.996929  0  -0.001712  0  0.088851  0.051868  0  0.998578  0
H  H40  1  0.37510438  0.56172386  0.67619979  1  0  0.041389  0  0.973723  0  0  0.056128  0  1.05265  0  0  0.058074  0  1.048824  0  0.044884  0  0.086812  0.054559  0  1.055543  0
H  H41  1  0.62489521  0.43826812  0.17620051  1  0  0.041382  0  0.973711  0  0  0.056096  0  1.052675  0  0  0.058044  0  1.048845  0  0.044888  0  0.086795  0.054529  0  1.055567  0
H  H42  1  0.29537210  0.17310458  0.71122000  1  0  0.112118  0  0.919874  0  0  0.130306  0  0.973573  0  0  0.130584  0  0.975235  0  0.132361  0  0.106897  0.130005  0  0.972555  0
H  H43  1  0.70462638  0.82688997  0.21122144  1  0  0.112203  0  0.919704  0  0  0.130377  0  0.973425  0  0  0.130655  0  0.975084  0  0.132443  0  0.106923  0.130076  0  0.972408  0
H  H44  1  0.10488049  0.24414790  0.70934698  1  0  0.093175  0  0.973526  0  0  0.107831  0  1.037823  0  0  0.107929  0  1.039693  0  0.066946  0  0.098143  0.107675  0  1.036662  0
H  H45  1  0.89511803  0.75584750  0.20934843  1  0  0.093133  0  0.973591  0  0  0.107776  0  1.037908  0  0  0.107863  0  1.039776  0  0.066944  0  0.098141  0.107624  0  1.036747  0
H  H46  1  0.40774630  0.26681282  0.57452812  1  0  0.07141  0  0.946014  0  0  0.088647  0  1.010186  0  0  0.089663  0  1.009611  0  0.007447  0  0.08499  0.087836  0  1.010706  0
H  H47  1  0.59225218  0.73318173  0.07452957  1  0  0.071438  0  0.945943  0  0  0.088645  0  1.010141  0  0  0.089663  0  1.009563  0  0.007482  0  0.084954  0.087831  0  1.010667  0
H  H48  1  0.26916464  0.38094713  0.58079976  1  0  0.068267  0  1.005304  0  0  0.081092  0  1.076812  0  0  0.082066  0  1.077584  0  0.029392  0  0.084055  0.080324  0  1.076316  0
H  H49  1  0.73083758  0.61904741  0.08079831  1  0  0.068288  0  1.005301  0  0  0.081083  0  1.076854  0  0  0.082058  0  1.07763  0  0.029306  0  0.084061  0.080318  0  1.076353  0
H  H50  1  0.05691049  0.06580796  0.47019541  1  0  0.095879  0  1.007921  0  0  0.114809  0  1.074329  0  0  0.114158  0  1.078728  0  0.050643  0  0.080746  0.115176  0  1.071377  0
H  H51  1  0.94307712  0.93419341  0.97019831  1  0  0.095858  0  1.007912  0  0  0.114823  0  1.07432  0  0  0.114157  0  1.078732  0  0.050381  0  0.080722  0.115189  0  1.071366  0
H  H52  1  0.04415685  0.09702556  0.59537250  1  0  0.098229  0  0.972828  0  0  0.11918  0  1.035895  0  0  0.119474  0  1.037668  0  0.019894  0  0.081909  0.118915  0  1.034688  0
H  H53  1  0.95582808  0.90297240  0.09537830  1  0  0.09826  0  0.97275  0  0  0.119213  0  1.035825  0  0  0.119507  0  1.037596  0  0.019612  0  0.08193  0.118947  0  1.034616  0
H  H54  1  0.23772033  0.05972707  0.54358495  1  0  0.109021  0  0.92985  0  0  0.133186  0  0.98317  0  0  0.134702  0  0.982762  0  0.053968  0  0.089284  0.132031  0  0.983518  0
H  H55  1  0.76226978  0.94027430  0.04359002  1  0  0.109044  0  0.929896  0  0  0.133219  0  0.983202  0  0  0.134735  0  0.982792  0  0.054024  0  0.089292  0.132065  0  0.983549  0
H  H56  1  0.02413621  0.20298603  0.92815465  1  0  0.087541  0  0.959108  0  0  0.098026  0  1.023227  0  0  0.1009  0  1.021424  0  0.072816  0  0.098435  0.095903  0  1.024615  0
H  H57  1  0.97585542  0.79702046  0.42814886  1  0  0.087473  0  0.959243  0  0  0.097906  0  1.023417  0  0  0.100777  0  1.021622  0  0.073004  0  0.098397  0.095819  0  1.024764  0
H  H58  1  0.28464054  0.09506059  0.94431214  1  0  0.105954  0  0.930255  0  0  0.120261  0  0.982244  0  0  0.123528  0  0.980798  0  0.095068  0  0.105188  0.117876  0  0.983428  0
H  H59  1  0.71536429  0.90495869  0.44430200  1  0  0.105992  0  0.930239  0  0  0.120293  0  0.982242  0  0  0.123558  0  0.980791  0  0.095008  0  0.105203  0.117878  0  0.98346  0
H  H60  1  0.37042650  0.83054260  0.80069967  1  0  0.092354  0  0.963775  0  0  0.111063  0  1.031605  0  0  0.112718  0  1.030624  0  -0.005475  0  0.081928  0.109757  0  1.032416  0
H  H61  1  0.62958392  0.16946474  0.30069749  1  0  0.092352  0  0.963685  0  0  0.11104  0  1.031554  0  0  0.112703  0  1.030565  0  -0.00555  0  0.081948  0.109735  0  1.032365  0
H  H62  1  0.37261968  0.86770884  0.92573045  1  0  0.111957  0  0.931513  0  0  0.13792  0  0.98337  0  0  0.139426  0  0.983142  0  0.048358  0  0.094035  0.136822  0  0.983531  0
H  H63  1  0.62740054  0.13229509  0.42572610  1  0  0.111951  0  0.931439  0  0  0.137885  0  0.983357  0  0  0.139381  0  0.983145  0  0.047939  0  0.093994  0.136787  0  0.983519  0
H  H64  1  0.47687413  0.95862620  0.84130126  1  0  0.129869  0  0.948803  0  0  0.148594  0  1.011265  0  0  0.15091  0  1.01001  0  0.097556  0  0.096819  0.146828  0  1.012237  0
H  H65  1  0.52314129  0.04138114  0.34129474  1  0  0.129835  0  0.948906  0  0  0.148619  0  1.011278  0  0  0.150953  0  1.010005  0  0.097397  0  0.096824  0.146856  0  1.012249  0
H  H66  1  0.10204915  0.85670828  0.72873988  1  0  0.076972  0  0.966813  0  0  0.085023  0  1.035335  0  0  0.088599  0  1.033018  0  0.05912  0  0.090616  0.082398  0  1.037145  0
H  H67  1  0.89797084  0.14329138  0.22872829  1  0  0.076953  0  0.966848  0  0  0.084949  0  1.035414  0  0  0.088523  0  1.033095  0  0.059068  0  0.090586  0.082332  0  1.037218  0
H  H68  1  0.84146431  0.96677103  0.71157055  1  0  0.101039  0  0.93828  0  0  0.113286  0  0.993306  0  0  0.116779  0  0.990885  0  0.096144  0  0.104915  0.110733  0  0.995119  0
H  H69  1  0.15855281  0.03322181  0.21155752  1  0  0.101089  0  0.938333  0  0  0.11331  0  0.993357  0  0  0.116807  0  0.990938  0  0.095749  0  0.104978  0.110762  0  0.995161  0
C  C70  1  0.85193278  0.55615063  0.54164602  1  0  -0.166696  0  3.628982  0  0  -0.212068  0  3.899919  0  0  -0.211641  0  3.911802  0  -0.125365  0  -0.147655  -0.212269  0  3.891629  0
C  C71  1  0.14806131  0.44385500  0.04164168  1  0  -0.166609  0  3.628824  0  0  -0.212006  0  3.899717  0  0  -0.211584  0  3.911609  0  -0.125495  0  -0.14762  -0.212176  0  3.891428  0
C  C72  1  0.97192797  0.59409842  0.62249794  1  0  0.010495  0  3.680621  0  0  -0.045819  0  3.944629  0  0  -0.042428  0  3.957359  0  0.309956  0  -0.070341  -0.047921  0  3.935701  0
C  C73  1  0.02806843  0.40590380  0.12249649  1  0  0.010442  0  3.680654  0  0  -0.045893  0  3.944657  0  0  -0.042514  0  3.957393  0  0.30989  0  -0.070373  -0.047997  0  3.935732  0
C  C74  1  0.89838572  0.31938394  0.58045645  1  0  -0.127118  0  3.606961  0  0  -0.165298  0  3.860663  0  0  -0.164041  0  3.871416  0  -0.130544  0  -0.153823  -0.166049  0  3.853303  0
C  C75  1  0.10161073  0.68061914  0.08045572  1  0  -0.127123  0  3.606813  0  0  -0.165313  0  3.860554  0  0  -0.164055  0  3.871301  0  -0.130501  0  -0.153806  -0.166059  0  3.853182  0
C  C76  1  0.00284381  0.29818485  0.49110860  1  0  -0.166693  0  3.668565  0  0  -0.204415  0  3.908745  0  0  -0.206853  0  3.924147  0  -0.0552  0  -0.175836  -0.202501  0  3.898032  0
C  C77  1  0.99715652  0.70182079  0.99110932  1  0  -0.166856  0  3.668629  0  0  -0.204569  0  3.908793  0  0  -0.207005  0  3.924192  0  -0.054954  0  -0.175839  -0.202654  0  3.89808  0
C  C78  1  0.37689520  0.34081852  0.38765518  1  0  -0.139061  0  3.644212  0  0  -0.178436  0  3.90544  0  0  -0.177804  0  3.918685  0  -0.168056  0  -0.15413  -0.178633  0  3.89597  0
C  C79  1  0.62310716  0.65917859  0.88765446  1  0  -0.139143  0  3.64421  0  0  -0.178511  0  3.905424  0  0  -0.1779  0  3.918701  0  -0.168191  0  -0.154158  -0.178706  0  3.895946  0
C  C80  1  0.26252108  0.23692113  0.41044790  1  0  -0.160604  0  3.639322  0  0  -0.201513  0  3.882374  0  0  -0.203497  0  3.898684  0  0.003247  0  -0.164004  -0.199998  0  3.871147  0
C  C81  1  0.73747893  0.76307854  0.91044863  1  0  -0.160493  0  3.639219  0  0  -0.201515  0  3.882331  0  0  -0.203504  0  3.898645  0  0.003542  0  -0.164004  -0.2  0  3.871102  0
C  C82  1  0.36079356  0.56818444  0.47273478  1  0  -0.152798  0  3.590082  0  0  -0.196007  0  3.847792  0  0  -0.195076  0  3.858506  0  -0.14585  0  -0.149564  -0.196504  0  3.84034  0
C  C83  1  0.63920506  0.43181266  0.97273333  1  0  -0.152591  0  3.589959  0  0  -0.195861  0  3.847724  0  0  -0.19493  0  3.858437  0  -0.146027  0  -0.149513  -0.19639  0  3.840375  0
C  C84  1  0.22474819  0.62756595  0.52910275  1  0  -0.00212  0  3.664926  0  0  -0.057845  0  3.926564  0  0  -0.054581  0  3.939249  0  0.279264  0  -0.073535  -0.059881  0  3.917669  0
C  C85  1  0.77524917  0.37243115  0.02910130  1  0  -0.00216  0  3.664659  0  0  -0.057915  0  3.926367  0  0  -0.054648  0  3.939041  0  0.279372  0  -0.073495  -0.059947  0  3.917435  0
C  C86  1  0.20098431  0.47907505  0.77403416  1  0  -0.174945  0  3.604502  0  0  -0.213551  0  3.865482  0  0  -0.213701  0  3.877555  0  -0.130504  0  -0.150926  -0.213377  0  3.857179  0
C  C87  1  0.79901153  0.52091693  0.27403416  1  0  -0.174981  0  3.604432  0  0  -0.213609  0  3.865434  0  0  -0.213739  0  3.877477  0  -0.130915  0  -0.150893  -0.213437  0  3.857135  0
C  C88  1  0.24196127  0.56804622  0.69532470  1  0  0.015269  0  3.686544  0  0  -0.040907  0  3.947031  0  0  -0.037428  0  3.960183  0  0.296947  0  -0.071425  -0.043067  0  3.937889  0
C  C89  1  0.75803837  0.43194662  0.19532542  1  0  0.015358  0  3.686618  0  0  -0.04081  0  3.947076  0  0  -0.037334  0  3.960216  0  0.296907  0  -0.071423  -0.042977  0  3.937935  0
C  C90  1  0.23823766  0.25383194  0.69214506  1  0  -0.133603  0  3.611813  0  0  -0.169218  0  3.867375  0  0  -0.168863  0  3.880773  0  -0.139846  0  -0.147975  -0.169342  0  3.858111  0
C  C91  1  0.76176077  0.74616175  0.19214651  1  0  -0.133522  0  3.611673  0  0  -0.169149  0  3.867267  0  0  -0.168773  0  3.880645  0  -0.140212  0  -0.147941  -0.169275  0  3.858002  0
C  C92  1  0.27681308  0.28811003  0.58756030  1  0  -0.171607  0  3.648655  0  0  -0.212279  0  3.887465  0  0  -0.214357  0  3.902486  0  -0.014954  0  -0.175719  -0.210618  0  3.877041  0
C  C93  1  0.72318799  0.71188622  0.08756102  1  0  -0.171699  0  3.648623  0  0  -0.212289  0  3.887265  0  0  -0.214373  0  3.902289  0  -0.014944  0  -0.175659  -0.210627  0  3.876838  0
C  C94  1  0.16544301  0.23250657  0.50764924  1  0  0.176355  0  3.514617  0  0  0.210409  0  3.739533  0  0  0.210446  0  3.759289  0  0.069078  0  -0.0136  0.210316  0  3.726009  0
C  C95  1  0.83455334  0.76749480  0.00765069  1  0  0.176291  0  3.514543  0  0  0.210437  0  3.739333  0  0  0.210474  0  3.759088  0  0.069178  0  -0.013642  0.210346  0  3.725805  0
C  C96  1  0.12354159  0.10689048  0.53087292  1  0  -0.341181  0  3.658014  0  0  -0.420292  0  3.88998  0  0  -0.423125  0  3.902479  0  -0.112832  0  -0.250664  -0.41806  0  3.881273  0
C  C97  1  0.87644606  0.89311174  0.03087654  1  0  -0.341181  0  3.657974  0  0  -0.420352  0  3.889872  0  0  -0.423175  0  3.902388  0  -0.112492  0  -0.250656  -0.41813  0  3.881194  0
C  C98  1  0.91668762  0.08972029  0.81988542  1  0  -0.123257  0  3.75433  0  0  -0.097389  0  4.000409  0  0  -0.104553  0  4.02202  0  -0.217142  0  -0.022921  -0.092836  0  3.986042  0
C  C99  1  0.08331507  0.91028278  0.31987455  1  0  -0.12301  0  3.754219  0  0  -0.09724  0  4.000376  0  0  -0.104401  0  4.021987  0  -0.217132  0  -0.022899  -0.092692  0  3.986026  0
C  C100  1  0.04097288  0.12608707  0.88557139  1  0  -0.062413  0  3.787109  0  0  -0.08859  0  4.042794  0  0  -0.08687  0  4.061281  0  -0.028051  0  -0.086653  -0.089537  0  4.030252  0
C  C101  1  0.95903009  0.87392113  0.38556343  1  0  -0.062388  0  3.787494  0  0  -0.088494  0  4.043208  0  0  -0.086778  0  4.0617  0  -0.028634  0  -0.086654  -0.089463  0  4.030644  0
C  C102  1  0.18603803  0.06559637  0.89470326  1  0  -0.123895  0  3.71708  0  0  -0.144201  0  3.96471  0  0  -0.147736  0  3.983797  0  -0.047575  0  -0.087068  -0.141889  0  3.9518  0
C  C103  1  0.81397239  0.93441098  0.39469312  1  0  -0.124022  0  3.717418  0  0  -0.144304  0  3.965006  0  0  -0.147835  0  3.984093  0  -0.046856  0  -0.087098  -0.14197  0  3.952114  0
C  C104  1  0.20944859  0.96705601  0.83910159  1  0  0.152792  0  3.751108  0  0  0.179075  0  3.984025  0  0  0.181913  0  4.007627  0  -0.040127  0  -0.004529  0.177148  0  3.967953  0
C  C105  1  0.79056548  0.03294963  0.33909362  1  0  0.152819  0  3.751257  0  0  0.179104  0  3.984157  0  0  0.18194  0  4.007762  0  -0.040273  0  -0.004457  0.177179  0  3.96808  0
C  C106  1  0.36565612  0.90212430  0.85168325  1  0  -0.340407  0  3.735199  0  0  -0.42052  0  3.969945  0  0  -0.423144  0  3.978388  0  -0.082785  0  -0.240101  -0.418332  0  3.964104  0
C  C107  1  0.63435536  0.09787963  0.35167818  1  0  -0.34031  0  3.735135  0  0  -0.420419  0  3.969888  0  0  -0.423061  0  3.978318  0  -0.081999  0  -0.24004  -0.418232  0  3.964041  0
C  C108  1  0.08430894  0.93215592  0.77349384  1  0  -0.141879  0  3.757738  0  0  -0.157754  0  4.004159  0  0  -0.162469  0  4.024997  0  -0.076968  0  -0.096701  -0.154595  0  3.990069  0
C  C109  1  0.91570763  0.06784972  0.27348949  1  0  -0.141836  0  3.757721  0  0  -0.157656  0  4.004132  0  0  -0.162365  0  4.024966  0  -0.076463  0  -0.09673  -0.154505  0  3.990048  0
C  C110  1  0.93829341  0.99287443  0.76342257  1  0  -0.07059  0  3.791781  0  0  -0.095102  0  4.04226  0  0  -0.0936  0  4.061828  0  0.003075  0  -0.088224  -0.095933  0  4.028977  0
C  C111  1  0.06172057  0.00712950  0.26341315  1  0  -0.070809  0  3.791884  0  0  -0.095267  0  4.042359  0  0  -0.093773  0  4.061934  0  0.00253  0  -0.088316  -0.096098  0  4.029079  0
S  S112  1  0.73585647  0.42090255  0.55918329  1  0  0.02473  0  2.672591  0  0  0.064612  0  3.093903  0  0  0.059121  0  3.084481  0  -0.020267  0  -0.012499  0.068086  0  3.100695  0
S  S113  1  0.26414003  0.57910138  0.05918329  1  0  0.024683  0  2.672566  0  0  0.064581  0  3.093898  0  0  0.059083  0  3.084486  0  -0.020153  0  -0.012528  0.06806  0  3.100667  0
S  S114  1  0.27595407  0.47775341  0.37418698  1  0  0.031581  0  2.556775  0  0  0.073961  0  2.952909  0  0  0.067758  0  2.946147  0  -0.021103  0  -0.011535  0.07817  0  2.957516  0
S  S115  1  0.72404579  0.52224369  0.87418771  1  0  0.031506  0  2.55671  0  0  0.073895  0  2.95288  0  0  0.067693  0  2.946124  0  -0.021145  0  -0.011572  0.078103  0  2.957487  0
S  S116  1  0.32593289  0.35239670  0.78161821  1  0  0.043365  0  2.600101  0  0  0.076376  0  3.007653  0  0  0.069415  0  3.003381  0  0.018138  0  -0.007802  0.080857  0  3.01093  0
S  S117  1  0.67406564  0.64759869  0.28162038  1  0  0.043239  0  2.600061  0  0  0.076283  0  3.007579  0  0  0.069314  0  3.00329  0  0.018384  0  -0.00787  0.080776  0  3.010842  0
S  S118  1  0.73427551  0.17158243  0.80775571  1  0  1.265348  0  5.700935  0  0  1.174368  0  6.218279  0  0  1.222071  0  6.196024  0  3.172594  0  0.478445  1.14142  0  6.232495  0
S  S119  1  0.26572047  0.82841211  0.30775137  1  0  1.265497  0  5.700806  0  0  1.17455  0  6.218143  0  0  1.222257  0  6.195882  0  3.173165  0  0.478538  1.141602  0  6.232356  0
N  N120  1  0.14345439  0.55848333  0.60600800  1  0  -0.232334  0  3.180244  0  0  -0.147353  0  3.424177  0  0  -0.163091  0  3.446419  0  -1.008282  0  -0.340525  -0.13622  0  3.408348  0
N  N121  1  0.85654048  0.44151377  0.10600800  1  0  -0.232384  0  3.180376  0  0  -0.14736  0  3.424208  0  0  -0.163106  0  3.446471  0  -1.008363  0  -0.340528  -0.136218  0  3.40837  0
O  O122  1  0.80674718  0.29066542  0.80410601  1  0  -0.686114  0  2.009944  0  0  -0.621998  0  2.284722  0  0  -0.645256  0  2.270599  0  -1.323254  0  -0.369128  -0.605396  0  2.293731  0
O  O123  1  0.19324010  0.70932998  0.30410311  1  0  -0.686147  0  2.00981  0  0  -0.621974  0  2.28449  0  0  -0.645227  0  2.270359  0  -1.323381  0  -0.369096  -0.605399  0  2.293561  0
O  O124  1  0.65373766  0.13720110  0.71626396  1  0  -0.669064  0  1.873765  0  0  -0.625084  0  2.105208  0  0  -0.644866  0  2.090961  0  -1.337032  0  -0.366142  -0.610999  0  2.114467  0
O  O125  1  0.34625231  0.86279771  0.21625310  1  0  -0.66913  0  1.873607  0  0  -0.625157  0  2.105057  0  0  -0.644945  0  2.090814  0  -1.33715  0  -0.366141  -0.611069  0  2.114314  0
O  O126  1  0.63171326  0.15039614  0.89418467  1  0  -0.662448  0  1.87774  0  0  -0.619276  0  2.111514  0  0  -0.640638  0  2.099017  0  -1.338842  0  -0.361746  -0.604018  0  2.119439  0
O  O127  1  0.36827546  0.84960267  0.39418104  1  0  -0.662569  0  1.877845  0  0  -0.61942  0  2.111624  0  0  -0.640783  0  2.099129  0  -1.338974  0  -0.361855  -0.604169  0  2.119568  0
