# generated using pymatgen
data_CdH12C12(NO)4
_symmetry_space_group_name_H-M   'P 1'
_cell_length_a   15.96683537
_cell_length_b   15.96687363
_cell_length_c   16.51542215
_cell_angle_alpha   118.91218821
_cell_angle_beta   118.91229855
_cell_angle_gamma   90.00588164
_symmetry_Int_Tables_number   1
_chemical_formula_structural   CdH12C12(NO)4
_chemical_formula_sum   'Cd8 H96 C96 N32 O32'
_cell_volume   3072.37763185
_cell_formula_units_Z   8
loop_
 _symmetry_equiv_pos_site_id
 _symmetry_equiv_pos_as_xyz
  1  'x, y, z'
loop_
 _atom_site_type_symbol
 _atom_site_label
 _atom_site_symmetry_multiplicity
 _atom_site_fract_x
 _atom_site_fract_y
 _atom_site_fract_z
 _atom_site_occupancy
 _atom_site_pbe_bader_charge
 _atom_site_pbe_bader_spin_density
 _atom_site_pbe_cm5_charge
 _atom_site_pbe_ddec_charge
 _atom_site_pbe_ddec_spin_density
 _atom_site_pbe_ddec_sum_bond_order
 _atom_site_pbe_magmom
Cd  Cd0  1  0.53374187  0.73132249  0.81995062  1  1.233643  0  0.76345  0.844153  0  2.180092  0
Cd  Cd1  1  0.28655330  0.08889960  0.82024663  1  1.235599  0  0.763797  0.84381  0  2.181721  0
Cd  Cd2  1  0.26875237  0.71352149  0.17981296  1  1.233981  0  0.763456  0.843745  0  2.179032  0
Cd  Cd3  1  0.91129504  0.46629391  0.17992886  1  1.233846  0  0.763054  0.843432  0  2.179468  0
Cd  Cd4  1  0.96352208  0.01874685  0.67980789  1  1.233956  0  0.763438  0.843735  0  2.179106  0
Cd  Cd5  1  0.71629473  0.66129385  0.67993183  1  1.233824  0  0.763056  0.84343  0  2.179439  0
Cd  Cd6  1  0.33890041  0.03655178  0.32024817  1  1.235448  0  0.763818  0.843829  0  2.181716  0
Cd  Cd7  1  0.98131901  0.28374053  0.31994858  1  1.233585  0  0.763482  0.844162  0  2.180156  0
H  H8  1  0.16297586  0.56182367  0.34598760  1  0.134129  0  0.125221  0.125099  0  0.995372  0
H  H9  1  0.18275326  0.78393497  0.34550289  1  0.133064  0  0.125185  0.125502  0  0.995103  0
H  H10  1  0.43821523  0.81688867  0.65403327  1  0.154772  0  0.125258  0.125027  0  0.994071  0
H  H11  1  0.21593625  0.83733809  0.65459542  1  0.139457  0  0.125334  0.125024  0  0.994745  0
H  H12  1  0.06688896  0.18821603  0.15403788  1  0.154941  0  0.125269  0.12501  0  0.994048  0
H  H13  1  0.08733492  0.96593840  0.15459019  1  0.139323  0  0.125333  0.125028  0  0.994688  0
H  H14  1  0.03393524  0.93275109  0.84549991  1  0.133063  0  0.125189  0.125491  0  0.995076  0
H  H15  1  0.81182754  0.91297891  0.84598910  1  0.134154  0  0.12524  0.125096  0  0.99527  0
H  H16  1  0.27607049  0.65760341  0.57718353  1  0.13922  0  0.121057  0.124299  0  1.058732  0
H  H17  1  0.30085144  0.91926639  0.57676908  1  0.160679  0  0.120962  0.124241  0  1.058611  0
H  H18  1  0.34231177  0.69874537  0.42280076  1  0.156808  0  0.121117  0.124599  0  1.057828  0
H  H19  1  0.08059449  0.72409762  0.42335097  1  0.185451  0  0.120982  0.124184  0  1.058285  0
H  H20  1  0.94874909  0.09231428  0.92280536  1  0.156817  0  0.121084  0.124609  0  1.057825  0
H  H21  1  0.97409612  0.83059545  0.92334579  1  0.185392  0  0.120979  0.124152  0  1.058337  0
H  H22  1  0.16926295  0.05085254  0.07676598  1  0.160731  0  0.120969  0.124205  0  1.058614  0
H  H23  1  0.90760456  0.02607452  0.07718486  1  0.139137  0  0.121034  0.12428  0  1.05876  0
H  H24  1  0.08836355  0.60301789  0.64146746  1  0.048216  0  0.112062  0.081068  0  1.0152  0
H  H25  1  0.55292580  0.03825282  0.64123529  1  0.050105  0  0.112112  0.081567  0  1.015525  0
H  H26  1  0.39690160  0.44675311  0.35841671  1  0.037944  0  0.112126  0.081062  0  1.0153  0
H  H27  1  0.96174863  0.91179346  0.35893796  1  0.043011  0  0.112301  0.081066  0  1.015208  0
H  H28  1  0.69675549  0.14690146  0.85841315  1  0.037939  0  0.112145  0.081069  0  1.015324  0
H  H29  1  0.16179790  0.71175173  0.85894217  1  0.042938  0  0.112284  0.081043  0  1.015225  0
H  H30  1  0.28825031  0.30292519  0.14123385  1  0.04993  0  0.112107  0.081568  0  1.015489  0
H  H31  1  0.85302161  0.83836722  0.14146970  1  0.048292  0  0.112079  0.081138  0  1.015102  0
H  H32  1  0.18195710  0.71307941  0.70202300  1  0.080074  0  0.115977  0.098167  0  0.984703  0
H  H33  1  0.51983504  0.98873840  0.70170449  1  0.084243  0  0.115957  0.097901  0  0.98412  0
H  H34  1  0.28689613  0.47981978  0.29790729  1  0.076116  0  0.115977  0.097694  0  0.985151  0
H  H35  1  0.01130574  0.81828869  0.29842277  1  0.085892  0  0.115888  0.097723  0  0.984666  0
H  H36  1  0.72982381  0.03689705  0.79790811  1  0.076246  0  0.115973  0.097682  0  0.985156  0
H  H37  1  0.06829161  0.76130657  0.79842350  1  0.085862  0  0.115869  0.097724  0  0.984626  0
H  H38  1  0.23873364  0.26983215  0.20170015  1  0.084533  0  0.115941  0.097891  0  0.984073  0
H  H39  1  0.96308218  0.93196218  0.20202785  1  0.080073  0  0.115983  0.098149  0  0.984758  0
H  H40  1  0.22065183  0.51113724  0.66051799  1  0.114906  0  0.105588  0.138626  0  1.008215  0
H  H41  1  0.43992405  0.14934032  0.66038600  1  0.118204  0  0.105337  0.138189  0  1.00888  0
H  H42  1  0.48891312  0.55992941  0.33945555  1  0.149169  0  0.105499  0.138707  0  1.00876  0
H  H43  1  0.85077252  0.77942329  0.33972458  1  0.111539  0  0.10547  0.138652  0  1.008432  0
H  H44  1  0.80993898  0.23891232  0.83945650  1  0.149513  0  0.105495  0.138733  0  1.008698  0
H  H45  1  0.02942817  0.60077342  0.83972649  1  0.111542  0  0.105516  0.138704  0  1.008353  0
H  H46  1  0.39933369  0.18991687  0.16038024  1  0.118238  0  0.105353  0.138234  0  1.008868  0
H  H47  1  0.76113605  0.97065127  0.16051623  1  0.114886  0  0.105577  0.138602  0  1.008237  0
H  H48  1  0.24114489  0.60967917  0.78630179  1  0.053804  0  0.10874  0.1306  0  0.96376  0
H  H49  1  0.54513684  0.17640716  0.78611920  1  0.061039  0  0.108679  0.130293  0  0.963618  0
H  H50  1  0.39028853  0.45469326  0.21361747  1  0.06882  0  0.10891  0.130621  0  0.963668  0
H  H51  1  0.82360011  0.75905793  0.21402288  1  0.054751  0  0.108836  0.13048  0  0.964086  0
H  H52  1  0.70469990  0.14029016  0.71361750  1  0.068931  0  0.108925  0.130606  0  0.963685  0
H  H53  1  0.00906254  0.57360209  0.71402494  1  0.054679  0  0.108833  0.130434  0  0.964103  0
H  H54  1  0.42640610  0.29513200  0.28611493  1  0.061125  0  0.108686  0.130343  0  0.963593  0
H  H55  1  0.85967768  0.99114628  0.28630212  1  0.053803  0  0.108715  0.130578  0  0.963718  0
H  H56  1  0.77853069  0.31756219  0.34851726  1  0.157968  0  0.12884  0.132551  0  0.98076  0
H  H57  1  0.57011845  0.03122994  0.34888623  1  0.129482  0  0.12882  0.132875  0  0.980682  0
H  H58  1  0.68228838  0.42980455  0.65143031  1  0.114923  0  0.128795  0.132635  0  0.979664  0
H  H59  1  0.96920428  0.22168025  0.65132463  1  0.132449  0  0.129038  0.13293  0  0.980514  0
H  H60  1  0.67980527  0.43229207  0.15142439  1  0.114962  0  0.12882  0.132626  0  0.979648  0
H  H61  1  0.47168302  0.71920808  0.15132835  1  0.132407  0  0.12902  0.132919  0  0.980482  0
H  H62  1  0.28122472  0.32011576  0.84888007  1  0.129542  0  0.12884  0.132875  0  0.980669  0
H  H63  1  0.56756590  0.52853802  0.84852579  1  0.157983  0  0.128857  0.132598  0  0.980619  0
H  H64  1  0.76208452  0.51031519  0.45957246  1  0.164593  0  0.133607  0.147813  0  0.993902  0
H  H65  1  0.69763580  0.94958661  0.46000876  1  0.165726  0  0.133669  0.147519  0  0.994269  0
H  H66  1  0.48946495  0.30237935  0.54030471  1  0.165406  0  0.133331  0.147223  0  0.994545  0
H  H67  1  0.05068377  0.23765760  0.53990569  1  0.15945  0  0.133452  0.147414  0  0.99462  0
H  H68  1  0.55237648  0.23947137  0.04030460  1  0.16549  0  0.133377  0.147258  0  0.99445  0
H  H69  1  0.48765901  0.80068742  0.03990920  1  0.159422  0  0.133448  0.147376  0  0.994659  0
H  H70  1  0.19958705  0.44763423  0.96000743  1  0.165758  0  0.133684  0.14754  0  0.994257  0
H  H71  1  0.76031846  0.51208835  0.95957623  1  0.164483  0  0.133601  0.147799  0  0.993872  0
H  H72  1  0.99583877  0.69227477  0.55379391  1  0.068017  0  0.10756  0.078066  0  1.023712  0
H  H73  1  0.55788421  0.86135633  0.55364511  1  0.064824  0  0.107376  0.077796  0  1.023548  0
H  H74  1  0.30773504  0.44217300  0.44640300  1  0.066285  0  0.10752  0.077761  0  1.024683  0
H  H75  1  0.13858647  0.00407666  0.44614604  1  0.049863  0  0.107589  0.07793  0  1.024198  0
H  H76  1  0.69217635  0.05774435  0.94640722  1  0.067681  0  0.107502  0.07772  0  1.024748  0
H  H77  1  0.25407711  0.88858695  0.94614681  1  0.049874  0  0.107591  0.077955  0  1.02421  0
H  H78  1  0.11135739  0.30788294  0.05364374  1  0.064854  0  0.107367  0.077767  0  1.023591  0
H  H79  1  0.94228171  0.74583984  0.05379839  1  0.067879  0  0.107569  0.078065  0  1.023714  0
H  H80  1  0.92622832  0.68912661  0.61037701  1  0.134693  0  0.109327  0.100672  0  1.021347  0
H  H81  1  0.68409939  0.92113994  0.61026612  1  0.140156  0  0.109283  0.100273  0  1.021219  0
H  H82  1  0.31064100  0.31588871  0.38958360  1  0.129535  0  0.109291  0.100611  0  1.020876  0
H  H83  1  0.07888625  0.07371238  0.38959212  1  0.138085  0  0.109386  0.100511  0  1.021759  0
H  H84  1  0.56589183  0.06064322  0.88958450  1  0.129556  0  0.109296  0.100634  0  1.020843  0
H  H85  1  0.32371475  0.82888654  0.88959633  1  0.138118  0  0.109402  0.100506  0  1.021764  0
H  H86  1  0.17114560  0.43409762  0.11026638  1  0.140351  0  0.109268  0.100261  0  1.021235  0
H  H87  1  0.93913219  0.67622740  0.11038001  1  0.134558  0  0.109336  0.100677  0  1.021306  0
H  H88  1  0.77210745  0.67475235  0.45250213  1  0.095499  0  0.10474  0.134035  0  1.009039  0
H  H89  1  0.68051553  0.77774252  0.45261961  1  0.092918  0  0.104671  0.134  0  1.009134  0
H  H90  1  0.32514845  0.31957008  0.54746996  1  0.103856  0  0.104894  0.133914  0  1.009807  0
H  H91  1  0.22221863  0.22782455  0.54738702  1  0.097815  0  0.104897  0.133927  0  1.009135  0
H  H92  1  0.56957232  0.07515244  0.04747105  1  0.103867  0  0.104921  0.133943  0  1.009845  0
H  H93  1  0.47782482  0.97222128  0.04738838  1  0.09795  0  0.104898  0.133925  0  1.009127  0
H  H94  1  0.02774965  0.43051956  0.95262448  1  0.093055  0  0.104715  0.134093  0  1.009133  0
H  H95  1  0.92475893  0.52210927  0.95250663  1  0.095535  0  0.104739  0.133983  0  1.009064  0
H  H96  1  0.83357770  0.66627114  0.38548777  1  0.134124  0  0.099618  0.130291  0  1.02688  0
H  H97  1  0.55195080  0.71908062  0.38525779  1  0.121991  0  0.099452  0.130416  0  1.026505  0
H  H98  1  0.33375530  0.44809278  0.61462527  1  0.120316  0  0.099456  0.129885  0  1.026697  0
H  H99  1  0.28084021  0.16656915  0.61465167  1  0.123804  0  0.099552  0.129994  0  1.027247  0
H  H100  1  0.69809594  0.08375761  0.11462682  1  0.121168  0  0.09945  0.129899  0  1.026714  0
H  H101  1  0.41656789  0.03084254  0.11464944  1  0.123818  0  0.099579  0.130035  0  1.027224  0
H  H102  1  0.96908404  0.30195587  0.88526028  1  0.12207  0  0.099433  0.130394  0  1.026579  0
H  H103  1  0.91627303  0.58357607  0.88548825  1  0.134049  0  0.099608  0.130258  0  1.02691  0
C  C104  1  0.04089324  0.53978603  0.44541248  1  0.984988  0  0.210596  0.157585  0  4.060875  0
C  C105  1  0.40432892  0.90549261  0.44515865  1  1.002364  0  0.210926  0.15873  0  4.058498  0
C  C106  1  0.46026420  0.59538883  0.55451430  1  0.971066  0  0.210333  0.157985  0  4.058728  0
C  C107  1  0.09453759  0.95929168  0.55492920  1  1.00731  0  0.211125  0.158459  0  4.058798  0
C  C108  1  0.84538923  0.21026630  0.05451370  1  0.971511  0  0.210331  0.157994  0  4.058697  0
C  C109  1  0.20929149  0.84454155  0.05493282  1  1.007923  0  0.21117  0.158533  0  4.05867  0
C  C110  1  0.15548968  0.15432737  0.94515366  1  1.003098  0  0.211006  0.158789  0  4.058504  0
C  C111  1  0.78979165  0.79089443  0.94541588  1  0.984976  0  0.21054  0.157375  0  4.060954  0
C  C112  1  0.14145726  0.56553556  0.40044685  1  0.442552  0  0.007795  -0.009755  0  3.981913  0
C  C113  1  0.25875002  0.83469317  0.40004242  1  0.437691  0  0.008041  -0.009806  0  3.981434  0
C  C114  1  0.43450801  0.74091298  0.59954317  1  0.428028  0  0.008224  -0.008438  0  3.979209  0
C  C115  1  0.16521588  0.85879570  0.60004568  1  0.431592  0  0.007439  -0.009083  0  3.981315  0
C  C116  1  0.99091191  0.18451091  0.09954505  1  0.428022  0  0.008252  -0.008387  0  3.979289  0
C  C117  1  0.10879403  0.91521912  0.10004175  1  0.432247  0  0.007432  -0.009086  0  3.981315  0
C  C118  1  0.08469195  0.00874761  0.90003798  1  0.437817  0  0.008015  -0.009858  0  3.981522  0
C  C119  1  0.81554008  0.89146082  0.90045058  1  0.442414  0  0.007807  -0.009662  0  3.981709  0
C  C120  1  0.19817983  0.61243684  0.51400079  1  0.297919  0  0.005421  -0.092764  0  3.882425  0
C  C121  1  0.31557298  0.90128370  0.51360979  1  0.289532  0  0.005518  -0.092933  0  3.883226  0
C  C122  1  0.38753525  0.68406285  0.48597835  1  0.28579  0  0.004946  -0.093801  0  3.882056  0
C  C123  1  0.09861448  0.80201403  0.48647785  1  0.261837  0  0.005652  -0.093232  0  3.883121  0
C  C124  1  0.93406493  0.13753622  0.98597975  1  0.285657  0  0.004975  -0.093824  0  3.88205  0
C  C125  1  0.05201415  0.84861624  0.98647651  1  0.26142  0  0.005673  -0.093165  0  3.883122  0
C  C126  1  0.15128192  0.06557204  0.01360604  1  0.289567  0  0.005549  -0.092854  0  3.883209  0
C  C127  1  0.86244025  0.94818400  0.01400331  1  0.297992  0  0.00546  -0.092793  0  3.882494  0
C  C128  1  0.15862927  0.63055931  0.65299187  1  0.311036  0  -0.051338  -0.043708  0  3.894297  0
C  C129  1  0.49415666  0.02226304  0.65272487  1  0.280189  0  -0.051856  -0.045318  0  3.896137  0
C  C130  1  0.36941011  0.50551665  0.34693839  1  0.320094  0  -0.05118  -0.041872  0  3.894176  0
C  C131  1  0.97777095  0.84152958  0.34739141  1  0.291599  0  -0.051337  -0.042958  0  3.894697  0
C  C132  1  0.75552070  0.11941036  0.84693803  1  0.32003  0  -0.051132  -0.041823  0  3.894149  0
C  C133  1  0.09153400  0.72777357  0.84739446  1  0.291542  0  -0.051326  -0.04295  0  3.894657  0
C  C134  1  0.27226003  0.24415357  0.15272112  1  0.280459  0  -0.051832  -0.045342  0  3.896006  0
C  C135  1  0.88056165  0.90863250  0.15299323  1  0.311003  0  -0.051331  -0.043739  0  3.894396  0
C  C136  1  0.23934850  0.59319963  0.71236861  1  -0.061923  0  -0.162403  -0.316481  0  3.898964  0
C  C137  1  0.47293490  0.11905215  0.71215832  1  -0.068392  0  -0.162167  -0.315343  0  3.898204  0
C  C138  1  0.40683706  0.52683958  0.28759928  1  -0.110264  0  -0.162677  -0.317089  0  3.899115  0
C  C139  1  0.88101553  0.76077689  0.28792405  1  -0.046665  0  -0.162299  -0.316466  0  3.900544  0
C  C140  1  0.77684583  0.15683586  0.78759862  1  -0.110632  0  -0.162722  -0.317076  0  3.899024  0
C  C141  1  0.01078125  0.63101774  0.78792664  1  -0.046194  0  -0.162337  -0.316446  0  3.900547  0
C  C142  1  0.36904782  0.22293101  0.21215383  1  -0.068444  0  -0.162207  -0.315531  0  3.898272  0
C  C143  1  0.84319909  0.98934945  0.21236836  1  -0.061958  0  -0.162377  -0.316447  0  3.89887  0
C  C144  1  0.34486422  0.64452462  0.75398457  1  1.56089  0  0.185029  0.596773  0  4.205822  0
C  C145  1  0.40905289  0.10955397  0.75384775  1  1.548622  0  0.184472  0.596837  0  4.206535  0
C  C146  1  0.35565215  0.59078401  0.24600904  1  1.547459  0  0.184044  0.595033  0  4.205753  0
C  C147  1  0.89065376  0.65524573  0.24620801  1  1.559662  0  0.185209  0.597904  0  4.206236  0
C  C148  1  0.84078815  0.10564836  0.74600724  1  1.547416  0  0.18407  0.594956  0  4.205866  0
C  C149  1  0.90524984  0.64065294  0.74620944  1  1.559286  0  0.18519  0.597834  0  4.2063  0
C  C150  1  0.35954121  0.15905083  0.25384293  1  1.54873  0  0.184502  0.59696  0  4.206174  0
C  C151  1  0.89452007  0.09486654  0.25398495  1  1.560931  0  0.185097  0.596757  0  4.205949  0
C  C152  1  0.95203671  0.49915292  0.43504456  1  1.002742  0  0.208014  0.156861  0  4.058166  0
C  C153  1  0.48288370  0.93578437  0.43490706  1  0.988328  0  0.208048  0.157044  0  4.058497  0
C  C154  1  0.50083604  0.51684764  0.56480775  1  0.992936  0  0.2081  0.157183  0  4.058689  0
C  C155  1  0.06429683  0.04810868  0.56514359  1  0.970494  0  0.208495  0.15766  0  4.058232  0
C  C156  1  0.76684766  0.25083976  0.06480768  1  0.993008  0  0.208086  0.157202  0  4.05871  0
C  C157  1  0.29811293  0.81430012  0.06514962  1  0.97025  0  0.20852  0.157718  0  4.057947  0
C  C158  1  0.18578329  0.23288134  0.93490194  1  0.988363  0  0.208113  0.157157  0  4.058431  0
C  C159  1  0.74915856  0.70204288  0.93505065  1  1.002473  0  0.20802  0.157044  0  4.058192  0
C  C160  1  0.82563087  0.39086804  0.38523834  1  0.416978  0  0.006517  -0.019006  0  3.995738  0
C  C161  1  0.55968812  0.99454745  0.38548555  1  0.438954  0  0.006651  -0.020198  0  3.994198  0
C  C162  1  0.60902994  0.44022315  0.61464438  1  0.483266  0  0.006753  -0.019277  0  3.994479  0
C  C163  1  0.00573439  0.17448897  0.61463985  1  0.444321  0  0.006599  -0.019596  0  3.994876  0
C  C164  1  0.69022269  0.35903087  0.11464223  1  0.483595  0  0.006683  -0.019314  0  3.994666  0
C  C165  1  0.42448950  0.75573967  0.11464640  1  0.444594  0  0.00662  -0.019628  0  3.994914  0
C  C166  1  0.24454656  0.30968700  0.88548137  1  0.438889  0  0.006694  -0.02012  0  3.993985  0
C  C167  1  0.64087224  0.57563858  0.88524822  1  0.417125  0  0.006462  -0.01901  0  3.995373  0
C  C168  1  0.81720439  0.48503219  0.44061439  1  0.297016  0  0.014402  -0.086662  0  3.867883  0
C  C169  1  0.62346927  0.95574475  0.44085669  1  0.293583  0  0.015322  -0.0842  0  3.866754  0
C  C170  1  0.51482795  0.37645048  0.55927296  1  0.277339  0  0.015288  -0.08436  0  3.867602  0
C  C171  1  0.04441230  0.18269212  0.55908343  1  0.300789  0  0.014774  -0.085384  0  3.868132  0
C  C172  1  0.62645271  0.26483322  0.05927278  1  0.277287  0  0.015241  -0.084435  0  3.867789  0
C  C173  1  0.43269418  0.79441478  0.05908585  1  0.300275  0  0.014841  -0.085227  0  3.867956  0
C  C174  1  0.20574385  0.37346738  0.94085283  1  0.293697  0  0.015239  -0.084224  0  3.866543  0
C  C175  1  0.73503732  0.56720905  0.94062039  1  0.296851  0  0.014459  -0.086598  0  3.86773  0
C  C176  1  0.92154160  0.66221140  0.53284638  1  0.268328  0  -0.061088  -0.049859  0  3.895375  0
C  C177  1  0.61122068  0.87053224  0.53272401  1  0.253477  0  -0.060774  -0.048558  0  3.894474  0
C  C178  1  0.33772343  0.38873126  0.46719363  1  0.265219  0  -0.060683  -0.049595  0  3.896821  0
C  C179  1  0.12946767  0.07837223  0.46711417  1  0.257583  0  -0.061163  -0.050359  0  3.896867  0
C  C180  1  0.63873296  0.08772855  0.96719473  1  0.264014  0  -0.0606  -0.049425  0  3.896871  0
C  C181  1  0.32837302  0.87946782  0.96711676  1  0.257769  0  -0.061225  -0.050457  0  3.896986  0
C  C182  1  0.12053628  0.36121980  0.03272407  1  0.253235  0  -0.06071  -0.048442  0  3.894471  0
C  C183  1  0.91221580  0.67154203  0.03284873  1  0.268793  0  -0.061122  -0.049867  0  3.895453  0
C  C184  1  0.84555798  0.69876011  0.46751041  1  -0.063359  0  -0.168348  -0.321313  0  3.88035  0
C  C185  1  0.62191244  0.76865129  0.46738122  1  -0.073347  0  -0.168312  -0.321712  0  3.878763  0
C  C186  1  0.30121838  0.37806696  0.53254728  1  -0.081448  0  -0.168383  -0.320286  0  3.879897  0
C  C187  1  0.23135278  0.15445263  0.53255375  1  -0.072507  0  -0.168504  -0.319793  0  3.879374  0
C  C188  1  0.62806917  0.05122270  0.03254734  1  -0.08243  0  -0.16846  -0.32046  0  3.880107  0
C  C189  1  0.40445191  0.98135375  0.03255263  1  -0.072637  0  -0.168509  -0.319768  0  3.879451  0
C  C190  1  0.01865589  0.37191612  0.96738426  1  -0.073352  0  -0.168356  -0.321839  0  3.878945  0
C  C191  1  0.94876641  0.59555975  0.96751241  1  -0.063387  0  -0.168345  -0.321169  0  3.8803  0
C  C192  1  0.88136307  0.81269215  0.53181024  1  1.511844  0  0.192063  0.623302  0  4.157595  0
C  C193  1  0.65034719  0.71902437  0.53167024  1  1.537424  0  0.191785  0.622291  0  4.157918  0
C  C194  1  0.18727987  0.34956689  0.46817936  1  1.532801  0  0.191849  0.622472  0  4.158405  0
C  C195  1  0.28104543  0.11874401  0.46835911  1  1.538371  0  0.192082  0.621496  0  4.158788  0
C  C196  1  0.59956781  0.93728371  0.96818014  1  1.533037  0  0.191888  0.622499  0  4.158468  0
C  C197  1  0.36873936  0.03103923  0.96835162  1  1.537497  0  0.192134  0.621473  0  4.158775  0
C  C198  1  0.96902965  0.40034986  0.03167370  1  1.537269  0  0.191796  0.622308  0  4.158003  0
C  C199  1  0.06269616  0.63136467  0.03180865  1  1.512029  0  0.192107  0.623276  0  4.157396  0
N  N200  1  0.04404494  0.52105063  0.35891293  1  -1.191383  0  -0.346305  -0.321983  0  3.498466  0
N  N201  1  0.31467706  0.83772850  0.35860036  1  -1.211107  0  -0.346495  -0.322374  0  3.496211  0
N  N202  1  0.47903865  0.68504434  0.64103863  1  -1.198984  0  -0.346486  -0.322677  0  3.496952  0
N  N203  1  0.16225681  0.95618715  0.64147950  1  -1.192163  0  -0.34664  -0.322291  0  3.498192  0
N  N204  1  0.93504277  0.22903987  0.14103792  1  -1.199293  0  -0.346517  -0.322692  0  3.49704  0
N  N205  1  0.20618569  0.91226124  0.14147946  1  -1.192885  0  -0.346666  -0.322335  0  3.498292  0
N  N206  1  0.08772759  0.06467362  0.85859497  1  -1.211278  0  -0.346522  -0.32239  0  3.496326  0
N  N207  1  0.77105595  0.79404775  0.85891611  1  -1.191109  0  -0.346333  -0.321994  0  3.498381  0
N  N208  1  0.13401647  0.59528085  0.54165329  1  -1.221339  0  -0.2323  0.020548  0  3.709685  0
N  N209  1  0.40741864  0.94617806  0.54136064  1  -1.182976  0  -0.232315  0.020666  0  3.708778  0
N  N210  1  0.40470918  0.59225284  0.45829105  1  -1.208538  0  -0.231989  0.019531  0  3.70933  0
N  N211  1  0.05382562  0.86614270  0.45873224  1  -1.203741  0  -0.232819  0.019462  0  3.708563  0
N  N212  1  0.84225408  0.15471222  0.95829205  1  -1.208586  0  -0.232009  0.019483  0  3.709303  0
N  N213  1  0.11614473  0.80382911  0.95873434  1  -1.203585  0  -0.232831  0.019393  0  3.708536  0
N  N214  1  0.19617515  0.15741707  0.04135676  1  -1.184134  0  -0.23233  0.020756  0  3.708663  0
N  N215  1  0.84528526  0.88402053  0.04165704  1  -1.221398  0  -0.232302  0.020658  0  3.709692  0
N  N216  1  0.90955999  0.40066803  0.38236544  1  -1.187484  0  -0.351886  -0.322365  0  3.540868  0
N  N217  1  0.47280840  0.98174624  0.38242560  1  -1.18193  0  -0.352801  -0.322824  0  3.541355  0
N  N218  1  0.59931183  0.52702417  0.61747963  1  -1.178871  0  -0.352025  -0.322452  0  3.538851  0
N  N219  1  0.01847928  0.09067896  0.61777079  1  -1.187089  0  -0.352541  -0.322952  0  3.538934  0
N  N220  1  0.77702094  0.34931627  0.11747479  1  -1.179374  0  -0.352018  -0.322463  0  3.539028  0
N  N221  1  0.34068342  0.76848448  0.11777772  1  -1.186491  0  -0.352577  -0.323003  0  3.539182  0
N  N222  1  0.23174124  0.22280559  0.88241765  1  -1.18215  0  -0.352827  -0.322912  0  3.541437  0
N  N223  1  0.65067211  0.65956586  0.88237307  1  -1.187462  0  -0.351888  -0.32245  0  3.540868  0
N  N224  1  0.89750125  0.55255015  0.47154936  1  -1.234533  0  -0.229992  0.027546  0  3.732327  0
N  N225  1  0.57397252  0.91896161  0.47151973  1  -1.217944  0  -0.230571  0.025809  0  3.734563  0
N  N226  1  0.44738038  0.42585925  0.52834974  1  -1.221663  0  -0.231048  0.02519  0  3.734873  0
N  N227  1  0.08104500  0.10241346  0.52834280  1  -1.214311  0  -0.230332  0.026689  0  3.73347  0
N  N228  1  0.67585801  0.19738511  0.02835062  1  -1.221773  0  -0.23104  0.025211  0  3.73503  0
N  N229  1  0.35241627  0.83105017  0.02834953  1  -1.214556  0  -0.230378  0.026625  0  3.733561  0
N  N230  1  0.16896311  0.32397104  0.97151713  1  -1.218134  0  -0.230628  0.025648  0  3.73456  0
N  N231  1  0.80255528  0.64750408  0.97155282  1  -1.2344  0  -0.229973  0.027379  0  3.732505  0
O  O232  1  0.41137678  0.60015398  0.77331662  1  -1.177801  0  -0.341425  -0.565451  0  2.157955  0
O  O233  1  0.36215340  0.17347121  0.77339497  1  -1.167552  0  -0.341091  -0.565251  0  2.158406  0
O  O234  1  0.40002664  0.63781094  0.22655977  1  -1.166192  0  -0.340821  -0.56411  0  2.155948  0
O  O235  1  0.82704089  0.58877656  0.22704448  1  -1.180998  0  -0.341237  -0.565238  0  2.156704  0
O  O236  1  0.88781573  0.15002215  0.72655829  1  -1.166098  0  -0.34088  -0.564096  0  2.156057  0
O  O237  1  0.83877944  0.57704209  0.72704702  1  -1.180954  0  -0.341226  -0.56519  0  2.156656  0
O  O238  1  0.42346241  0.11214147  0.27338432  1  -1.167377  0  -0.341205  -0.565394  0  2.15784  0
O  O239  1  0.85015068  0.16137528  0.27331489  1  -1.17794  0  -0.34145  -0.565383  0  2.158104  0
O  O240  1  0.36263835  0.73022274  0.76858561  1  -1.171075  0  -0.333881  -0.557271  0  2.167704  0
O  O241  1  0.40567607  0.03841244  0.76836001  1  -1.172135  0  -0.333625  -0.557213  0  2.168516  0
O  O242  1  0.26998250  0.59409880  0.23147163  1  -1.169219  0  -0.333634  -0.556653  0  2.167757  0
O  O243  1  0.96159878  0.63741596  0.23135446  1  -1.175091  0  -0.33427  -0.558195  0  2.169077  0
O  O244  1  0.84410000  0.01997857  0.73146918  1  -1.169374  0  -0.333639  -0.556662  0  2.167791  0
O  O245  1  0.88741664  0.71159708  0.73135472  1  -1.175043  0  -0.334256  -0.558158  0  2.169111  0
O  O246  1  0.28841073  0.15567715  0.26836064  1  -1.172382  0  -0.333555  -0.557146  0  2.168799  0
O  O247  1  0.98022264  0.11264008  0.26858626  1  -1.17093  0  -0.333951  -0.557351  0  2.167751  0
O  O248  1  0.96373435  0.85870574  0.62803627  1  -1.15094  0  -0.338177  -0.544269  0  2.189897  0
O  O249  1  0.66425973  0.76934116  0.62793158  1  -1.156898  0  -0.337821  -0.543513  0  2.189528  0
O  O250  1  0.14140608  0.33589426  0.37203740  1  -1.152544  0  -0.337958  -0.543999  0  2.190416  0
O  O251  1  0.23066396  0.03652396  0.37198291  1  -1.152313  0  -0.33819  -0.543194  0  2.190542  0
O  O252  1  0.58589390  0.89140953  0.87203500  1  -1.152407  0  -0.337996  -0.544031  0  2.190307  0
O  O253  1  0.28652081  0.98065997  0.87197861  1  -1.151436  0  -0.338199  -0.543169  0  2.190584  0
O  O254  1  0.01934950  0.41426717  0.12793855  1  -1.156999  0  -0.337856  -0.543502  0  2.189413  0
O  O255  1  0.10870997  0.71374032  0.12803113  1  -1.150868  0  -0.338181  -0.54422  0  2.189785  0
O  O256  1  0.83056097  0.85828727  0.48977181  1  -1.194847  0  -0.348204  -0.596817  0  2.116734  0
O  O257  1  0.65902536  0.63135481  0.48967127  1  -1.194834  0  -0.348265  -0.596501  0  2.116593  0
O  O258  1  0.14152690  0.34063790  0.50999344  1  -1.193115  0  -0.348034  -0.596359  0  2.117079  0
O  O259  1  0.36877225  0.16941651  0.51048044  1  -1.194718  0  -0.348309  -0.596465  0  2.116796  0
O  O260  1  0.59063674  0.89153082  0.00998779  1  -1.193486  0  -0.348  -0.596285  0  2.117252  0
O  O261  1  0.41941394  0.11877154  0.01047447  1  -1.194756  0  -0.348356  -0.596518  0  2.11667  0
O  O262  1  0.88136087  0.40902729  0.98967590  1  -1.194702  0  -0.348252  -0.596501  0  2.116736  0
O  O263  1  0.10829271  0.58055593  0.98977415  1  -1.195072  0  -0.348238  -0.596853  0  2.116526  0
