# generated using pymatgen
data_Ni2H76C57(NO)12
_symmetry_space_group_name_H-M   'P 1'
_cell_length_a   9.28922101
_cell_length_b   18.76478570
_cell_length_c   22.55634266
_cell_angle_alpha   85.04788852
_cell_angle_beta   77.49754627
_cell_angle_gamma   74.78757410
_symmetry_Int_Tables_number   1
_chemical_formula_structural   Ni2H76C57(NO)12
_chemical_formula_sum   'Ni4 H152 C114 N24 O24'
_cell_volume   3702.24209314
_cell_formula_units_Z   2
loop_
 _symmetry_equiv_pos_site_id
 _symmetry_equiv_pos_as_xyz
  1  'x, y, z'
loop_
 _atom_site_type_symbol
 _atom_site_label
 _atom_site_symmetry_multiplicity
 _atom_site_fract_x
 _atom_site_fract_y
 _atom_site_fract_z
 _atom_site_occupancy
 _atom_site_pbe_bader_charge
 _atom_site_pbe_bader_spin_density
 _atom_site_pbe_cm5_charge
 _atom_site_pbe_ddec_charge
 _atom_site_pbe_ddec_spin_density
 _atom_site_pbe_ddec_sum_bond_order
 _atom_site_pbe_magmom
Ni  Ni0  1  0.99999179  0.00000290  0.00000167  1  1.053903  1.495222  0.648482  0.591391  1.75872  2.502292  1.482
Ni  Ni1  1  0.99999861  0.49999921  0.49999928  1  1.055187  1.495351  0.647463  0.590362  1.758758  2.504538  1.482
Ni  Ni2  1  0.00000343  0.00000177  0.49999761  1  1.058867  1.494676  0.644997  0.589284  1.757761  2.494878  1.481
Ni  Ni3  1  0.50000942  0.50000076  0.00000092  1  0.947785  0.001159  0.614262  0.474852  -0.09698  2.524927  -0.001
H  H4  1  0.89359824  0.11845619  0.45013659  1  0.470884  -0.000332  0.284512  0.245898  -0.00015  1.017859  0.0
H  H5  1  0.14445425  0.91301856  0.91901074  1  0.480857  -0.000325  0.284159  0.244264  -0.000111  1.015764  0.0
H  H6  1  0.18400849  0.85760224  0.11784833  1  0.030146  0.004388  0.102949  0.060394  0.002023  1.028198  0.003
H  H7  1  0.00146606  0.88491498  0.09493413  1  0.135248  0.000937  0.118212  0.090007  0.000246  1.033067  0.001
H  H8  1  0.35537289  0.85657161  0.95276553  1  0.028476  -5.3e-05  0.108725  0.098784  -7.5e-05  0.989467  0.0
H  H9  1  0.43178073  0.81267766  0.01630349  1  0.070358  9e-06  0.099009  0.087335  6e-06  0.986162  0.0
H  H10  1  0.38804510  0.92469632  0.06330949  1  0.030943  0.004398  0.090708  0.06484  0.002014  1.042035  0.002
H  H11  1  0.34611174  0.97165901  0.99436609  1  0.057137  0.001779  0.105431  0.096146  0.000621  1.01181  0.001
H  H12  1  0.98486304  0.82366341  0.01208055  1  0.075971  0.000359  0.11552  0.070566  7e-05  1.002702  0.0
H  H13  1  0.14776086  0.78966284  0.95439552  1  0.02743  0.006279  0.103831  0.053104  0.002951  0.986317  0.003
H  H14  1  0.82339011  0.90438632  0.95645738  1  0.074396  0.000473  0.10872  0.090496  8.6e-05  0.974839  0.0
H  H15  1  0.94523733  0.87304260  0.88598392  1  0.02741  0.004266  0.099335  0.074575  0.002018  0.96078  0.002
H  H16  1  0.21091054  0.00074250  0.13035283  1  0.033061  0.002517  0.096545  0.075217  0.001196  1.021208  0.001
H  H17  1  0.01572356  0.00006821  0.13897514  1  0.052541  -6.3e-05  0.112793  0.099864  -0.000151  0.967649  0.0
H  H18  1  0.05850200  0.10210552  0.63544335  1  0.041269  0.00441  0.101538  0.059973  0.002043  1.020778  0.003
H  H19  1  0.90002109  0.07966997  0.61330634  1  0.058465  0.000922  0.118141  0.090113  0.000237  1.025903  0.001
H  H20  1  0.32073821  0.06115630  0.56543932  1  0.022277  0.004558  0.090877  0.064334  0.002076  1.04388  0.002
H  H21  1  0.33066154  0.99312676  0.51294123  1  0.103358  0.001684  0.10508  0.095414  0.000593  1.011312  0.001
H  H22  1  0.27142496  0.90895312  0.59575794  1  0.100583  -5.5e-05  0.108117  0.095822  -8.9e-05  0.99381  0.0
H  H23  1  0.30378615  0.97215460  0.64306621  1  0.059232  1.9e-05  0.096268  0.077011  8e-06  0.983211  0.0
H  H24  1  0.98074216  0.11219058  0.34305986  1  0.036012  0.006704  0.106626  0.060325  0.003177  0.959893  0.003
H  H25  1  0.13623491  0.03641399  0.35392996  1  0.066157  0.000374  0.114428  0.069448  7.6e-05  0.9874  0.0
H  H26  1  0.11049811  0.17276322  0.41929950  1  0.037556  0.004631  0.095048  0.066317  0.002206  0.9809  0.002
H  H27  1  0.23022524  0.08231126  0.42705562  1  0.049751  0.000496  0.106952  0.08765  9.3e-05  0.978304  0.0
H  H28  1  0.17947594  0.15861837  0.52031680  1  0.046734  0.002516  0.097208  0.075291  0.0012  1.021603  0.001
H  H29  1  0.98160180  0.16644020  0.52813373  1  0.05824  -4.8e-05  0.111716  0.099262  -0.00014  0.97941  0.0
H  H30  1  0.61210310  0.05211306  0.64940072  1  0.044519  0.00027  0.098595  0.096189  0.000149  1.026013  0.0
H  H31  1  0.36185103  0.08304711  0.72288391  1  0.087987  7e-06  0.105507  0.123776  -1.6e-05  1.00594  0.0
H  H32  1  0.18170685  0.24877427  0.59508062  1  0.063797  0.00019  0.100708  0.103718  7.4e-05  1.061196  0.0
H  H33  1  0.43503155  0.21964122  0.52415255  1  0.08814  5.6e-05  0.102635  0.102289  -1e-06  1.004764  0.0
H  H34  1  0.96179239  0.23157778  0.65294014  1  0.078484  0.000165  0.106173  0.076609  9.6e-05  0.998538  0.0
H  H35  1  0.04318614  0.29111545  0.68617965  1  0.068758  3.3e-05  0.107734  0.079517  2e-05  0.99561  0.0
H  H36  1  0.77734788  0.16967879  0.71578891  1  0.068532  4.1e-05  0.107853  0.080671  1.2e-05  0.990371  0.0
H  H37  1  0.89476733  0.13018308  0.76975772  1  0.083462  8e-05  0.106128  0.077756  4.2e-05  0.982083  0.0
H  H38  1  0.43841650  0.22829666  0.88397896  1  0.093338  6e-06  0.104559  0.120941  -2e-06  1.020347  0.0
H  H39  1  0.26143601  0.14778432  0.92501939  1  0.0851  0.000248  0.097347  0.09385  0.000162  1.045074  0.0
H  H40  1  0.53043233  0.97946192  0.80171085  1  0.099717  1.8e-05  0.102615  0.105787  -2.3e-05  0.997082  0.0
H  H41  1  0.71262743  0.05780937  0.76121717  1  0.054169  0.000224  0.101809  0.112923  9.3e-05  1.016237  0.0
H  H42  1  0.45469486  0.38467679  0.04409950  1  0.492198  0.000162  0.285097  0.248092  0.000215  1.004016  0.0
H  H43  1  0.97226948  0.58665368  0.58065365  1  0.484295  -0.000328  0.284491  0.246709  -0.000113  1.016377  0.0
H  H44  1  0.15988890  0.64089291  0.38138981  1  0.052339  0.004329  0.103277  0.06065  0.002016  1.028178  0.003
H  H45  1  0.98073659  0.61515222  0.40522662  1  0.122456  0.000933  0.117704  0.088928  0.000242  1.032164  0.001
H  H46  1  0.16122723  0.64127335  0.54622479  1  0.048243  -5.2e-05  0.108944  0.099428  -7.7e-05  0.98859  0.0
H  H47  1  0.25858682  0.68446731  0.48244869  1  0.05393  3e-06  0.098267  0.085416  -2e-06  0.988011  0.0
H  H48  1  0.37817846  0.57242404  0.43496692  1  0.039971  0.004398  0.091452  0.065171  0.002029  1.043141  0.002
H  H49  1  0.31421057  0.52575681  0.50418872  1  0.080707  0.001749  0.105279  0.096477  0.000617  1.01072  0.001
H  H50  1  0.81577715  0.67762942  0.48827695  1  0.066006  0.000376  0.114335  0.069252  8.2e-05  1.000417  0.0
H  H51  1  0.88564606  0.71037310  0.54552934  1  0.013431  0.006406  0.104739  0.05449  0.002988  0.984605  0.003
H  H52  1  0.67921623  0.59784982  0.54417398  1  0.054914  0.000471  0.108832  0.090495  8.4e-05  0.976325  0.0
H  H53  1  0.69663912  0.62860862  0.61441772  1  0.004737  0.004281  0.099165  0.074389  0.002001  0.962185  0.002
H  H54  1  0.34760927  0.49662273  0.36884013  1  0.063316  0.00246  0.096847  0.075899  0.001181  1.017624  0.001
H  H55  1  0.15935958  0.49904240  0.36087266  1  0.039385  -6.6e-05  0.112763  0.100055  -0.00015  0.970363  0.0
H  H56  1  0.80014586  0.39946041  0.86449387  1  0.073412  -0.002775  0.105943  0.067459  -0.001996  1.017746  -0.002
H  H57  1  0.59354035  0.42532115  0.88441167  1  0.115851  -0.000733  0.120593  0.097891  -0.000467  1.027705  -0.001
H  H58  1  0.94320498  0.43644526  0.93877815  1  0.062188  -0.002633  0.094515  0.072795  -0.001874  1.035488  -0.001
H  H59  1  0.82320586  0.50650807  0.98927242  1  0.09001  -0.001382  0.10745  0.102324  -0.000932  1.017247  -0.001
H  H60  1  0.78383670  0.58995575  0.90374296  1  0.072144  3.3e-05  0.109084  0.097279  1.8e-05  0.989799  0.0
H  H61  1  0.92806274  0.52227268  0.85859933  1  0.051297  -1.8e-05  0.098428  0.080481  -1.9e-05  0.983418  0.0
H  H62  1  0.43420341  0.38241027  0.15101504  1  0.043081  0.003414  0.112355  0.068484  0.00161  0.954256  0.002
H  H63  1  0.52462141  0.45693770  0.14304346  1  0.054164  7.4e-05  0.118616  0.076761  -2.6e-05  0.977473  0.0
H  H64  1  0.69140077  0.32317773  0.07617951  1  0.019222  0.003461  0.100644  0.074694  0.00161  0.978234  0.002
H  H65  1  0.73582058  0.41106256  0.07000878  1  0.074606  0.000317  0.11075  0.093687  8.4e-05  0.971177  0.0
H  H66  1  0.85583612  0.33936441  0.97390682  1  0.052532  -0.001867  0.100289  0.080443  -0.001308  1.02962  -0.001
H  H67  1  0.67106445  0.33491789  0.96708398  1  0.053185  -3.8e-05  0.114234  0.10319  5e-06  0.976893  0.0
H  H68  1  0.30946117  0.44145477  0.84567742  1  0.068369  1.8e-05  0.097407  0.095853  -3e-06  1.026215  0.0
H  H69  1  0.16520134  0.41062599  0.77342431  1  0.107839  -8e-06  0.105638  0.123725  -1e-05  1.006148  0.0
H  H70  1  0.02245378  0.24855873  0.90430489  1  0.058644  -4e-06  0.100216  0.102  -2.4e-05  1.063697  0.0
H  H71  1  0.17315801  0.27825890  0.97410717  1  0.089802  1.5e-05  0.100975  0.100478  1e-06  1.006151  0.0
H  H72  1  0.84261620  0.26573644  0.84647693  1  0.067134  7e-05  0.105536  0.077017  3.5e-05  0.995877  0.0
H  H73  1  0.02125935  0.20528778  0.81358073  1  0.078114  2.6e-05  0.108302  0.080833  2.1e-05  0.99551  0.0
H  H74  1  0.65863924  0.32722989  0.78350441  1  0.087755  -3e-06  0.108447  0.082693  -1.7e-05  0.985097  0.0
H  H75  1  0.79160889  0.36625778  0.72940313  1  0.066232  4.3e-05  0.105765  0.076883  7e-06  0.984378  0.0
H  H76  1  0.55595090  0.26854755  0.61589053  1  0.131123  2.1e-05  0.104446  0.12136  -6e-06  1.018134  0.0
H  H77  1  0.33767981  0.35008237  0.57487324  1  0.067419  0.000246  0.09772  0.095238  0.000149  1.044485  0.0
H  H78  1  0.30596636  0.51894040  0.69658030  1  0.109486  1.5e-05  0.10305  0.106594  -2.5e-05  0.996294  0.0
H  H79  1  0.52771775  0.43954323  0.73702665  1  0.052006  0.000222  0.102309  0.113485  0.000101  1.014347  0.0
H  H80  1  0.10640194  0.88154953  0.54985982  1  0.47049  -0.000331  0.284431  0.245829  -0.000149  1.017814  0.0
H  H81  1  0.85553058  0.08698604  0.08099539  1  0.480514  -0.000325  0.284187  0.244267  -0.00011  1.015745  0.0
H  H82  1  0.81595324  0.14240846  0.88216237  1  0.029545  0.004389  0.102986  0.060233  0.002023  1.028391  0.003
H  H83  1  0.99849829  0.11509740  0.90507361  1  0.135201  0.000937  0.118146  0.089963  0.000246  1.033225  0.001
H  H84  1  0.64459556  0.14343467  0.04724358  1  0.028281  -5.3e-05  0.108661  0.098689  -7.5e-05  0.989418  0.0
H  H85  1  0.56818520  0.18733139  0.98370609  1  0.070296  9e-06  0.09891  0.087177  6e-06  0.986083  0.0
H  H86  1  0.61192568  0.07531218  0.93669663  1  0.032774  0.004399  0.090653  0.064806  0.002015  1.041965  0.002
H  H87  1  0.65385786  0.02834727  0.00564204  1  0.056546  0.001779  0.105408  0.096174  0.000621  1.011734  0.001
H  H88  1  0.01510883  0.17634509  0.98792593  1  0.076283  0.000359  0.115567  0.070682  7e-05  1.002861  0.0
H  H89  1  0.85221533  0.21034121  0.04561311  1  0.027634  0.006277  0.103858  0.05322  0.00295  0.986269  0.003
H  H90  1  0.17659209  0.09561940  0.04354623  1  0.074481  0.000473  0.108741  0.09052  8.6e-05  0.974834  0.0
H  H91  1  0.05475118  0.12696807  0.11401932  1  0.027515  0.004265  0.099322  0.074527  0.002018  0.9607  0.002
H  H92  1  0.78907434  0.99926652  0.86965169  1  0.033291  0.002516  0.096512  0.07522  0.001195  1.021259  0.001
H  H93  1  0.98425829  0.99994409  0.86103431  1  0.052945  -6.3e-05  0.112829  0.099987  -0.000151  0.967713  0.0
H  H94  1  0.94150171  0.89789742  0.36455427  1  0.041393  0.00441  0.101564  0.06004  0.002043  1.020633  0.003
H  H95  1  0.09998170  0.92033682  0.38669245  1  0.058438  0.000921  0.118113  0.090078  0.000237  1.025965  0.001
H  H96  1  0.67926573  0.93885050  0.43455849  1  0.02261  0.004558  0.090902  0.064329  0.002076  1.043726  0.002
H  H97  1  0.66934114  0.00687841  0.48705457  1  0.103306  0.001684  0.105062  0.095342  0.000593  1.011472  0.001
H  H98  1  0.72857484  0.09105314  0.40424024  1  0.100469  -5.5e-05  0.108081  0.095745  -8.9e-05  0.993868  0.0
H  H99  1  0.69621285  0.02785111  0.35693162  1  0.059172  1.9e-05  0.096259  0.076967  8e-06  0.98322  0.0
H  H100  1  0.01924971  0.88781627  0.65693758  1  0.036092  0.006705  0.106578  0.060246  0.003177  0.959694  0.003
H  H101  1  0.86376289  0.96359673  0.64606366  1  0.066134  0.000374  0.114434  0.069437  7.6e-05  0.987484  0.0
H  H102  1  0.88949977  0.82724691  0.58069815  1  0.037643  0.00463  0.095115  0.066452  0.002205  0.980885  0.002
H  H103  1  0.76977830  0.91769888  0.57293892  1  0.04934  0.000496  0.106928  0.08762  9.3e-05  0.978417  0.0
H  H104  1  0.82053578  0.84138621  0.47967964  1  0.046806  0.002516  0.097229  0.07521  0.0012  1.02159  0.001
H  H105  1  0.01840678  0.83356823  0.47186450  1  0.05814  -4.8e-05  0.111713  0.099213  -0.00014  0.979392  0.0
H  H106  1  0.38790852  0.94788989  0.35059272  1  0.04434  0.000271  0.098615  0.096268  0.000149  1.025952  0.0
H  H107  1  0.63816680  0.91694531  0.27711323  1  0.087925  7e-06  0.105504  0.123859  -1.6e-05  1.005987  0.0
H  H108  1  0.81827964  0.75122098  0.40492152  1  0.063788  0.00019  0.100713  0.103773  7.4e-05  1.06129  0.0
H  H109  1  0.56495222  0.78035575  0.47584349  1  0.088199  5.6e-05  0.102662  0.102327  -1e-06  1.004833  0.0
H  H110  1  0.03820330  0.76841189  0.34706560  1  0.078487  0.000165  0.106161  0.076604  9.6e-05  0.998603  0.0
H  H111  1  0.95681276  0.70887699  0.31382211  1  0.06874  3.3e-05  0.107745  0.07961  2e-05  0.99543  0.0
H  H112  1  0.22266020  0.83031250  0.28421618  1  0.068576  4.1e-05  0.107853  0.080669  1.2e-05  0.990423  0.0
H  H113  1  0.10522773  0.86980989  0.23024919  1  0.083635  8e-05  0.106104  0.077759  4.3e-05  0.982069  0.0
H  H114  1  0.56158138  0.77169801  0.11602097  1  0.093298  6e-06  0.104533  0.120802  -2e-06  1.020353  0.0
H  H115  1  0.73856596  0.85221088  0.07498106  1  0.085132  0.000248  0.097357  0.09386  0.000162  1.044934  0.0
H  H116  1  0.46955873  0.02053053  0.19829375  1  0.099921  1.8e-05  0.102566  0.105714  -2.3e-05  0.997107  0.0
H  H117  1  0.28737513  0.94217811  0.23878372  1  0.0544  0.000224  0.101764  0.112958  9.3e-05  1.016274  0.0
H  H118  1  0.54532533  0.61532228  0.95589349  1  0.49215  0.000162  0.285044  0.248098  0.000214  1.003943  0.0
H  H119  1  0.02773531  0.41334705  0.41934447  1  0.484294  -0.000328  0.284463  0.246652  -0.000113  1.016434  0.0
H  H120  1  0.84010421  0.35910292  0.61860643  1  0.05235  0.004329  0.103234  0.060649  0.002015  1.028076  0.003
H  H121  1  0.01925922  0.38484248  0.59477082  1  0.122852  0.000933  0.117681  0.088911  0.000242  1.032092  0.001
H  H122  1  0.83876587  0.35873131  0.45377047  1  0.048059  -5.2e-05  0.108908  0.099264  -7.7e-05  0.988743  0.0
H  H123  1  0.74140444  0.31553461  0.51754511  1  0.05383  3e-06  0.098245  0.08536  -2e-06  0.987921  0.0
H  H124  1  0.62181977  0.42757451  0.56503097  1  0.039993  0.004399  0.091438  0.065165  0.00203  1.043233  0.002
H  H125  1  0.68578150  0.47424506  0.49581079  1  0.080101  0.00175  0.105361  0.096631  0.000618  1.010773  0.001
H  H126  1  0.18421984  0.32236309  0.51171920  1  0.066319  0.000376  0.114353  0.069307  8.2e-05  1.000391  0.0
H  H127  1  0.11434468  0.28962773  0.45446413  1  0.01304  0.006409  0.104731  0.054433  0.002988  0.984638  0.003
H  H128  1  0.32078637  0.40214871  0.45582445  1  0.05494  0.000471  0.108783  0.09035  8.4e-05  0.976373  0.0
H  H129  1  0.30336188  0.37138882  0.38558002  1  0.005065  0.004281  0.099125  0.074276  0.002002  0.962182  0.002
H  H130  1  0.65239387  0.50337690  0.63115819  1  0.06338  0.002459  0.096819  0.07584  0.001181  1.017665  0.001
H  H131  1  0.84064308  0.50095393  0.63912501  1  0.039275  -6.6e-05  0.112792  0.100098  -0.00015  0.97026  0.0
H  H132  1  0.19988247  0.60053690  0.13550700  1  0.073653  -0.002774  0.106027  0.06756  -0.001995  1.01769  -0.002
H  H133  1  0.40648786  0.57467232  0.11558679  1  0.116276  -0.000733  0.12061  0.097911  -0.000467  1.027699  -0.001
H  H134  1  0.05681083  0.56355483  0.06122489  1  0.062406  -0.002636  0.094479  0.072743  -0.001876  1.035337  -0.001
H  H135  1  0.17680324  0.49349262  0.01072757  1  0.09026  -0.001382  0.107431  0.102322  -0.000932  1.017353  -0.001
H  H136  1  0.21618214  0.41004107  0.09625516  1  0.072319  3.3e-05  0.109052  0.097223  1.8e-05  0.989849  0.0
H  H137  1  0.07195651  0.47772300  0.14140193  1  0.051453  -1.8e-05  0.09843  0.080647  -1.9e-05  0.983392  0.0
H  H138  1  0.56581896  0.61758215  0.84897952  1  0.043046  0.003414  0.112329  0.06851  0.00161  0.95424  0.002
H  H139  1  0.47540025  0.54305359  0.85695433  1  0.054198  7.3e-05  0.118655  0.076837  -2.6e-05  0.977483  0.0
H  H140  1  0.30861398  0.67682458  0.92382260  1  0.019326  0.003462  0.100633  0.074737  0.00161  0.978112  0.002
H  H141  1  0.26419184  0.58894034  0.92999036  1  0.067964  0.000318  0.110745  0.093707  8.4e-05  0.971346  0.0
H  H142  1  0.14418756  0.66063729  0.02609815  1  0.052875  -0.001867  0.100304  0.080481  -0.001308  1.029439  -0.001
H  H143  1  0.32896862  0.66507665  0.03291580  1  0.053078  -3.8e-05  0.114269  0.103232  5e-06  0.976839  0.0
H  H144  1  0.69057301  0.55852550  0.15431384  1  0.068385  1.8e-05  0.097362  0.095742  -3e-06  1.026253  0.0
H  H145  1  0.83484438  0.58934651  0.22656827  1  0.10827  -8e-06  0.105594  0.123697  -1e-05  1.005922  0.0
H  H146  1  0.97753412  0.75144360  0.09570600  1  0.058421  -4e-06  0.100256  0.102107  -2.3e-05  1.063718  0.0
H  H147  1  0.82683340  0.72174787  0.02589919  1  0.089973  1.5e-05  0.100951  0.100355  1e-06  1.006187  0.0
H  H148  1  0.15737660  0.73426596  0.15352426  1  0.067237  7e-05  0.105504  0.076925  3.5e-05  0.995996  0.0
H  H149  1  0.97872681  0.79470521  0.18642823  1  0.078168  2.6e-05  0.108268  0.080679  2.1e-05  0.995576  0.0
H  H150  1  0.34136402  0.67276695  0.21649762  1  0.087716  -3e-06  0.108472  0.082662  -1.7e-05  0.985152  0.0
H  H151  1  0.20840002  0.63373465  0.27059649  1  0.066126  4.3e-05  0.105723  0.076696  7e-06  0.984399  0.0
H  H152  1  0.44403812  0.73144654  0.38411591  1  0.131084  2.1e-05  0.10445  0.121399  -6e-06  1.018136  0.0
H  H153  1  0.66230985  0.64991505  0.42513117  1  0.06781  0.000246  0.097733  0.095269  0.000149  1.044423  0.0
H  H154  1  0.69405508  0.48106250  0.30341458  1  0.109387  1.5e-05  0.103048  0.106522  -2.5e-05  0.996407  0.0
H  H155  1  0.47229680  0.56045803  0.26296888  1  0.051876  0.000222  0.102284  0.113455  0.000101  1.014427  0.0
C  C156  1  0.12390812  0.87962196  0.08041915  1  0.548677  -0.001117  0.011303  -0.014618  -0.001124  3.915222  -0.002
C  C157  1  0.33561069  0.85392427  0.00253658  1  0.271038  4.6e-05  -0.066607  -0.074993  -0.000139  3.815809  0.0
C  C158  1  0.31743859  0.93031014  0.02890046  1  0.253553  8.1e-05  -0.073337  -0.086009  4.3e-05  3.809955  -0.001
C  C159  1  0.09171249  0.83498149  0.98626209  1  0.590289  0.000167  0.027366  0.065281  -3e-06  3.927051  -0.002
C  C160  1  0.92103202  0.91356146  0.92191099  1  0.271314  0.000584  -0.067507  -0.041342  0.000214  3.907873  -0.001
C  C161  1  0.11683575  0.00817542  0.10597542  1  0.288925  6.5e-05  -0.067512  -0.088629  -0.000146  3.881846  -0.001
C  C162  1  0.02294532  0.06308917  0.61116480  1  0.604336  -0.001099  0.01339  -0.001529  -0.001124  3.906658  -0.002
C  C163  1  0.26392922  0.02068248  0.55451359  1  0.21971  8e-05  -0.073905  -0.088064  6.8e-05  3.816383  -0.001
C  C164  1  0.23766540  0.96659935  0.60951382  1  0.193129  5.9e-05  -0.06655  -0.070714  -0.000133  3.841581  0.0
C  C165  1  0.01524803  0.06218470  0.37146162  1  0.606239  0.000204  0.026796  0.065101  4.8e-05  3.940078  -0.002
C  C166  1  0.11729237  0.11886218  0.44414160  1  0.27618  0.000841  -0.069296  -0.041251  0.000413  3.915133  -0.001
C  C167  1  0.09568585  0.13050755  0.51213016  1  0.268543  0.000153  -0.069803  -0.090277  -7.2e-05  3.879732  -0.001
C  C168  1  0.68943087  0.11714163  0.53826248  1  1.547576  -0.000195  0.196003  0.550742  -1.5e-05  4.242195  0.0
C  C169  1  0.53889578  0.13426185  0.58214359  1  0.033928  0.006914  -0.036029  -0.077118  0.004264  4.022383  0.005
C  C170  1  0.51724021  0.09549476  0.63820414  1  -0.05519  -0.000301  -0.088655  -0.081165  -0.000348  4.016077  0.0
C  C171  1  0.37858366  0.11195758  0.67887652  1  0.007169  0.000305  -0.101382  -0.194875  0.00013  3.983466  0.0
C  C172  1  0.25720296  0.16739002  0.66336034  1  0.443645  -0.000438  0.084903  0.265627  -0.000424  4.048345  0.0
C  C173  1  0.27610827  0.20632912  0.60755013  1  -0.061779  0.000732  -0.11284  -0.234789  0.000392  4.028522  0.001
C  C174  1  0.41696786  0.18965523  0.56765853  1  -0.09687  0.000435  -0.086335  -0.077462  0.000106  4.022583  0.0
C  C175  1  0.00203978  0.24052142  0.69355645  1  0.390943  0.000196  -0.064267  -0.033661  0.000158  3.860954  0.0
C  C176  1  0.80950370  0.17941267  0.75800854  1  0.397185  0.000137  -0.060725  -0.026348  0.000105  3.856944  0.0
C  C177  1  0.58598849  0.14785263  0.82104116  1  0.428303  -0.000224  0.08495  0.261848  -0.000226  4.061728  0.0
C  C178  1  0.45757420  0.17355391  0.86648817  1  0.003214  0.000335  -0.10411  -0.195711  0.000162  3.994302  0.0
C  C179  1  0.35947386  0.12899529  0.88874269  1  -0.111775  -0.000195  -0.089487  -0.076361  -0.000268  4.020032  0.0
C  C180  1  0.38449795  0.05852087  0.86596058  1  0.010971  0.007121  -0.037279  -0.076656  0.004328  4.010685  0.005
C  C181  1  0.51138912  0.03415422  0.81951306  1  -0.074535  0.000266  -0.085883  -0.076085  -1.4e-05  4.010029  0.0
C  C182  1  0.61322693  0.07810905  0.79678102  1  -0.039397  0.00069  -0.113712  -0.233849  0.000365  4.024491  0.0
C  C183  1  0.27643098  0.01129082  0.89269008  1  1.555291  0.000107  0.193759  0.552086  0.000367  4.239188  0.0
C  C184  1  0.08365114  0.61952381  0.41920824  1  0.528311  -0.001096  0.011541  -0.010806  -0.00114  3.914621  -0.002
C  C185  1  0.18999965  0.64396620  0.49644026  1  0.27728  4.3e-05  -0.06605  -0.072309  -0.000143  3.818076  0.0
C  C186  1  0.27775556  0.56736508  0.46985623  1  0.216543  0.000147  -0.073253  -0.087368  8.1e-05  3.810234  -0.001
C  C187  1  0.90839677  0.66528872  0.51367696  1  0.601161  0.000171  0.027598  0.066675  6e-05  3.927859  -0.002
C  C188  1  0.75109706  0.58793730  0.57845527  1  0.300289  0.000523  -0.068276  -0.042169  0.000194  3.911038  -0.001
C  C189  1  0.23533785  0.49018828  0.39354277  1  0.288307  7.8e-05  -0.067279  -0.088641  -0.000171  3.884627  -0.001
C  C190  1  0.69834570  0.43968771  0.88759545  1  0.540097  -7e-06  0.01473  -0.008132  -0.000633  3.886419  0.001
C  C191  1  0.83399369  0.47857546  0.94742507  1  0.19318  -0.000226  -0.07451  -0.097954  -0.000898  3.788773  0.001
C  C192  1  0.81888017  0.53181891  0.89122445  1  0.233818  -0.000116  -0.065837  -0.071155  -6.8e-05  3.835873  0.0
C  C193  1  0.44482140  0.43429808  0.12549957  1  0.608116  0.000813  0.027978  0.054586  0.000613  3.933023  0.0
C  C194  1  0.67527236  0.37746561  0.05182697  1  0.269308  -0.000781  -0.066859  -0.048477  -0.0007  3.914832  -0.001
C  C195  1  0.73427456  0.36803260  0.98410369  1  0.272077  0.00066  -0.07024  -0.09644  -0.00016  3.886722  0.001
C  C196  1  0.33834386  0.38123809  0.95621759  1  1.578716  0.000202  0.187659  0.550557  0.000105  4.273946  0.0
C  C197  1  0.24993651  0.36159289  0.91420865  1  -0.011968  0.000711  -0.036435  -0.073954  0.000418  4.014242  0.001
C  C198  1  0.24667519  0.39897858  0.85757267  1  -0.039052  -5.3e-05  -0.088232  -0.077909  -6.4e-05  4.018796  0.0
C  C199  1  0.16605385  0.38258708  0.81778313  1  -0.066774  -2.9e-05  -0.104052  -0.197957  -3.5e-05  3.986604  0.0
C  C200  1  0.08467184  0.32832438  0.83477688  1  0.482517  -0.000216  0.082215  0.26054  -0.000208  4.053483  0.0
C  C201  1  0.08624472  0.29038701  0.89099520  1  -0.061564  -7.7e-05  -0.114169  -0.236144  -0.000112  4.035481  0.0
C  C202  1  0.16941553  0.30724625  0.93016613  1  -0.102493  -2.2e-05  -0.088478  -0.081585  -9.9e-05  4.025344  0.0
C  C203  1  0.93498822  0.25606667  0.80587001  1  0.393845  9.3e-05  -0.064838  -0.03615  4.9e-05  3.86165  0.0
C  C204  1  0.74561510  0.31719385  0.74132439  1  0.389772  7.1e-05  -0.061742  -0.028458  3.4e-05  3.857623  0.0
C  C205  1  0.55569115  0.34924066  0.67802610  1  0.400517  -0.00029  0.084772  0.261559  -0.00028  4.061183  0.0
C  C206  1  0.50057366  0.32362984  0.63304107  1  -0.112256  0.000342  -0.104644  -0.197628  0.000155  3.993531  0.0
C  C207  1  0.37917188  0.36875933  0.61077104  1  -0.040548  -0.000191  -0.08987  -0.07844  -0.000277  4.018233  0.0
C  C208  1  0.30791133  0.43967850  0.63311278  1  0.039231  0.007087  -0.035907  -0.073466  0.004322  4.01014  0.005
C  C209  1  0.36190125  0.46394558  0.67908840  1  -0.085513  0.000277  -0.086527  -0.077925  2e-06  4.008601  0.0
C  C210  1  0.48589838  0.41943816  0.70177987  1  0.003013  0.000682  -0.111688  -0.232209  0.000371  4.023495  0.0
C  C211  1  0.17823727  0.48752428  0.60653517  1  1.557775  9.5e-05  0.194606  0.550422  0.000343  4.239793  0.0
C  C212  1  0.87605729  0.12039040  0.91958939  1  0.549805  -0.001117  0.011387  -0.014372  -0.001123  3.915434  -0.002
C  C213  1  0.66436413  0.14608697  0.99747083  1  0.271534  4.6e-05  -0.066388  -0.074695  -0.000139  3.815519  0.0
C  C214  1  0.68253378  0.06969946  0.97110681  1  0.251866  8.3e-05  -0.0733  -0.086012  4.4e-05  3.809769  -0.001
C  C215  1  0.90825746  0.16502867  0.01374400  1  0.589786  0.000171  0.027273  0.064924  -2e-06  3.927224  -0.002
C  C216  1  0.07896307  0.08644256  0.07809347  1  0.26744  0.000579  -0.067588  -0.041378  0.000213  3.9077  -0.001
C  C217  1  0.88314767  0.99183635  0.89403038  1  0.288408  6.4e-05  -0.06758  -0.088849  -0.000145  3.881726  -0.001
C  C218  1  0.97705913  0.93691872  0.38883379  1  0.604423  -0.0011  0.013352  -0.00164  -0.001125  3.90665  -0.002
C  C219  1  0.73606983  0.97932325  0.44548335  1  0.219433  8.2e-05  -0.073907  -0.087872  6.9e-05  3.816277  -0.001
C  C220  1  0.76233582  0.03340415  0.39048396  1  0.193301  5.9e-05  -0.066518  -0.070601  -0.000133  3.841541  0.0
C  C221  1  0.98475104  0.93782544  0.62853416  1  0.606014  0.000203  0.026753  0.065108  4.8e-05  3.939966  -0.002
C  C222  1  0.88270936  0.88114463  0.55585638  1  0.276291  0.000841  -0.069299  -0.041441  0.000413  3.915304  -0.001
C  C223  1  0.90432256  0.86949704  0.48786654  1  0.268662  0.000153  -0.069828  -0.09005  -7.2e-05  3.879424  -0.001
C  C224  1  0.31055736  0.88285975  0.46173160  1  1.546694  -0.000196  0.1959  0.550596  -1.7e-05  4.241945  0.0
C  C225  1  0.46110318  0.86573783  0.41785063  1  0.034871  0.006914  -0.036076  -0.076975  0.004264  4.021891  0.005
C  C226  1  0.48277028  0.90450377  0.36179055  1  -0.055447  -0.000301  -0.088728  -0.081405  -0.000348  4.016069  0.0
C  C227  1  0.62142517  0.88803764  0.32111895  1  0.007871  0.000305  -0.10136  -0.194926  0.00013  3.983647  0.0
C  C228  1  0.74280199  0.83260350  0.33664131  1  0.44295  -0.000438  0.084839  0.265529  -0.000424  4.048699  0.0
C  C229  1  0.72389190  0.79366777  0.39244771  1  -0.061659  0.000732  -0.112883  -0.234778  0.000392  4.028693  0.001
C  C230  1  0.58302815  0.81034111  0.43234012  1  -0.096996  0.000435  -0.086267  -0.077535  0.000106  4.022428  0.0
C  C231  1  0.99795718  0.75947048  0.30644594  1  0.390813  0.000196  -0.06434  -0.033868  0.000158  3.861161  0.0
C  C232  1  0.19050393  0.82058195  0.24199416  1  0.397263  0.000137  -0.060683  -0.02638  0.000105  3.85689  0.0
C  C233  1  0.41400189  0.85214592  0.17895958  1  0.428239  -0.000225  0.084881  0.261578  -0.000227  4.061949  0.0
C  C234  1  0.54241594  0.82644299  0.13351224  1  0.003081  0.000335  -0.104086  -0.195392  0.000162  3.99391  0.0
C  C235  1  0.64051818  0.87100216  0.11125798  1  -0.111636  -0.000195  -0.089466  -0.076439  -0.000269  4.019564  0.0
C  C236  1  0.61548627  0.94147879  0.13404235  1  0.011189  0.007122  -0.037254  -0.076586  0.004329  4.010407  0.005
C  C237  1  0.48859089  0.96584048  0.18049229  1  -0.074732  0.000266  -0.085893  -0.076091  -1.4e-05  4.009978  0.0
C  C238  1  0.38676283  0.92188619  0.20322174  1  -0.039862  0.00069  -0.113616  -0.233764  0.000365  4.02457  0.0
C  C239  1  0.72355446  0.98871107  0.10730996  1  1.55542  0.000104  0.193855  0.552133  0.000366  4.238877  0.0
C  C240  1  0.91634114  0.38047368  0.58078797  1  0.527881  -0.001097  0.011568  -0.010852  -0.00114  3.91459  -0.002
C  C241  1  0.80999433  0.35603460  0.50355428  1  0.27756  4.3e-05  -0.066003  -0.072082  -0.000142  3.817847  0.0
C  C242  1  0.72223985  0.43263678  0.53014257  1  0.217045  0.000146  -0.073326  -0.087624  8.2e-05  3.810606  -0.001
C  C243  1  0.09159655  0.33471096  0.48631992  1  0.601132  0.000169  0.027538  0.066557  6e-05  3.928022  -0.002
C  C244  1  0.24890248  0.41206069  0.42154388  1  0.299932  0.000523  -0.06817  -0.041815  0.000193  3.910962  -0.001
C  C245  1  0.76466204  0.50980916  0.60645506  1  0.288379  7.8e-05  -0.067229  -0.08851  -0.000171  3.884397  -0.001
C  C246  1  0.30167685  0.56030575  0.11240613  1  0.539483  -7e-06  0.014528  -0.008375  -0.000633  3.886348  0.001
C  C247  1  0.16603116  0.52142464  0.05257326  1  0.191634  -0.000228  -0.074502  -0.097988  -0.0009  3.788704  0.001
C  C248  1  0.18114312  0.46817729  0.10877823  1  0.235018  -0.000116  -0.065742  -0.071251  -6.8e-05  3.835793  0.0
C  C249  1  0.55519444  0.56569820  0.87449838  1  0.608393  0.000813  0.027987  0.054444  0.000613  3.932978  0.0
C  C250  1  0.32474774  0.62253284  0.94817317  1  0.276216  -0.000783  -0.066951  -0.048816  -0.000699  3.915321  -0.001
C  C251  1  0.26574829  0.63196473  0.01589674  1  0.271523  0.000661  -0.070269  -0.096411  -0.000159  3.886416  0.001
C  C252  1  0.66166662  0.61876706  0.04377625  1  1.578455  0.000203  0.187553  0.550388  0.000105  4.274588  0.0
C  C253  1  0.75007567  0.63840454  0.08578553  1  -0.01194  0.000711  -0.036473  -0.073998  0.000418  4.013906  0.001
C  C254  1  0.75335873  0.60100827  0.14242264  1  -0.04012  -5.3e-05  -0.088127  -0.077731  -6.4e-05  4.018639  0.0
C  C255  1  0.83397951  0.61739486  0.18220765  1  -0.066161  -2.9e-05  -0.104081  -0.198031  -3.5e-05  3.986671  0.0
C  C256  1  0.91534854  0.67166468  0.16522470  1  0.482281  -0.000216  0.082412  0.260752  -0.000208  4.053464  0.0
C  C257  1  0.91375236  0.70961093  0.10900902  1  -0.060894  -7.8e-05  -0.114387  -0.236639  -0.000112  4.035919  0.0
C  C258  1  0.83058936  0.69275550  0.06984078  1  -0.102457  -2.2e-05  -0.08842  -0.081264  -9.9e-05  4.025343  0.0
C  C259  1  0.06501082  0.74392520  0.19413443  1  0.393824  9.3e-05  -0.064795  -0.035939  4.9e-05  3.862014  0.0
C  C260  1  0.25438788  0.68279692  0.25867848  1  0.390136  7.1e-05  -0.061536  -0.027921  3.4e-05  3.857295  0.0
C  C261  1  0.44430807  0.65075787  0.32197393  1  0.400466  -0.00029  0.084871  0.261501  -0.00028  4.061335  0.0
C  C262  1  0.49942157  0.67636757  0.36696201  1  -0.111487  0.000342  -0.10462  -0.197561  0.000155  3.993476  0.0
C  C263  1  0.62082342  0.63124031  0.38923012  1  -0.041723  -0.000192  -0.089963  -0.078566  -0.000277  4.018239  0.0
C  C264  1  0.69209345  0.56032223  0.36688578  1  0.039366  0.007089  -0.035899  -0.073493  0.004322  4.009898  0.005
C  C265  1  0.63811224  0.53605569  0.32090633  1  -0.085462  0.000277  -0.086517  -0.077837  2e-06  4.008346  0.0
C  C266  1  0.51411196  0.58056256  0.29821736  1  0.003294  0.000682  -0.111711  -0.232182  0.000371  4.023445  0.0
C  C267  1  0.82176972  0.51247644  0.39346322  1  1.557678  9.5e-05  0.194576  0.550449  0.000343  4.23972  0.0
C  C268  1  0.87330807  0.24824223  0.74975271  1  0.057931  2e-05  -0.018698  0.048978  5e-06  3.808495  0.0
C  C269  1  0.12668579  0.75174691  0.25025143  1  0.057773  2e-05  -0.018764  0.048879  5e-06  3.808431  0.0
N  N270  1  0.00075487  0.08329117  0.43479015  1  -1.073072  0.071958  -0.50213  -0.349716  0.043028  3.529693  0.062
N  N271  1  0.10737836  0.05934922  0.54667085  1  -0.974663  0.079284  -0.339349  -0.113884  0.047618  3.468262  0.071
N  N272  1  0.07214994  0.98912339  0.63606033  1  -1.025226  0.001495  -0.346882  -0.194244  0.000499  3.467677  0.002
N  N273  1  0.15383359  0.95269382  0.05875546  1  -0.98612  0.078592  -0.34107  -0.111186  0.047274  3.474939  0.07
N  N274  1  0.05069548  0.90559547  0.95178298  1  -1.088034  0.072045  -0.499425  -0.345019  0.043053  3.531677  0.062
N  N275  1  0.19060707  0.83281414  0.02867375  1  -1.019293  0.00147  -0.343836  -0.187542  0.0005  3.456299  0.002
N  N276  1  0.51306145  0.41728648  0.06065054  1  -1.073294  0.032369  -0.494755  -0.310635  0.018568  3.521489  0.024
N  N277  1  0.70691115  0.44175709  0.95296987  1  -0.940273  -0.042597  -0.334413  -0.082841  -0.039878  3.449408  -0.035
N  N278  1  0.70247308  0.51317276  0.86369260  1  -1.021865  0.000288  -0.346557  -0.186311  0.000128  3.467011  0.0
N  N279  1  0.16682597  0.54597666  0.44070645  1  -0.993923  0.078678  -0.341144  -0.112549  0.047344  3.473395  0.07
N  N280  1  0.90421093  0.59475477  0.54811173  1  -1.084497  0.072152  -0.500679  -0.349472  0.043049  3.53119  0.062
N  N281  1  0.04946592  0.66630186  0.47078430  1  -1.004456  0.001539  -0.342435  -0.189664  0.000539  3.464008  0.002
N  N282  1  0.99925282  0.91671510  0.56520429  1  -1.072353  0.07196  -0.502038  -0.349581  0.043031  3.529679  0.062
N  N283  1  0.89261976  0.94065815  0.45332784  1  -0.97466  0.079288  -0.339329  -0.113966  0.047621  3.468377  0.071
N  N284  1  0.92784829  0.01088400  0.36393613  1  -1.02559  0.001496  -0.346965  -0.194352  0.0005  3.467598  0.002
N  N285  1  0.84613893  0.04731741  0.94125391  1  -0.985644  0.078593  -0.341174  -0.111436  0.047273  3.475117  0.07
N  N286  1  0.94928555  0.09441025  0.04822206  1  -1.084581  0.072059  -0.49943  -0.345113  0.043057  3.531624  0.062
N  N287  1  0.80936035  0.16718995  0.97133425  1  -1.019754  0.00147  -0.343857  -0.187338  0.0005  3.456502  0.002
N  N288  1  0.48695497  0.58271311  0.93934627  1  -1.073618  0.032372  -0.494567  -0.310309  0.018569  3.521189  0.024
N  N289  1  0.29310546  0.55823972  0.04702887  1  -0.940041  -0.042602  -0.334311  -0.082612  -0.039882  3.449374  -0.035
N  N290  1  0.29754932  0.48682128  0.13630629  1  -1.021937  0.000288  -0.346472  -0.186194  0.000128  3.467061  0.0
N  N291  1  0.83316761  0.45402246  0.55929089  1  -0.993999  0.078674  -0.341201  -0.112589  0.047342  3.473317  0.07
N  N292  1  0.09578889  0.40524266  0.45188744  1  -1.084634  0.072148  -0.500568  -0.349299  0.043046  3.531247  0.062
N  N293  1  0.95052888  0.33369728  0.52921072  1  -1.004147  0.001539  -0.342319  -0.189459  0.000539  3.464051  0.002
O  O294  1  0.78346681  0.05618354  0.54963193  1  -1.170113  0.066779  -0.323157  -0.56217  0.039225  2.381855  0.062
O  O295  1  0.71263859  0.16209712  0.49429816  1  -1.18495  -0.000812  -0.339067  -0.560842  -0.001316  2.120591  -0.001
O  O296  1  0.12309461  0.17902111  0.70503049  1  -1.08266  8.3e-05  -0.180735  -0.200639  -3.9e-05  2.559905  0.0
O  O297  1  0.67800175  0.19539781  0.80586849  1  -1.088556  6.4e-05  -0.179657  -0.201773  -6.6e-05  2.614562  0.0
O  O298  1  0.29190206  0.94997882  0.86981219  1  -1.180066  -0.000949  -0.346588  -0.567188  -0.001433  2.102155  -0.001
O  O299  1  0.17399901  0.03901526  0.93893768  1  -1.173573  0.066601  -0.325703  -0.567654  0.039153  2.386657  0.061
O  O300  1  0.38271223  0.44047966  0.94160696  1  -1.189373  0.012334  -0.332407  -0.588485  0.007194  2.304306  0.011
O  O301  1  0.36150014  0.33938406  0.00246858  1  -1.198606  -0.000735  -0.351178  -0.580551  -0.000802  2.104477  -0.001
O  O302  1  0.00421962  0.31703912  0.79383550  1  -1.080112  -0.00016  -0.179913  -0.198222  -0.000134  2.56467  0.0
O  O303  1  0.68125769  0.30121395  0.69347749  1  -1.0971  3.8e-05  -0.178989  -0.200189  -8.3e-05  2.611114  0.0
O  O304  1  0.10675216  0.54919116  0.62930003  1  -1.187731  -0.000961  -0.346013  -0.565912  -0.001434  2.104522  -0.001
O  O305  1  0.15187534  0.45998538  0.56063775  1  -1.174853  0.066559  -0.32626  -0.566998  0.039105  2.384763  0.061
O  O306  1  0.21653872  0.94382435  0.45036702  1  -1.170254  0.066779  -0.323076  -0.561979  0.039225  2.381878  0.062
O  O307  1  0.28733755  0.83789004  0.50568756  1  -1.184687  -0.000813  -0.338989  -0.560808  -0.001317  2.120367  -0.001
O  O308  1  0.87691143  0.82097020  0.29497166  1  -1.082247  8.3e-05  -0.180701  -0.200575  -3.9e-05  2.560175  0.0
O  O309  1  0.32199782  0.80459576  0.19413093  1  -1.08869  6.4e-05  -0.179645  -0.201694  -6.6e-05  2.6148  0.0
O  O310  1  0.70807130  0.05002693  0.13019257  1  -1.180035  -0.00095  -0.346616  -0.567215  -0.001434  2.101761  -0.001
O  O311  1  0.82598454  0.96098829  0.06106152  1  -1.173393  0.066601  -0.325734  -0.567716  0.039155  2.386807  0.061
O  O312  1  0.61728765  0.55952942  0.05838394  1  -1.188989  0.012332  -0.332281  -0.588328  0.007194  2.304657  0.011
O  O313  1  0.63853859  0.66061992  0.99752129  1  -1.198922  -0.000735  -0.35118  -0.580556  -0.000802  2.104741  -0.001
O  O314  1  0.99579418  0.68294996  0.20616571  1  -1.080541  -0.000159  -0.179914  -0.198169  -0.000134  2.565213  0.0
O  O315  1  0.31873863  0.69877904  0.30652621  1  -1.097214  3.7e-05  -0.179162  -0.200351  -8.3e-05  2.611233  0.0
O  O316  1  0.89326410  0.45081342  0.37069382  1  -1.187756  -0.000961  -0.345931  -0.56586  -0.001435  2.104471  -0.001
O  O317  1  0.84812236  0.54001368  0.43936503  1  -1.174917  0.06657  -0.326262  -0.567035  0.039111  2.384899  0.061
