# generated using pymatgen
data_CuH11C18Br2(NO2)3
_symmetry_space_group_name_H-M   'P 1'
_cell_length_a   9.83143236
_cell_length_b   10.13544335
_cell_length_c   11.00110896
_cell_angle_alpha   73.49805057
_cell_angle_beta   87.35033257
_cell_angle_gamma   77.46663647
_symmetry_Int_Tables_number   1
_chemical_formula_structural   CuH11C18Br2(NO2)3
_chemical_formula_sum   'Cu2 H22 C36 Br4 N6 O12'
_cell_volume   1025.87651137
_cell_formula_units_Z   2
loop_
 _symmetry_equiv_pos_site_id
 _symmetry_equiv_pos_as_xyz
  1  'x, y, z'
loop_
 _atom_site_type_symbol
 _atom_site_label
 _atom_site_symmetry_multiplicity
 _atom_site_fract_x
 _atom_site_fract_y
 _atom_site_fract_z
 _atom_site_occupancy
 _atom_site_pbe_cm5_charge
 _atom_site_pbe_ddec_charge
 _atom_site_pbe_ddec_spin_density
 _atom_site_pbe_ddec_sum_bond_order
 _atom_site_pbe_magmom
Cu  Cu0  1  0.85419825  0.36744189  0.56580162  1  0.743435  0.800178  0.760282  2.215024  0.573
Cu  Cu1  1  0.14578394  0.63255326  0.43420373  1  0.743561  0.800076  -0.760322  2.215487  -0.573
H  H2  1  0.85763619  0.92698347  0.52432446  1  0.115019  0.136582  0.000392  0.981436  0.0
H  H3  1  0.14238001  0.07303284  0.47566080  1  0.115044  0.136574  -0.000393  0.981415  0.0
H  H4  1  0.55112068  0.67578960  0.66276069  1  0.11548  0.132179  0.000246  1.005037  0.0
H  H5  1  0.44892499  0.32418769  0.33720899  1  0.115549  0.132286  -0.000246  1.004997  0.0
H  H6  1  0.47760358  0.10450643  0.68429562  1  0.114651  0.12763  -6e-06  1.012349  0.0
H  H7  1  0.52239874  0.89545608  0.31570838  1  0.114649  0.127695  6e-06  1.012172  0.0
H  H8  1  0.71968703  0.36873827  0.80676953  1  0.119321  0.09556  0.000903  1.003348  0.002
H  H9  1  0.28029957  0.63125295  0.19328302  1  0.119415  0.095783  -0.000901  1.003318  -0.002
H  H10  1  0.78115363  0.27405221  0.03959947  1  0.103761  0.124679  0.000432  1.040748  0.0
H  H11  1  0.21887159  0.72594864  0.96044492  1  0.103786  0.124672  -0.000431  1.040697  0.0
H  H12  1  0.97255716  0.35377985  0.31682868  1  0.11787  0.090022  0.001111  1.025314  0.002
H  H13  1  0.02740734  0.64621321  0.68319539  1  0.117815  0.089972  -0.00111  1.025347  -0.002
H  H14  1  0.19623107  0.10114356  0.93210786  1  0.108891  0.132818  0.000541  0.999386  0.001
H  H15  1  0.80377538  0.89886110  0.06787919  1  0.108932  0.132901  -0.000541  0.999358  -0.001
H  H16  1  0.60079073  0.55912478  0.43603657  1  0.126004  0.107707  0.000818  0.997479  0.001
H  H17  1  0.39915515  0.44090598  0.56394743  1  0.126017  0.10771  -0.000817  0.99737  -0.001
H  H18  1  0.11398350  0.19583731  0.70587273  1  0.121111  0.109649  0.001085  1.022936  0.002
H  H19  1  0.88598493  0.80415985  0.29412550  1  0.121166  0.109782  -0.001083  1.022823  -0.002
H  H20  1  0.90314935  0.46278700  0.08899338  1  0.105535  0.121857  0.000528  1.008689  0.001
H  H21  1  0.09684784  0.53721459  0.91101768  1  0.105577  0.121979  -0.000527  1.008828  -0.001
H  H22  1  0.51295660  0.67245698  0.21701007  1  0.112827  0.139051  0.000425  1.006424  0.0
H  H23  1  0.48702537  0.32758548  0.78296080  1  0.112846  0.139157  -0.000425  1.006575  0.0
C  C24  1  0.80703857  0.66513508  0.55693085  1  0.205378  0.571824  0.000271  4.228023  -0.003
C  C25  1  0.19302165  0.33487505  0.44304840  1  0.20526  0.571923  -0.000271  4.228587  0.003
C  C26  1  0.50256969  0.88892350  0.67834340  1  0.067772  0.048624  0.000488  3.981982  0.001
C  C27  1  0.49744586  0.11105270  0.32164445  1  0.067587  0.048447  -0.000488  3.981842  -0.001
C  C28  1  0.71374735  0.78904098  0.58970685  1  -0.014617  -0.019944  0.006784  3.944594  0.007
C  C29  1  0.28626646  0.21095318  0.41028355  1  -0.014524  -0.019839  -0.006778  3.944742  -0.007
C  C30  1  0.75684211  0.91692764  0.56751831  1  -0.066249  -0.08909  0.000821  3.87394  0.001
C  C31  1  0.24317961  0.08307708  0.43246795  1  -0.066293  -0.089069  -0.00082  3.874287  -0.001
C  C32  1  0.67215105  0.03037391  0.60222309  1  -0.017055  -0.018089  0.006701  3.957852  0.007
C  C33  1  0.32785208  0.96961813  0.39777478  1  -0.016864  -0.017918  -0.006687  3.959141  -0.007
C  C34  1  0.58533292  0.77446964  0.64543913  1  -0.073263  -0.122937  -0.000364  3.926027  -0.001
C  C35  1  0.41468962  0.22552134  0.35454259  1  -0.073255  -0.12299  0.000363  3.926049  0.001
C  C36  1  0.54335834  0.01652562  0.65749524  1  -0.069676  -0.126109  0.000134  3.937125  0.0
C  C37  1  0.45662703  0.98343998  0.34250878  1  -0.069596  -0.126081  -0.000131  3.937001  0.0
C  C38  1  0.71641077  0.16755064  0.58742759  1  0.184163  0.543683  -0.000303  4.251276  -0.004
C  C39  1  0.28358972  0.83248253  0.41256575  1  0.184018  0.543624  0.000305  4.251097  0.004
C  C40  1  0.99477872  0.18365043  0.00225976  1  -0.004077  0.134771  -0.002368  3.985692  -0.002
C  C41  1  0.00524556  0.81633978  0.99777208  1  -0.004175  0.134498  0.002369  3.985883  0.002
C  C42  1  0.82337365  0.30776467  0.83962665  1  0.04751  0.10628  -0.000549  3.927496  -0.001
C  C43  1  0.17661784  0.69223595  0.16040405  1  0.047393  0.105873  0.000551  3.927293  0.001
C  C44  1  0.85813897  0.25695158  0.96816991  1  -0.097287  -0.193615  0.003675  3.973319  0.004
C  C45  1  0.14187619  0.74305226  0.03185146  1  -0.097291  -0.193312  -0.003673  3.973482  -0.004
C  C46  1  0.87306905  0.42677607  0.28977704  1  0.055033  0.122584  0.000172  3.914544  -0.001
C  C47  1  0.12689980  0.57322963  0.71023797  1  0.054998  0.122568  -0.000174  3.914122  0.001
C  C48  1  0.08987931  0.16012277  0.90891908  1  -0.095863  -0.192679  0.004161  3.989273  0.005
C  C49  1  0.91011324  0.83988084  0.09107986  1  -0.095834  -0.19251  -0.004158  3.989329  -0.005
C  C50  1  0.66493977  0.53974239  0.35702359  1  0.057901  0.126109  -0.000704  3.878919  -0.001
C  C51  1  0.33502834  0.46028007  0.64296879  1  0.057754  0.126052  0.000706  3.878499  0.001
C  C52  1  0.04504897  0.21228359  0.78289579  1  0.048324  0.111046  0.000455  3.914155  0.0
C  C53  1  0.95492515  0.78771572  0.21710522  1  0.048377  0.110881  -0.000458  3.913581  0.0
C  C54  1  0.83358340  0.48718002  0.16308522  1  -0.091009  -0.180499  0.003936  3.971118  0.004
C  C55  1  0.16639530  0.51283206  0.83692941  1  -0.091076  -0.180689  -0.003936  3.971188  -0.004
C  C56  1  0.61593139  0.60344290  0.23297984  1  -0.086513  -0.175849  0.003653  3.928595  0.004
C  C57  1  0.38405812  0.39658383  0.76700305  1  -0.086457  -0.175833  -0.003651  3.928708  -0.004
C  C58  1  0.70258619  0.57604233  0.13521671  1  -0.000214  0.145597  -0.002413  3.976627  -0.002
C  C59  1  0.29740073  0.42398228  0.86476779  1  -0.000191  0.145555  0.002414  3.976443  0.002
Br  Br60  1  0.05220763  0.11497745  0.17459885  1  0.080116  -0.006087  -0.000118  1.598874  0.0
Br  Br61  1  0.94782531  0.88501370  0.82540503  1  0.080109  -0.006075  0.000118  1.598626  0.0
Br  Br62  1  0.64350751  0.65788759  0.96357023  1  0.047649  -0.050721  -0.000278  1.507945  0.0
Br  Br63  1  0.35650210  0.34211715  0.03642754  1  0.047587  -0.050792  0.000278  1.507747  0.0
N  N64  1  0.79129252  0.45349679  0.38498231  1  -0.342391  -0.22505  0.056457  3.599877  0.071
N  N65  1  0.20866426  0.54652139  0.61500906  1  -0.342261  -0.224799  -0.056451  3.599278  -0.071
N  N66  1  0.91504230  0.28653902  0.74865885  1  -0.346334  -0.226511  0.057668  3.595164  0.072
N  N67  1  0.08494224  0.71344684  0.25138159  1  -0.346511  -0.226578  -0.057645  3.594592  -0.072
N  N68  1  0.37001249  0.87269762  0.74137899  1  0.054943  0.51413  0.000144  4.202621  0.0
N  N69  1  0.63000310  0.12726378  0.25860554  1  0.054732  0.513793  -0.000143  4.202519  0.0
O  O70  1  0.84327839  0.17144455  0.55419545  1  -0.325745  -0.528753  0.073181  2.240774  0.099
O  O71  1  0.15669746  0.82856229  0.44582890  1  -0.325899  -0.52898  -0.07322  2.240111  -0.099
O  O72  1  0.77168073  0.54664647  0.60691772  1  -0.324089  -0.557737  0.067616  2.407143  0.093
O  O73  1  0.22837655  0.45336371  0.39307257  1  -0.324008  -0.557735  -0.067602  2.407471  -0.093
O  O74  1  0.90912557  0.68532880  0.48698245  1  -0.31513  -0.580154  -3.6e-05  2.345984  0.0
O  O75  1  0.09091410  0.31470662  0.51300469  1  -0.3151  -0.580417  2.5e-05  2.345819  0.0
O  O76  1  0.62995885  0.26798623  0.61127910  1  -0.328686  -0.571299  4e-05  2.166286  0.001
O  O77  1  0.37001225  0.73201191  0.38870237  1  -0.328643  -0.571263  -3.4e-05  2.165926  -0.001
O  O78  1  0.30058255  0.97358263  0.77541075  1  -0.127834  -0.340135  8.9e-05  1.985212  0.0
O  O79  1  0.69943356  0.02636307  0.22459615  1  -0.12758  -0.339793  -8.9e-05  1.985095  0.0
O  O80  1  0.33530093  0.75790691  0.75971427  1  -0.126689  -0.337285  0.000153  1.99265  0.0
O  O81  1  0.66470874  0.24206703  0.24025175  1  -0.126589  -0.337143  -0.000153  1.992367  0.0
