# generated using pymatgen
data_ZnSiH16C24Br4(N2F3)2
_symmetry_space_group_name_H-M   'P 1'
_cell_length_a   7.83828630
_cell_length_b   14.04886701
_cell_length_c   14.04880304
_cell_angle_alpha   89.70926284
_cell_angle_beta   86.03123640
_cell_angle_gamma   86.03155618
_symmetry_Int_Tables_number   1
_chemical_formula_structural   ZnSiH16C24Br4(N2F3)2
_chemical_formula_sum   'Zn1 Si1 H16 C24 Br4 N4 F6'
_cell_volume   1539.63034023
_cell_formula_units_Z   1
loop_
 _symmetry_equiv_pos_site_id
 _symmetry_equiv_pos_as_xyz
  1  'x, y, z'
loop_
 _atom_site_type_symbol
 _atom_site_label
 _atom_site_symmetry_multiplicity
 _atom_site_fract_x
 _atom_site_fract_y
 _atom_site_fract_z
 _atom_site_occupancy
 _atom_site_pbe_bader_charge
 _atom_site_pbe_bader_spin_density
 _atom_site_pbe_cm5_charge
 _atom_site_pbe_ddec_charge
 _atom_site_pbe_ddec_spin_density
 _atom_site_pbe_ddec_sum_bond_order
 _atom_site_pbe_magmom
Zn  Zn0  1  0.49998830  0.50000088  0.50000163  1  1.358244  0  0.70734  0.733325  0  2.325091  0
Si  Si1  1  0.99999689  0.49999928  0.49999958  1  3.156615  0  0.261751  1.723922  0  3.93967  0
H  H2  1  0.25576604  0.50024444  0.33865152  1  0.174189  0  0.11841  0.103477  0  1.03605  0
H  H3  1  0.25976770  0.50017460  0.16774956  1  0.10653  0  0.088675  0.102375  0  1.101266  0
H  H4  1  0.81279589  0.49992137  0.16112294  1  0.079636  0  0.092887  0.104615  0  1.062378  0
H  H5  1  0.78634872  0.49982763  0.33399904  1  0.181251  0  0.119252  0.105284  0  1.027757  0
H  H6  1  0.18718518  0.50006469  0.83888095  1  0.079416  0  0.092841  0.104583  0  1.062279  0
H  H7  1  0.74020979  0.49982003  0.83225014  1  0.106456  0  0.088704  0.102439  0  1.101263  0
H  H8  1  0.74420530  0.49975875  0.66134767  1  0.174442  0  0.118399  0.103437  0  1.036011  0
H  H9  1  0.21362729  0.50016842  0.66600641  1  0.181176  0  0.119271  0.105389  0  1.027719  0
H  H10  1  0.25577306  0.33865016  0.50024905  1  0.174296  0  0.118444  0.103481  0  1.03603  0
H  H11  1  0.25977050  0.16774976  0.50017772  1  0.106564  0  0.088668  0.102347  0  1.101278  0
H  H12  1  0.81279915  0.16112253  0.49991742  1  0.079473  0  0.092897  0.104605  0  1.062342  0
H  H13  1  0.78635330  0.33399664  0.49982684  1  0.181215  0  0.119239  0.105269  0  1.027771  0
H  H14  1  0.18718503  0.83888065  0.50006776  1  0.0797  0  0.092846  0.10457  0  1.062305  0
H  H15  1  0.74021151  0.83224986  0.49981895  1  0.106471  0  0.088697  0.102429  0  1.101245  0
H  H16  1  0.74420388  0.66134874  0.49975706  1  0.174449  0  0.118385  0.1034  0  1.035974  0
H  H17  1  0.21362837  0.66600583  0.50016769  1  0.181213  0  0.119277  0.105384  0  1.027724  0
C  C18  1  0.37848730  0.50017173  0.29716615  1  0.484268  0  0.053025  0.108804  0  3.903692  0
C  C19  1  0.38229240  0.50014757  0.19810753  1  -0.064932  0  -0.091261  -0.165532  0  3.922098  0
C  C20  1  0.53853892  0.50006379  0.14148668  1  0.022398  0  0.000883  0.112138  0  3.955948  0
C  C21  1  0.68453561  0.49999681  0.19542905  1  0.050617  0  -0.092258  -0.171782  0  3.930465  0
C  C22  1  0.67138273  0.49996339  0.29453669  1  0.392401  0  0.053167  0.109471  0  3.899862  0
C  C23  1  0.55763400  0.49999771  0.03476804  1  -0.083401  0  -0.006461  0.008644  0  3.798166  0
C  C24  1  0.44234832  0.49999906  0.96523646  1  0.00554  0  -0.006446  0.008677  0  3.797991  0
C  C25  1  0.31544366  0.49999353  0.80457488  1  0.050153  0  -0.09212  -0.171642  0  3.930371  0
C  C26  1  0.46144129  0.49992941  0.85851649  1  0.022866  0  0.000744  0.112109  0  3.955871  0
C  C27  1  0.61768517  0.49984634  0.80189431  1  -0.064632  0  -0.091298  -0.165709  0  3.922209  0
C  C28  1  0.62148831  0.49982789  0.70283289  1  0.483371  0  0.053086  0.108932  0  3.903608  0
C  C29  1  0.32859201  0.50003266  0.70546596  1  0.392421  0  0.053035  0.109186  0  3.899896  0
C  C30  1  0.37849294  0.29716574  0.50017407  1  0.484305  0  0.053023  0.108816  0  3.903736  0
C  C31  1  0.38229507  0.19810556  0.50014807  1  -0.065049  0  -0.091264  -0.165521  0  3.92204  0
C  C32  1  0.53854272  0.14148500  0.50006161  1  0.022821  0  0.000834  0.112118  0  3.955791  0
C  C33  1  0.68453844  0.19542718  0.49999409  1  0.050404  0  -0.092236  -0.171753  0  3.930308  0
C  C34  1  0.67138893  0.29453540  0.49996255  1  0.392544  0  0.053135  0.109456  0  3.899645  0
C  C35  1  0.55763802  0.03476578  0.49999259  1  -0.083545  0  -0.006473  0.008627  0  3.798169  0
C  C36  1  0.44235151  0.96523526  0.49999952  1  0.005711  0  -0.00645  0.008712  0  3.798154  0
C  C37  1  0.31544215  0.80457387  0.49999408  1  0.050131  0  -0.092113  -0.171578  0  3.930397  0
C  C38  1  0.46144553  0.85851604  0.49992983  1  0.022577  0  0.000691  0.111994  0  3.955976  0
C  C39  1  0.61768294  0.80189549  0.49984660  1  -0.064608  0  -0.091256  -0.165675  0  3.922234  0
C  C40  1  0.62149152  0.70283459  0.49982749  1  0.483243  0  0.053133  0.109053  0  3.903409  0
C  C41  1  0.32859402  0.70546708  0.50003194  1  0.392404  0  0.05299  0.109117  0  3.900053  0
Br  Br42  1  0.79678528  0.49993679  0.99032077  1  -0.03857  0  0.079165  -0.01736  0  1.7284  0
Br  Br43  1  0.20319657  0.50007424  0.00968652  1  -0.039626  0  0.079153  -0.017382  0  1.728435  0
Br  Br44  1  0.79678552  0.99032075  0.49991916  1  -0.038599  0  0.079181  -0.01734  0  1.728441  0
Br  Br45  1  0.20320217  0.00968457  0.50008296  1  -0.039645  0  0.07917  -0.017382  0  1.728468  0
N  N46  1  0.51992958  0.50005495  0.34598480  1  -1.240534  0  -0.313933  -0.220517  0  3.512548  0
N  N47  1  0.48004448  0.49994681  0.65401571  1  -1.239692  0  -0.313869  -0.220405  0  3.512558  0
N  N48  1  0.51993418  0.34598431  0.50005544  1  -1.240671  0  -0.313894  -0.220466  0  3.512353  0
N  N49  1  0.48004252  0.65401674  0.49994569  1  -1.239632  0  -0.31386  -0.220409  0  3.512415  0
F  F50  1  0.22577320  0.50020648  0.50021296  1  -0.822758  0  -0.198834  -0.502925  0  1.315889  0
F  F51  1  0.77422268  0.49979455  0.49978817  1  -0.822778  0  -0.19883  -0.502916  0  1.315792  0
F  F52  1  0.00000650  0.58580095  0.41421053  1  -0.825884  0  -0.244483  -0.542462  0  1.078684  0
F  F53  1  0.99999266  0.41419437  0.58578622  1  -0.825912  0  -0.244461  -0.542429  0  1.07874  0
F  F54  1  0.02148414  0.41423744  0.41421964  1  -0.824455  0  -0.244314  -0.542525  0  1.07966  0
F  F55  1  0.97850954  0.58576074  0.58578015  1  -0.824587  0  -0.24429  -0.542474  0  1.079608  0
