# generated using pymatgen
data_InH5C4O7
_symmetry_space_group_name_H-M   'P 1'
_cell_length_a   7.11284785
_cell_length_b   9.24918059
_cell_length_c   10.54635074
_cell_angle_alpha   89.99935329
_cell_angle_beta   89.99990172
_cell_angle_gamma   93.65696971
_symmetry_Int_Tables_number   1
_chemical_formula_structural   InH5C4O7
_chemical_formula_sum   'In4 H20 C16 O28'
_cell_volume   692.41071093
_cell_formula_units_Z   4
loop_
 _symmetry_equiv_pos_site_id
 _symmetry_equiv_pos_as_xyz
  1  'x, y, z'
loop_
 _atom_site_type_symbol
 _atom_site_label
 _atom_site_symmetry_multiplicity
 _atom_site_fract_x
 _atom_site_fract_y
 _atom_site_fract_z
 _atom_site_occupancy
 _atom_site_hle17_bader_spin_density
 _atom_site_hle17_ddec_charge
 _atom_site_hle17_ddec_spin_density
 _atom_site_hle17_ddec_sum_bond_order
 _atom_site_hle17_magmom
 _atom_site_hse06_10hf_bader_spin_density
 _atom_site_hse06_10hf_ddec_charge
 _atom_site_hse06_10hf_ddec_spin_density
 _atom_site_hse06_10hf_ddec_sum_bond_order
 _atom_site_hse06_10hf_magmom
 _atom_site_hse06_bader_spin_density
 _atom_site_hse06_ddec_charge
 _atom_site_hse06_ddec_spin_density
 _atom_site_hse06_ddec_sum_bond_order
 _atom_site_hse06_magmom
 _atom_site_pbe_bader_spin_density
 _atom_site_pbe_cm5_charge
 _atom_site_pbe_ddec_charge
 _atom_site_pbe_ddec_spin_density
 _atom_site_pbe_ddec_sum_bond_order
 _atom_site_pbe_magmom
In  In0  1  0.32071243  0.24994168  0.20411658  1  0  1.668885  0  2.107685  0  0  1.485761  0  2.554247  0  0  1.557136  0  2.499098  0  0  0.75342  1.435888  0  2.592167  0
In  In1  1  0.67928691  0.75005938  0.70411341  1  0  1.668771  0  2.107797  0  0  1.485656  0  2.554367  0  0  1.557045  0  2.499227  0  0  0.753362  1.435779  0  2.592284  0
In  In2  1  0.51795458  0.73266452  0.01515584  1  0  1.708013  0  2.168479  0  0  1.522938  0  2.639869  0  0  1.59212  0  2.580552  0  0  0.765541  1.4738  0  2.680343  0
In  In3  1  0.48204050  0.26733036  0.51515480  1  0  1.707991  0  2.168453  0  0  1.522929  0  2.639848  0  0  1.592091  0  2.580534  0  0  0.765527  1.473787  0  2.680322  0
H  H4  1  0.16430424  0.32245177  0.93440020  1  0  0.440773  0  0.839872  0  0  0.409079  0  0.907584  0  0  0.42  0  0.891396  0  0  0.306807  0.401555  0  0.918614  0
H  H5  1  0.83569620  0.67755278  0.43439668  1  0  0.440816  0  0.839793  0  0  0.409134  0  0.907495  0  0  0.420053  0  0.89131  0  0  0.30683  0.401612  0  0.918521  0
H  H6  1  0.22952450  0.16691627  0.96001358  1  0  0.443433  0  0.807825  0  0  0.420531  0  0.869622  0  0  0.429868  0  0.858865  0  0  0.327195  0.413955  0  0.8771  0
H  H7  1  0.77048728  0.83309010  0.46001429  1  0  0.443557  0  0.807799  0  0  0.420674  0  0.869538  0  0  0.430012  0  0.858778  0  0  0.32725  0.414099  0  0.877018  0
H  H8  1  0.11587701  0.64703251  0.97949195  1  0  0.439726  0  0.851406  0  0  0.405902  0  0.918052  0  0  0.417547  0  0.901164  0  0  0.306161  0.39771  0  0.929909  0
H  H9  1  0.88412036  0.35297036  0.47949537  1  0  0.439685  0  0.851478  0  0  0.405879  0  0.918103  0  0  0.417523  0  0.901218  0  0  0.30612  0.397686  0  0.929961  0
H  H10  1  0.23395425  0.58407192  0.86671100  1  0  0.441237  0  0.818417  0  0  0.413073  0  0.888768  0  0  0.422607  0  0.877926  0  0  0.322078  0.406293  0  0.896483  0
H  H11  1  0.76603896  0.41592810  0.36671204  1  0  0.44132  0  0.81831  0  0  0.413126  0  0.888707  0  0  0.422664  0  0.877857  0  0  0.32208  0.406344  0  0.896426  0
H  H12  1  0.99505270  0.08256741  0.18406270  1  0  0.386554  0  0.90836  0  0  0.357556  0  0.982167  0  0  0.370783  0  0.968996  0  0  0.299044  0.348256  0  0.991336  0
H  H13  1  0.00494502  0.91743067  0.68406053  1  0  0.386491  0  0.908399  0  0  0.357492  0  0.982216  0  0  0.370721  0  0.969042  0  0  0.299012  0.348192  0  0.991383  0
H  H14  1  0.08880361  0.38985610  0.64100459  1  0  0.381261  0  0.894186  0  0  0.354058  0  0.968586  0  0  0.364755  0  0.956979  0  0  0.302632  0.346471  0  0.976808  0
H  H15  1  0.91119370  0.61015229  0.14100260  1  0  0.381252  0  0.8941  0  0  0.354046  0  0.968492  0  0  0.364737  0  0.956896  0  0  0.302651  0.346461  0  0.976713  0
H  H16  1  0.06805520  0.87325215  0.31298828  1  0  0.095458  0  0.913665  0  0  0.098865  0  0.979805  0  0  0.101694  0  0.977213  0  0  0.120013  0.097063  0  0.981645  0
H  H17  1  0.93194196  0.12674316  0.81299001  1  0  0.095478  0  0.913682  0  0  0.098872  0  0.979821  0  0  0.101702  0  0.977222  0  0  0.120014  0.09707  0  0.981662  0
H  H18  1  0.39172803  0.89616526  0.41051366  1  0  0.087943  0  0.894047  0  0  0.09491  0  0.955753  0  0  0.096853  0  0.954141  0  0  0.118881  0.092261  0  0.959565  0
H  H19  1  0.60827908  0.10383417  0.91051788  1  0  0.087778  0  0.894152  0  0  0.094893  0  0.955781  0  0  0.096838  0  0.954169  0  0  0.11883  0.092238  0  0.959598  0
H  H20  1  0.34183892  0.62150354  0.35027240  1  0  0.091024  0  0.895068  0  0  0.097464  0  0.959276  0  0  0.099591  0  0.957194  0  0  0.119268  0.094347  0  0.963711  0
H  H21  1  0.65815612  0.37850103  0.85027291  1  0  0.091048  0  0.895071  0  0  0.097475  0  0.95924  0  0  0.099601  0  0.957155  0  0  0.11927  0.09436  0  0.963673  0
H  H22  1  0.10312435  0.61669595  0.52209408  1  0  0.088432  0  0.94579  0  0  0.087432  0  1.021402  0  0  0.091324  0  1.017511  0  0  0.115792  0.084601  0  1.024491  0
H  H23  1  0.89687847  0.38330749  0.02209340  1  0  0.088372  0  0.945672  0  0  0.087409  0  1.021333  0  0  0.0913  0  1.017447  0  0  0.115759  0.084578  0  1.024422  0
C  C24  1  0.28667628  0.92628663  0.17465853  1  0  0.659806  0  3.828064  0  0  0.601643  0  4.136832  0  0  0.637537  0  4.127925  0  0  0.232967  0.577228  0  4.142291  0
C  C25  1  0.71332823  0.07370831  0.67466104  1  0  0.659993  0  3.827814  0  0  0.60179  0  4.136641  0  0  0.637708  0  4.127698  0  0  0.23305  0.577369  0  4.142106  0
C  C26  1  0.16910478  0.96382131  0.28961476  1  0  0.044733  0  3.644131  0  0  0.015055  0  3.901052  0  0  0.016495  0  3.907282  0  0  -0.004522  0.013458  0  3.897504  0
C  C27  1  0.83089949  0.03617430  0.78961561  1  0  0.044681  0  3.64412  0  0  0.015084  0  3.901079  0  0  0.01653  0  3.907304  0  0  -0.004568  0.013485  0  3.897531  0
C  C28  1  0.31141164  0.99380206  0.39836115  1  0  0.060639  0  3.712953  0  0  0.0355  0  3.965278  0  0  0.038403  0  3.974357  0  0  -0.002882  0.033225  0  3.96029  0
C  C29  1  0.68858952  0.00619320  0.89836246  1  0  0.060737  0  3.71264  0  0  0.03532  0  3.965319  0  0  0.038215  0  3.97441  0  0  -0.002847  0.033059  0  3.960324  0
C  C30  1  0.21028934  0.01195640  0.52629087  1  0  0.666448  0  3.799455  0  0  0.610801  0  4.111934  0  0  0.645539  0  4.102941  0  0  0.22877  0.587003  0  4.117028  0
C  C31  1  0.78971554  0.98803832  0.02629857  1  0  0.666729  0  3.799176  0  0  0.611084  0  4.11175  0  0  0.645813  0  4.102765  0  0  0.228882  0.587282  0  4.116851  0
C  C32  1  0.09793370  0.50060094  0.28616376  1  0  0.658578  0  3.79617  0  0  0.5997  0  4.110382  0  0  0.633934  0  4.101909  0  0  0.228461  0.57632  0  4.115074  0
C  C33  1  0.90206430  0.49940338  0.78616470  1  0  0.658641  0  3.796358  0  0  0.599734  0  4.110557  0  0  0.633971  0  4.102079  0  0  0.228529  0.576353  0  4.115248  0
C  C34  1  0.26765995  0.51677052  0.37611887  1  0  0.080642  0  3.712974  0  0  0.051966  0  3.968284  0  0  0.055156  0  3.977314  0  0  -0.000931  0.04972  0  3.963237  0
C  C35  1  0.73233490  0.48323263  0.87612111  1  0  0.080462  0  3.713202  0  0  0.051974  0  3.968327  0  0  0.055172  0  3.977334  0  0  -0.000938  0.049724  0  3.963286  0
C  C36  1  0.19763943  0.52816058  0.51358726  1  0  0.034715  0  3.674876  0  0  0.004194  0  3.934275  0  0  0.004438  0  3.940091  0  0  -0.009018  0.003474  0  3.931227  0
C  C37  1  0.80235920  0.47184298  0.01358770  1  0  0.034878  0  3.674612  0  0  0.004124  0  3.934375  0  0  0.004356  0  3.940202  0  0  -0.009012  0.003411  0  3.931314  0
C  C38  1  0.36850606  0.56479167  0.59648106  1  0  0.656341  0  3.811407  0  0  0.599266  0  4.120939  0  0  0.635994  0  4.11042  0  0  0.235763  0.574478  0  4.127434  0
C  C39  1  0.63149660  0.43519563  0.09648585  1  0  0.656516  0  3.811178  0  0  0.599406  0  4.120868  0  0  0.636118  0  4.110362  0  0  0.235841  0.574625  0  4.127358  0
O  O40  1  0.25987799  0.26903079  0.97944253  1  0  -0.816566  0  1.827012  0  0  -0.76742  0  2.018216  0  0  -0.787128  0  1.988692  0  0  -0.546592  -0.752878  0  2.038168  0
O  O41  1  0.74012810  0.73097532  0.47944239  1  0  -0.816731  0  1.826994  0  0  -0.767612  0  2.01814  0  0  -0.787319  0  1.988607  0  0  -0.546668  -0.753067  0  2.038084  0
O  O42  1  0.23631464  0.66030219  0.93086173  1  0  -0.822179  0  1.880782  0  0  -0.765686  0  2.085873  0  0  -0.786469  0  2.054624  0  0  -0.544049  -0.750917  0  2.107556  0
O  O43  1  0.76368404  0.33969807  0.43086731  1  0  -0.822228  0  1.880699  0  0  -0.765706  0  2.085764  0  0  -0.786497  0  2.054495  0  0  -0.544013  -0.750933  0  2.107447  0
O  O44  1  0.34950273  0.02882439  0.10361275  1  0  -0.625005  0  2.024497  0  0  -0.564055  0  2.266177  0  0  -0.593248  0  2.257205  0  0  -0.271343  -0.544032  0  2.271308  0
O  O45  1  0.65050213  0.97117256  0.60361596  1  0  -0.625102  0  2.024614  0  0  -0.564102  0  2.266248  0  0  -0.593288  0  2.257232  0  0  -0.271371  -0.544088  0  2.271407  0
O  O46  1  0.32263696  0.79377572  0.16222548  1  0  -0.613013  0  2.017189  0  0  -0.544184  0  2.264381  0  0  -0.574409  0  2.253846  0  0  -0.276422  -0.523857  0  2.271989  0
O  O47  1  0.67735101  0.20622265  0.66222577  1  0  -0.613106  0  2.016949  0  0  -0.544278  0  2.264181  0  0  -0.574513  0  2.253633  0  0  -0.276444  -0.523947  0  2.271792  0
O  O48  1  0.07744288  0.09455852  0.26720945  1  0  -0.56039  0  2.123145  0  0  -0.499347  0  2.351159  0  0  -0.520247  0  2.338959  0  0  -0.354717  -0.485033  0  2.359702  0
O  O49  1  0.92256597  0.90544062  0.76721016  1  0  -0.560304  0  2.123115  0  0  -0.499287  0  2.351121  0  0  -0.5202  0  2.338932  0  0  -0.354688  -0.484974  0  2.359663  0
O  O50  1  0.43362407  0.11354639  0.36419152  1  0  -0.717406  0  2.05028  0  0  -0.642319  0  2.306354  0  0  -0.67132  0  2.298996  0  0  -0.344345  -0.620279  0  2.310388  0
O  O51  1  0.56637336  0.88645366  0.86419186  1  0  -0.717425  0  2.050175  0  0  -0.642279  0  2.306353  0  0  -0.671282  0  2.298999  0  0  -0.344363  -0.620245  0  2.310385  0
O  O52  1  0.26338662  0.11817842  0.59822231  1  0  -0.62413  0  1.981393  0  0  -0.565085  0  2.225493  0  0  -0.593174  0  2.212818  0  0  -0.290324  -0.544684  0  2.233046  0
O  O53  1  0.73660870  0.88182187  0.09822732  1  0  -0.624267  0  1.981573  0  0  -0.565186  0  2.225674  0  0  -0.593271  0  2.213002  0  0  -0.290376  -0.544786  0  2.23323  0
O  O54  1  0.08319589  0.91633016  0.55491345  1  0  -0.589689  0  2.01057  0  0  -0.542451  0  2.246363  0  0  -0.56822  0  2.236316  0  0  -0.29827  -0.524446  0  2.252954  0
O  O55  1  0.91681133  0.08365984  0.05491475  1  0  -0.589789  0  2.010465  0  0  -0.542549  0  2.246274  0  0  -0.568313  0  2.236229  0  0  -0.298321  -0.524543  0  2.25287  0
O  O56  1  0.09814495  0.40333488  0.20059056  1  0  -0.614824  0  2.051914  0  0  -0.545853  0  2.300126  0  0  -0.576296  0  2.291165  0  0  -0.27818  -0.524782  0  2.305709  0
O  O57  1  0.90185064  0.59667165  0.70059244  1  0  -0.614802  0  2.052012  0  0  -0.545841  0  2.30026  0  0  -0.576289  0  2.2913  0  0  -0.27817  -0.52477  0  2.305841  0
O  O58  1  0.96515768  0.58570436  0.29713536  1  0  -0.637433  0  1.950963  0  0  -0.579683  0  2.175734  0  0  -0.604793  0  2.164085  0  0  -0.307828  -0.562001  0  2.182792  0
O  O59  1  0.03483737  0.41429873  0.79713338  1  0  -0.637478  0  1.951045  0  0  -0.579729  0  2.175822  0  0  -0.604847  0  2.16417  0  0  -0.307908  -0.562039  0  2.182871  0
O  O60  1  0.38705177  0.40293653  0.36139389  1  0  -0.751409  0  2.159108  0  0  -0.669805  0  2.421585  0  0  -0.700459  0  2.416669  0  0  -0.351651  -0.647103  0  2.424134  0
O  O61  1  0.61294032  0.59706681  0.86139514  1  0  -0.751377  0  2.159289  0  0  -0.66981  0  2.421691  0  0  -0.700459  0  2.416761  0  0  -0.351641  -0.647109  0  2.424243  0
O  O62  1  0.10851642  0.39057260  0.54666388  1  0  -0.559981  0  2.146687  0  0  -0.504596  0  2.363529  0  0  -0.522288  0  2.352841  0  0  -0.368747  -0.492069  0  2.370957  0
O  O63  1  0.89147900  0.60942728  0.04666287  1  0  -0.560002  0  2.146661  0  0  -0.504548  0  2.363604  0  0  -0.522252  0  2.352952  0  0  -0.368773  -0.492023  0  2.37103  0
O  O64  1  0.47673871  0.46567300  0.62714517  1  0  -0.629714  0  2.058326  0  0  -0.566707  0  2.312254  0  0  -0.595436  0  2.299965  0  0  -0.271871  -0.546391  0  2.319183  0
O  O65  1  0.52326081  0.53432799  0.12714816  1  0  -0.629832  0  2.058124  0  0  -0.566779  0  2.312066  0  0  -0.59553  0  2.299801  0  0  -0.271925  -0.546461  0  2.318989  0
O  O66  1  0.40007512  0.69693585  0.62757645  1  0  -0.572775  0  2.002948  0  0  -0.508411  0  2.245916  0  0  -0.538192  0  2.236358  0  0  -0.261033  -0.488536  0  2.252983  0
O  O67  1  0.59993320  0.30306946  0.12758637  1  0  -0.572877  0  2.003114  0  0  -0.508486  0  2.246156  0  0  -0.538203  0  2.236549  0  0  -0.261049  -0.488631  0  2.253234  0
