# generated using pymatgen
data_CdH6C10I2(NCl2)2
_symmetry_space_group_name_H-M   'P 1'
_cell_length_a   4.11130847
_cell_length_b   14.77051714
_cell_length_c   14.77046881
_cell_angle_alpha   88.88658876
_cell_angle_beta   82.00576460
_cell_angle_gamma   82.00573480
_symmetry_Int_Tables_number   1
_chemical_formula_structural   CdH6C10I2(NCl2)2
_chemical_formula_sum   'Cd2 H12 C20 I4 N4 Cl8'
_cell_volume   879.60530245
_cell_formula_units_Z   2
loop_
 _symmetry_equiv_pos_site_id
 _symmetry_equiv_pos_as_xyz
  1  'x, y, z'
loop_
 _atom_site_type_symbol
 _atom_site_label
 _atom_site_symmetry_multiplicity
 _atom_site_fract_x
 _atom_site_fract_y
 _atom_site_fract_z
 _atom_site_occupancy
 _atom_site_hle17_bader_spin_density
 _atom_site_hle17_ddec_charge
 _atom_site_hle17_ddec_spin_density
 _atom_site_hle17_ddec_sum_bond_order
 _atom_site_hle17_magmom
 _atom_site_hse06_10hf_bader_spin_density
 _atom_site_hse06_10hf_ddec_charge
 _atom_site_hse06_10hf_ddec_spin_density
 _atom_site_hse06_10hf_ddec_sum_bond_order
 _atom_site_hse06_10hf_magmom
 _atom_site_hse06_bader_spin_density
 _atom_site_hse06_ddec_charge
 _atom_site_hse06_ddec_spin_density
 _atom_site_hse06_ddec_sum_bond_order
 _atom_site_hse06_magmom
 _atom_site_pbe_bader_spin_density
 _atom_site_pbe_cm5_charge
 _atom_site_pbe_ddec_charge
 _atom_site_pbe_ddec_spin_density
 _atom_site_pbe_ddec_sum_bond_order
 _atom_site_pbe_magmom
Cd  Cd0  1  0.64126438  0.99997049  0.99996982  1  0  0.735217  0  2.117137  0  0  0.589349  0  2.540312  0  0  0.63781  0  2.5097  0  0  0.476751  0.556029  0  2.560445  0
Cd  Cd1  1  0.39183100  0.50004524  0.50004560  1  0  0.734461  0  2.119063  0  0  0.588424  0  2.542645  0  0  0.636886  0  2.512008  0  0  0.476285  0.555097  0  2.56279  0
H  H2  1  0.51071865  0.22142547  0.97958624  1  0  0.088428  0  0.971888  0  0  0.088488  0  1.051957  0  0  0.092326  0  1.047662  0  0  0.096399  0.085656  0  1.05513  0
H  H3  1  0.71231223  0.77850567  0.02032508  1  0  0.087814  0  0.971092  0  0  0.088045  0  1.051131  0  0  0.09183  0  1.046877  0  0  0.096338  0.085193  0  1.054318  0
H  H4  1  0.48261012  0.47969396  0.27858071  1  0  0.088548  0  0.971444  0  0  0.088162  0  1.051895  0  0  0.092003  0  1.047596  0  0  0.096424  0.085341  0  1.055071  0
H  H5  1  0.24047353  0.52042823  0.72153984  1  0  0.087693  0  0.972026  0  0  0.088176  0  1.05168  0  0  0.09202  0  1.047381  0  0  0.096309  0.085338  0  1.054863  0
H  H6  1  0.51070616  0.97958797  0.22142839  1  0  0.088488  0  0.971845  0  0  0.08855  0  1.051946  0  0  0.092387  0  1.047649  0  0  0.09642  0.085719  0  1.05512  0
H  H7  1  0.71231589  0.02032905  0.77849935  1  0  0.087728  0  0.971199  0  0  0.088028  0  1.051216  0  0  0.091829  0  1.046952  0  0  0.096346  0.085171  0  1.054409  0
H  H8  1  0.48260285  0.27858210  0.47969986  1  0  0.088479  0  0.971465  0  0  0.088115  0  1.051883  0  0  0.091958  0  1.047581  0  0  0.09638  0.085292  0  1.05506  0
H  H9  1  0.24047195  0.72154068  0.52043231  1  0  0.087711  0  0.972135  0  0  0.088182  0  1.051775  0  0  0.092026  0  1.047476  0  0  0.096331  0.085344  0  1.054957  0
H  H10  1  0.33397504  0.29588078  0.70394331  1  0  0.124605  0  0.982749  0  0  0.133475  0  1.049166  0  0  0.137609  0  1.044917  0  0  0.086078  0.130279  0  1.052569  0
H  H11  1  0.33396891  0.70395000  0.29588396  1  0  0.124688  0  0.982732  0  0  0.13354  0  1.049154  0  0  0.137676  0  1.044909  0  0  0.086119  0.130342  0  1.052562  0
H  H12  1  0.38016826  0.20409863  0.20409525  1  0  0.124803  0  0.98321  0  0  0.133657  0  1.049539  0  0  0.137766  0  1.045323  0  0  0.086367  0.130527  0  1.052871  0
H  H13  1  0.78835213  0.79603115  0.79604033  1  0  0.125642  0  0.981396  0  0  0.133561  0  1.048859  0  0  0.137776  0  1.044531  0  0  0.086393  0.13034  0  1.052303  0
C  C14  1  0.51448317  0.20462322  0.90786334  1  0  0.057774  0  3.696761  0  0  0.014721  0  3.952724  0  0  0.022037  0  3.968651  0  0  0.028972  0.009957  0  3.942127  0
C  C15  1  0.62739525  0.79526467  0.09206614  1  0  0.058569  0  3.693574  0  0  0.015512  0  3.950069  0  0  0.022877  0  3.965939  0  0  0.028566  0.010769  0  3.9395  0
C  C16  1  0.47005859  0.40793359  0.29532593  1  0  0.057037  0  3.696242  0  0  0.014031  0  3.953065  0  0  0.02132  0  3.968968  0  0  0.028012  0.009242  0  3.942496  0
C  C17  1  0.17278444  0.59219140  0.70478337  1  0  0.059825  0  3.695276  0  0  0.016207  0  3.951696  0  0  0.023539  0  3.967538  0  0  0.029008  0.011433  0  3.941109  0
C  C18  1  0.51446773  0.90787068  0.20462385  1  0  0.057822  0  3.696703  0  0  0.014753  0  3.952642  0  0  0.022066  0  3.968557  0  0  0.028955  0.009994  0  3.942052  0
C  C19  1  0.62742770  0.09206411  0.79525640  1  0  0.058783  0  3.693294  0  0  0.015679  0  3.949709  0  0  0.023033  0  3.965572  0  0  0.028641  0.010941  0  3.939144  0
C  C20  1  0.47005007  0.29532782  0.40793507  1  0  0.057119  0  3.696142  0  0  0.014138  0  3.952924  0  0  0.02143  0  3.968824  0  0  0.028077  0.009354  0  3.94235  0
C  C21  1  0.17280707  0.70478401  0.59219201  1  0  0.05965  0  3.695322  0  0  0.016052  0  3.951799  0  0  0.023381  0  3.967643  0  0  0.028928  0.011278  0  3.941213  0
C  C22  1  0.41460179  0.27061869  0.84467426  1  0  0.109574  0  3.778866  0  0  0.128157  0  4.04267  0  0  0.126869  0  4.064704  0  0  0.015755  0.128435  0  4.028086  0
C  C23  1  0.53032203  0.72922520  0.15520016  1  0  0.11003  0  3.776974  0  0  0.127896  0  4.04195  0  0  0.126719  0  4.063812  0  0  0.016217  0.12814  0  4.027408  0
C  C24  1  0.43610441  0.34478596  0.22931926  1  0  0.110517  0  3.778397  0  0  0.128996  0  4.042112  0  0  0.12777  0  4.064051  0  0  0.015961  0.129277  0  4.027537  0
C  C25  1  0.01008555  0.65535117  0.77082045  1  0  0.108072  0  3.780265  0  0  0.127028  0  4.043776  0  0  0.125747  0  4.065825  0  0  0.015853  0.127345  0  4.029115  0
C  C26  1  0.41457905  0.84467776  0.27062437  1  0  0.109456  0  3.779029  0  0  0.128006  0  4.042884  0  0  0.126738  0  4.064893  0  0  0.015701  0.128258  0  4.028334  0
C  C27  1  0.53034151  0.15519911  0.72921518  1  0  0.109926  0  3.776848  0  0  0.127775  0  4.041895  0  0  0.126591  0  4.06376  0  0  0.016164  0.128016  0  4.027358  0
C  C28  1  0.43609809  0.22932252  0.34478149  1  0  0.110654  0  3.778035  0  0  0.129091  0  4.041804  0  0  0.127866  0  4.06374  0  0  0.01608  0.129366  0  4.027239  0
C  C29  1  0.01009325  0.77081944  0.65535070  1  0  0.108282  0  3.780174  0  0  0.127168  0  4.043789  0  0  0.125889  0  4.06584  0  0  0.015908  0.127484  0  4.029129  0
C  C30  1  0.41789708  0.24596361  0.75387031  1  0  -0.126033  0  3.68773  0  0  -0.163759  0  3.932997  0  0  -0.162209  0  3.95031  0  0  -0.087118  -0.164388  0  3.921491  0
C  C31  1  0.41786515  0.75387768  0.24597132  1  0  -0.126104  0  3.687862  0  0  -0.163789  0  3.933093  0  0  -0.162245  0  3.95039  0  0  -0.087111  -0.16441  0  3.921593  0
C  C32  1  0.41466734  0.25399353  0.25399713  1  0  -0.12738  0  3.68954  0  0  -0.164969  0  3.934344  0  0  -0.163394  0  3.951626  0  0  -0.087658  -0.165672  0  3.922875  0
C  C33  1  0.92246333  0.74615208  0.74615966  1  0  -0.126053  0  3.688464  0  0  -0.163353  0  3.93354  0  0  -0.161854  0  3.950856  0  0  -0.087636  -0.164011  0  3.922055  0
I  I34  1  0.23174578  0.89697765  0.89697676  1  0  -0.436454  0  1.243968  0  0  -0.38759  0  1.588034  0  0  -0.409713  0  1.567735  0  0  -0.195881  -0.371557  0  1.601881  0
I  I35  1  0.02523047  0.10300506  0.10300202  1  0  -0.436854  0  1.242812  0  0  -0.388296  0  1.586925  0  0  -0.410334  0  1.5666  0  0  -0.196149  -0.372329  0  1.600813  0
I  I36  1  0.87931191  0.39700331  0.60294259  1  0  -0.436334  0  1.244726  0  0  -0.387712  0  1.588907  0  0  -0.409767  0  1.56858  0  0  -0.195977  -0.371709  0  1.602791  0
I  I37  1  0.87931390  0.60294185  0.39700265  1  0  -0.436364  0  1.244729  0  0  -0.387728  0  1.588894  0  0  -0.409784  0  1.568572  0  0  -0.195996  -0.371725  0  1.602777  0
N  N38  1  0.61383222  0.11738047  0.88251330  1  0  -0.276722  0  3.305152  0  0  -0.197514  0  3.560596  0  0  -0.218263  0  3.584885  0  0  -0.325474  -0.183477  0  3.543739  0
N  N39  1  0.61381397  0.88251741  0.11738100  1  0  -0.276702  0  3.305348  0  0  -0.197479  0  3.560771  0  0  -0.218234  0  3.58508  0  0  -0.325432  -0.18344  0  3.543912  0
N  N40  1  0.48190301  0.38258966  0.38259064  1  0  -0.27533  0  3.306634  0  0  -0.195537  0  3.560763  0  0  -0.216305  0  3.585147  0  0  -0.323777  -0.181481  0  3.543868  0
N  N41  1  0.24632321  0.61750708  0.61750877  1  0  -0.277193  0  3.304198  0  0  -0.197889  0  3.559967  0  0  -0.218651  0  3.58431  0  0  -0.325145  -0.18388  0  3.543164  0
Cl  Cl42  1  0.28069712  0.38211109  0.87906383  1  0  -0.082505  0  1.362286  0  0  -0.07103  0  1.585136  0  0  -0.074471  0  1.580397  0  0  0.000955  -0.068477  0  1.588564  0
Cl  Cl43  1  0.54315418  0.61769552  0.12073527  1  0  -0.082604  0  1.362135  0  0  -0.070831  0  1.585279  0  0  -0.074312  0  1.58049  0  0  0.000912  -0.068266  0  1.588718  0
Cl  Cl44  1  0.41325693  0.37926320  0.11784718  1  0  -0.082575  0  1.362433  0  0  -0.070954  0  1.585095  0  0  -0.074418  0  1.580353  0  0  0.001012  -0.06839  0  1.588503  0
Cl  Cl45  1  0.91106172  0.62091649  0.88234500  1  0  -0.08218  0  1.362936  0  0  -0.070819  0  1.585755  0  0  -0.074267  0  1.581006  0  0  0.000993  -0.068271  0  1.589162  0
Cl  Cl46  1  0.28068578  0.87906670  0.38211501  1  0  -0.082449  0  1.362494  0  0  -0.070962  0  1.585344  0  0  -0.07441  0  1.580598  0  0  0.000981  -0.068401  0  1.58878  0
Cl  Cl47  1  0.54317362  0.12073255  0.61768751  1  0  -0.082589  0  1.362205  0  0  -0.070815  0  1.585375  0  0  -0.074295  0  1.58059  0  0  0.000923  -0.068248  0  1.588816  0
Cl  Cl48  1  0.41324603  0.11783886  0.37926475  1  0  -0.08278  0  1.361937  0  0  -0.071148  0  1.584614  0  0  -0.074613  0  1.579872  0  0  0.000836  -0.068585  0  1.588029  0
Cl  Cl49  1  0.91105984  0.88233465  0.62092606  1  0  -0.082188  0  1.36329  0  0  -0.070792  0  1.586149  0  0  -0.074239  0  1.581397  0  0  0.001004  -0.068243  0  1.589554  0
