# generated using pymatgen
data_CuH7C10N3O4
_symmetry_space_group_name_H-M   'P 1'
_cell_length_a   7.45537148
_cell_length_b   7.45488352
_cell_length_c   10.10718962
_cell_angle_alpha   90.89300025
_cell_angle_beta   90.89560335
_cell_angle_gamma   116.42084200
_symmetry_Int_Tables_number   1
_chemical_formula_structural   CuH7C10N3O4
_chemical_formula_sum   'Cu2 H14 C20 N6 O8'
_cell_volume   502.85142773
_cell_formula_units_Z   2
loop_
 _symmetry_equiv_pos_site_id
 _symmetry_equiv_pos_as_xyz
  1  'x, y, z'
loop_
 _atom_site_type_symbol
 _atom_site_label
 _atom_site_symmetry_multiplicity
 _atom_site_fract_x
 _atom_site_fract_y
 _atom_site_fract_z
 _atom_site_occupancy
 _atom_site_hle17_ddec_charge
 _atom_site_hle17_ddec_spin_density
 _atom_site_hle17_ddec_sum_bond_order
 _atom_site_hle17_magmom
 _atom_site_hse06_10hf_bader_charge
 _atom_site_hse06_10hf_bader_spin_density
 _atom_site_hse06_10hf_ddec_charge
 _atom_site_hse06_10hf_ddec_spin_density
 _atom_site_hse06_10hf_ddec_sum_bond_order
 _atom_site_hse06_10hf_magmom
 _atom_site_hse06_ddec_charge
 _atom_site_hse06_ddec_spin_density
 _atom_site_hse06_ddec_sum_bond_order
 _atom_site_hse06_magmom
 _atom_site_pbe_cm5_charge
 _atom_site_pbe_ddec_charge
 _atom_site_pbe_ddec_spin_density
 _atom_site_pbe_ddec_sum_bond_order
 _atom_site_pbe_magmom
Cu  Cu0  1  0.31578235  0.49760294  0.81899639  1  0.835527  -0.711946  1.812682  -0.497  1.105008  -0.613579  0.808901  -0.792594  2.203925  -0.609  0.904547  -0.869867  2.131912  -0.697  0.754502  0.748406  -0.735878  2.256372  -0.551
Cu  Cu1  1  0.49760542  0.31578411  0.31899812  1  0.835491  0.711931  1.812501  0.497  1.104698  0.613569  0.808804  0.79259  2.203864  0.609  0.904489  0.869874  2.131819  0.697  0.754434  0.748221  0.735861  2.256379  0.551
H  H2  1  0.78591677  0.06859479  0.82941019  1  0.108348  -0.000102  0.93149  0.0  0.089652  0.000119  0.121361  6.4e-05  0.983545  0.0  0.124243  6.4e-05  0.981662  0.0  0.115694  0.119121  5.8e-05  0.98534  0.0
H  H3  1  0.06858886  0.78591129  0.32941182  1  0.10839  0.000103  0.931448  0.0  0.089663  -0.000119  0.121387  -6.4e-05  0.983516  0.0  0.124267  -6.4e-05  0.981641  0.0  0.115728  0.119148  -5.8e-05  0.985309  0.0
H  H4  1  0.97423176  0.51555328  0.63580542  1  0.094456  -1.7e-05  0.949319  0.0  0.175145  -0.000283  0.104244  -3.8e-05  1.013097  0.0  0.107242  -5e-05  1.009196  0.0  0.134814  0.102127  -2.7e-05  1.015634  0.0
H  H5  1  0.51558821  0.97425631  0.13581636  1  0.094379  1.7e-05  0.949494  0.0  0.175228  0.000282  0.1042  3.7e-05  1.013216  0.0  0.107185  5e-05  1.009322  0.0  0.134908  0.102075  2.7e-05  1.015753  0.0
H  H6  1  0.81638912  0.74650854  0.69413711  1  0.306313  -0.00032  0.93438  -0.001  0.572102  -0.000276  0.288243  -0.000176  0.991785  0.0  0.298478  -0.00016  0.983499  0.0  0.305077  0.281017  -0.000169  0.997676  0.0
H  H7  1  0.74654082  0.81640323  0.19414283  1  0.306238  0.00032  0.934473  0.001  0.571991  0.000278  0.288191  0.000177  0.991852  0.0  0.298424  0.00016  0.983563  0.0  0.30506  0.280965  0.000169  0.997745  0.0
H  H8  1  0.27205308  0.83834486  0.98399803  1  0.107905  -6e-05  0.959448  0.0  0.123345  -0.000534  0.118537  -0.000179  1.018021  -0.001  0.121163  -0.000154  1.016636  0.0  0.117434  0.116731  -0.000195  1.018842  -0.001
H  H9  1  0.83832590  0.27204988  0.48402796  1  0.107818  6e-05  0.959441  0.0  0.123282  0.000533  0.118477  0.000179  1.017977  0.001  0.121098  0.000154  1.016602  0.0  0.117402  0.11667  0.000195  1.018799  0.001
H  H10  1  0.83113938  0.31685540  0.00816385  1  0.121221  -0.000727  0.977393  -0.001  0.130354  -0.001263  0.126068  -0.000586  1.046789  -0.001  0.129826  -0.000449  1.044831  -0.001  0.111474  0.123284  -0.00064  1.048086  -0.001
H  H11  1  0.31678324  0.83109264  0.50817971  1  0.121091  0.000726  0.977523  0.001  0.129958  0.001265  0.126024  0.000586  1.046879  0.001  0.129787  0.00045  1.044902  0.001  0.111435  0.123238  0.00064  1.04818  0.001
H  H12  1  0.53599055  0.00414963  0.64660298  1  0.121358  -0.000798  0.970312  -0.001  0.146529  -0.001254  0.126747  -0.000645  1.038625  -0.001  0.130412  -0.000467  1.036699  -0.001  0.112152  0.12409  -0.000759  1.039878  -0.001
H  H13  1  0.00418811  0.53604100  0.14658230  1  0.121325  0.000798  0.970331  0.001  0.148004  0.001253  0.126667  0.000645  1.038651  0.001  0.130343  0.000467  1.036715  0.001  0.112174  0.124005  0.00076  1.039912  0.001
H  H14  1  0.99475661  0.96642391  0.90645723  1  0.121191  -0.000427  0.98354  0.0  0.169115  -0.000549  0.129439  -0.000287  1.045637  0.0  0.134006  -0.000219  1.041601  0.0  0.11901  0.125978  -0.000323  1.048865  0.0
H  H15  1  0.96643132  0.99476038  0.40647911  1  0.121186  0.000426  0.983691  0.0  0.169368  0.000549  0.129469  0.000287  1.045727  0.0  0.134037  0.000219  1.041694  0.0  0.118995  0.126016  0.000323  1.048953  0.0
C  C16  1  0.69469144  0.14880740  0.82817551  1  0.018069  0.008209  3.63432  0.007  -0.009554  0.003915  0.000195  0.002623  3.887484  0.002  0.003911  0.002971  3.902069  0.003  -0.052393  -0.003231  0.002297  3.878424  0.002
C  C17  1  0.14879303  0.69467981  0.32817800  1  0.018196  -0.00822  3.634455  -0.007  -0.009393  -0.003917  0.000316  -0.002625  3.887619  -0.002  0.004035  -0.002971  3.902197  -0.003  -0.052325  -0.003104  -0.002297  3.878566  -0.002
C  C18  1  0.01926112  0.61975240  0.71941123  1  0.214533  0.004023  3.66373  0.004  0.983186  0.001764  0.160522  0.000863  3.932862  0.001  0.176965  0.001373  3.94597  0.001  0.140542  0.150087  0.000491  3.923571  0.0
C  C19  1  0.61977742  0.01927313  0.21942562  1  0.214653  -0.004026  3.664021  -0.004  0.983576  -0.001763  0.16061  -0.000863  3.933173  -0.001  0.177061  -0.001374  3.946277  -0.001  0.140452  0.150185  -0.000491  3.923868  0.0
C  C20  1  0.60545386  0.39317973  0.92312245  1  0.107593  0.00478  3.737579  0.005  0.510821  0.001554  0.112565  0.000424  3.978636  0.001  0.11591  0.001488  3.998636  0.003  0.115126  0.110209  -0.000428  3.965795  0.0
C  C21  1  0.39314536  0.60541756  0.42313423  1  0.107195  -0.004793  3.737624  -0.005  0.509818  -0.001555  0.11221  -0.000425  3.978678  -0.001  0.11554  -0.001491  3.998664  -0.003  0.11506  0.109869  0.000427  3.965819  0.0
C  C22  1  0.44043029  0.21797765  0.72772550  1  0.109024  0.006494  3.739763  0.007  0.530691  0.002578  0.113224  0.001245  3.98051  0.002  0.117457  0.002107  4.000038  0.003  0.116248  0.110103  0.000552  3.968156  0.002
C  C23  1  0.21799586  0.44044741  0.22770468  1  0.108619  -0.006502  3.739851  -0.007  0.530604  -0.002577  0.112868  -0.001243  3.980595  -0.002  0.116961  -0.002107  4.000294  -0.003  0.116148  0.109794  -0.000551  3.968184  -0.002
C  C24  1  0.16805866  0.78901399  0.90030512  1  -0.001981  0.000177  3.724943  0.0  0.41318  -0.000229  -0.028509  -0.000632  3.988868  -0.001  -0.025664  -0.000114  4.010292  0.0  -0.005162  -0.030374  -0.000989  3.974699  -0.001
C  C25  1  0.78901393  0.16806289  0.40033136  1  -0.001815  -0.000179  3.725065  0.0  0.413728  0.000231  -0.028383  0.000634  3.988984  0.001  -0.025533  0.000115  4.010413  0.0  -0.005038  -0.030237  0.000989  3.9748  0.001
C  C26  1  0.72065932  0.28919856  0.92916053  1  -0.085132  -0.006735  3.649865  -0.006  0.025696  -0.003908  -0.113752  -0.002766  3.903093  -0.003  -0.117423  -0.002877  3.920928  -0.003  -0.063778  -0.110818  -0.002485  3.891117  -0.002
C  C27  1  0.28915469  0.72062275  0.42917231  1  -0.084928  0.006747  3.64989  0.006  0.026576  0.00391  -0.113638  0.002767  3.903047  0.003  -0.117306  0.002874  3.920884  0.003  -0.06377  -0.110714  0.002485  3.89108  0.002
C  C28  1  0.55485874  0.11262694  0.72537844  1  -0.08425  -0.006888  3.646978  -0.006  -0.038033  -0.004016  -0.111147  -0.002795  3.898089  -0.003  -0.114886  -0.002877  3.915481  -0.003  -0.061853  -0.108222  -0.00261  3.886453  -0.002
C  C29  1  0.11264324  0.55487512  0.22536561  1  -0.084236  0.006899  3.647072  0.006  -0.039201  0.004019  -0.11105  0.002796  3.89818  0.003  -0.114758  0.002875  3.915595  0.003  -0.061922  -0.108141  0.00261  3.886537  0.002
C  C30  1  0.61609088  0.55910010  0.01481458  1  0.603292  0.002417  3.91919  0.004  1.618609  0.000272  0.554772  -0.001217  4.227985  0.0  0.590895  -0.00099  4.222044  0.0  0.20754  0.529973  -0.001361  4.231187  0.0
C  C31  1  0.55904112  0.61605404  0.51483970  1  0.603148  -0.002416  3.919534  -0.004  1.618646  -0.000271  0.554707  0.001221  4.228184  0.0  0.590836  0.000992  4.222253  0.0  0.207555  0.529905  0.001362  4.231388  0.0
C  C32  1  0.02870292  0.85225488  0.86169976  1  -0.005925  -0.003433  3.667439  -0.004  0.317213  -0.002648  -0.042049  -0.001708  3.921744  -0.002  -0.03999  -0.001477  3.937228  -0.002  -0.000314  -0.043904  -0.001816  3.912109  -0.002
C  C33  1  0.85227113  0.02871750  0.36171996  1  -0.006154  0.003436  3.667731  0.004  0.316219  0.00265  -0.042304  0.001709  3.922076  0.002  -0.040257  0.001476  3.937557  0.002  -0.000319  -0.044165  0.001816  3.912453  0.002
C  C34  1  0.27765362  0.19970428  0.62979023  1  0.598888  0.003961  3.926617  0.006  1.64233  0.000705  0.554961  -0.001056  4.233975  0.001  0.591357  -0.00098  4.229087  0.0  0.202928  0.529944  -0.001139  4.236243  0.001
C  C35  1  0.19976448  0.27769194  0.12975981  1  0.59912  -0.00396  3.92706  -0.006  1.641238  -0.000701  0.555198  0.001059  4.234369  -0.001  0.591634  0.000982  4.229491  0.0  0.203014  0.530159  0.001139  4.236634  -0.001
N  N36  1  0.16115045  0.64384249  0.81068299  1  -0.388653  -0.052248  3.38365  -0.062  -1.254763  -0.050492  -0.341116  -0.034477  3.710289  -0.042  -0.374102  -0.030119  3.727759  -0.039  -0.400665  -0.32077  -0.03595  3.700527  -0.043
N  N37  1  0.64385364  0.16115485  0.31070299  1  -0.388784  0.052255  3.383931  0.062  -1.254441  0.050492  -0.34115  0.034476  3.710511  0.042  -0.37415  0.030117  3.72799  0.039  -0.400726  -0.320777  0.035951  3.700726  0.043
N  N38  1  0.93697856  0.74363662  0.74787162  1  -0.274667  -0.001361  3.452237  -0.002  -1.324595  -0.00172  -0.201058  -0.001  3.674147  -0.001  -0.2171  -0.000751  3.687494  -0.001  -0.372384  -0.19047  -0.001108  3.665204  -0.002
N  N39  1  0.74365871  0.93699066  0.24788592  1  -0.274501  0.001361  3.452156  0.002  -1.324731  0.001719  -0.200919  0.000999  3.674077  0.001  -0.216938  0.000752  3.687406  0.001  -0.372416  -0.190344  0.001109  3.665151  0.002
N  N40  1  0.47019993  0.35321501  0.82444456  1  -0.32354  -0.087808  3.484057  -0.107  -1.272644  -0.087113  -0.285341  -0.058666  3.769586  -0.076  -0.316362  -0.04895  3.793152  -0.066  -0.367136  -0.267602  -0.062842  3.757207  -0.078
N  N41  1  0.35320803  0.47019538  0.32443791  1  -0.323134  0.087814  3.483524  0.107  -1.27278  0.087104  -0.285063  0.058663  3.769176  0.076  -0.316016  0.048946  3.792752  0.066  -0.367055  -0.267314  0.06284  3.756761  0.078
O  O42  1  0.19040229  0.31256521  0.65741294  1  -0.579218  -0.110965  1.954412  -0.145  -1.126601  -0.114671  -0.558598  -0.075116  2.228698  -0.107  -0.604133  -0.056867  2.222817  -0.086  -0.322129  -0.528549  -0.085822  2.233235  -0.118
O  O43  1  0.31262928  0.19044735  0.15737526  1  -0.579389  0.110949  1.954762  0.145  -1.126218  0.114658  -0.558766  0.075103  2.229091  0.107  -0.604304  0.056858  2.223178  0.086  -0.322202  -0.528719  0.085817  2.233676  0.118
O  O44  1  0.23763257  0.08521086  0.53101724  1  -0.561722  -0.026558  1.944686  -0.032  -1.195132  -0.020984  -0.537619  -0.013656  2.18787  -0.018  -0.567147  -0.006519  2.180201  -0.009  -0.293481  -0.514787  -0.02161  2.191825  -0.027
O  O45  1  0.08528153  0.23767362  0.03097775  1  -0.561637  0.026563  1.944606  0.032  -1.194434  0.020984  -0.537545  0.013655  2.187826  0.018  -0.567045  0.00652  2.180084  0.009  -0.293447  -0.514708  0.021617  2.191783  0.027
O  O46  1  0.50135876  0.64060490  0.98186865  1  -0.5853  -0.084697  1.957864  -0.11  -1.138877  -0.0931  -0.55642  -0.061416  2.228137  -0.087  -0.597539  -0.047093  2.220212  -0.071  -0.319555  -0.528837  -0.070515  2.234026  -0.096
O  O47  1  0.64053954  0.50130825  0.48189991  1  -0.585118  0.084719  1.957653  0.11  -1.138662  0.093119  -0.55626  0.061426  2.227916  0.087  -0.597397  0.047104  2.220005  0.071  -0.319529  -0.528664  0.070527  2.233809  0.096
O  O48  1  0.73148114  0.60933546  0.11498536  1  -0.577321  -0.0144  1.981992  -0.017  -1.192847  -0.014003  -0.544192  -0.009124  2.221878  -0.012  -0.572125  -0.004839  2.213642  -0.006  -0.293682  -0.523512  -0.013403  2.22657  -0.017
O  O49  1  0.60926861  0.73144323  0.61500528  1  -0.57716  0.0144  1.982257  0.017  -1.192669  0.014003  -0.544027  0.009124  2.222049  0.012  -0.571936  0.00484  2.213769  0.006  -0.293621  -0.523356  0.013404  2.226758  0.017
