# generated using pymatgen
data_CuH26C32(N2O5)2
_symmetry_space_group_name_H-M   'P 1'
_cell_length_a   15.31517316
_cell_length_b   16.69043739
_cell_length_c   17.77414985
_cell_angle_alpha   118.00101368
_cell_angle_beta   115.52570204
_cell_angle_gamma   89.99805405
_symmetry_Int_Tables_number   1
_chemical_formula_structural   CuH26C32(N2O5)2
_chemical_formula_sum   'Cu4 H104 C128 N16 O40'
_cell_volume   3501.36737349
_cell_formula_units_Z   4
loop_
 _symmetry_equiv_pos_site_id
 _symmetry_equiv_pos_as_xyz
  1  'x, y, z'
loop_
 _atom_site_type_symbol
 _atom_site_label
 _atom_site_symmetry_multiplicity
 _atom_site_fract_x
 _atom_site_fract_y
 _atom_site_fract_z
 _atom_site_occupancy
 _atom_site_pbe_bader_charge
 _atom_site_pbe_bader_spin_density
 _atom_site_pbe_cm5_charge
 _atom_site_pbe_ddec_charge
 _atom_site_pbe_ddec_spin_density
 _atom_site_pbe_ddec_sum_bond_order
 _atom_site_pbe_magmom
Cu  Cu0  1  0.99999968  0.99999951  0.49999991  1  1.091709  0.584565  0.741792  0.767075  0.742466  2.251146  0.583
Cu  Cu1  1  0.50000081  0.00000037  0.50000063  1  1.091847  0.584537  0.741381  0.766366  0.742354  2.251644  0.583
Cu  Cu2  1  0.49999975  0.49999941  0.49999909  1  1.092005  0.584564  0.741569  0.767087  0.742427  2.250406  0.583
Cu  Cu3  1  0.99999943  0.49999973  0.49999928  1  1.087634  0.584543  0.741333  0.766595  0.742361  2.251341  0.583
H  H4  1  0.11365448  0.19028882  0.57807228  1  0.152091  0.002221  0.121382  0.095657  0.001007  1.025656  0.001
H  H5  1  0.46434897  0.88773014  0.57801648  1  0.132344  0.002232  0.121927  0.096713  0.001005  1.024667  0.001
H  H6  1  0.38634606  0.61230584  0.42198715  1  0.130623  0.00224  0.121537  0.095431  0.001008  1.025657  0.001
H  H7  1  0.03558594  0.30972313  0.42194498  1  0.130255  0.002236  0.121802  0.096578  0.001007  1.024838  0.001
H  H8  1  0.88634486  0.80971159  0.42192958  1  0.152077  0.002221  0.121397  0.09567  0.001007  1.025635  0.001
H  H9  1  0.53565270  0.11227117  0.42198418  1  0.132317  0.002232  0.121941  0.09675  0.001005  1.024601  0.001
H  H10  1  0.61365381  0.38769234  0.57801178  1  0.130618  0.00224  0.121535  0.095438  0.001008  1.025649  0.001
H  H11  1  0.96441374  0.69027706  0.57805526  1  0.130268  0.002236  0.121795  0.096566  0.001006  1.024867  0.001
H  H12  1  0.09265020  0.35227539  0.64625122  1  0.138389  0.00107  0.115081  0.139613  0.000565  1.006227  0.001
H  H13  1  0.55359212  0.79398342  0.64629427  1  0.154618  0.001056  0.114723  0.139504  0.000566  1.007206  0.001
H  H14  1  0.40734996  0.70612073  0.35377126  1  0.143028  0.001069  0.114887  0.139406  0.000566  1.006496  0.001
H  H15  1  0.94636568  0.14773204  0.35371138  1  0.159526  0.00105  0.114975  0.139674  0.000565  1.006632  0.001
H  H16  1  0.90734803  0.64772426  0.35374848  1  0.138357  0.00107  0.115092  0.139665  0.000565  1.006174  0.001
H  H17  1  0.44640901  0.20601787  0.35370707  1  0.154511  0.001056  0.114719  0.139504  0.000566  1.007237  0.001
H  H18  1  0.59265117  0.29387944  0.64622896  1  0.142949  0.001069  0.11491  0.139412  0.000566  1.006563  0.001
H  H19  1  0.05363458  0.85226775  0.64629057  1  0.159514  0.00105  0.114972  0.139667  0.000565  1.006683  0.001
H  H20  1  0.80868992  0.24069581  0.60267712  1  0.111163  0.001122  0.114033  0.132558  0.000583  0.993606  0.001
H  H21  1  0.79393846  0.86198495  0.60267122  1  0.100385  0.001129  0.114034  0.132117  0.000583  0.993798  0.001
H  H22  1  0.69126397  0.63796963  0.39728286  1  0.086734  0.001138  0.114009  0.132218  0.000583  0.993759  0.001
H  H23  1  0.70602978  0.25935492  0.39733959  1  0.10362  0.001128  0.11378  0.131625  0.000584  0.994732  0.001
H  H24  1  0.19130793  0.75930449  0.39732183  1  0.111106  0.001122  0.114043  0.13257  0.000583  0.993583  0.001
H  H25  1  0.20606286  0.13801490  0.39732938  1  0.10041  0.001129  0.114035  0.132112  0.000583  0.993842  0.001
H  H26  1  0.30873663  0.36203051  0.60271803  1  0.086743  0.001138  0.114014  0.132225  0.000583  0.993763  0.001
H  H27  1  0.29396990  0.74064583  0.60266121  1  0.103636  0.001128  0.113784  0.131658  0.000583  0.994706  0.001
H  H28  1  0.84038569  0.08257744  0.53493689  1  0.118  0.002302  0.117807  0.090263  0.001011  1.044361  0.001
H  H29  1  0.69451695  0.95236205  0.53496206  1  0.135798  0.002286  0.118042  0.09106  0.001011  1.043233  0.001
H  H30  1  0.65955658  0.54762636  0.46502841  1  0.124363  0.0023  0.117753  0.09053  0.001012  1.043893  0.001
H  H31  1  0.80545578  0.41747108  0.46505397  1  0.134066  0.002288  0.118003  0.090868  0.001011  1.043886  0.001
H  H32  1  0.15961327  0.91742305  0.46506365  1  0.118023  0.002302  0.11782  0.090298  0.001011  1.044344  0.001
H  H33  1  0.30548491  0.04763838  0.46503842  1  0.135823  0.002286  0.118032  0.091063  0.001011  1.043247  0.001
H  H34  1  0.34044402  0.45237265  0.53497135  1  0.124387  0.002299  0.117763  0.090565  0.001011  1.043873  0.001
H  H35  1  0.19454444  0.58252914  0.53494559  1  0.134073  0.002289  0.11799  0.090865  0.001011  1.043862  0.001
H  H36  1  0.98588395  0.45637813  0.67870758  1  0.126435  0.000108  0.120426  0.123569  0.000142  0.992571  0.0
H  H37  1  0.69282850  0.72231220  0.67872491  1  0.117062  0.00011  0.120437  0.12421  0.000142  0.992234  0.0
H  H38  1  0.51412500  0.77769628  0.32129811  1  0.125901  0.00011  0.120289  0.123446  0.000143  0.992319  0.0
H  H39  1  0.80716224  0.04364813  0.32132080  1  0.117542  0.000108  0.120319  0.123456  0.000142  0.99266  0.0
H  H40  1  0.01411391  0.54362104  0.32129024  1  0.126435  0.000108  0.12042  0.123543  0.000142  0.992574  0.0
H  H41  1  0.30717244  0.27768829  0.32127492  1  0.117043  0.00011  0.120448  0.12423  0.000142  0.992191  0.0
H  H42  1  0.48587704  0.22230383  0.67870275  1  0.125856  0.00011  0.120279  0.123414  0.000143  0.992309  0.0
H  H43  1  0.19283710  0.95635115  0.67867994  1  0.117495  0.000108  0.12031  0.123441  0.000142  0.992648  0.0
H  H44  1  0.85747941  0.40886145  0.63370991  1  0.128445  -8.8e-05  0.115851  0.111071  -9.9e-05  1.015237  0.0
H  H45  1  0.77620987  0.72484849  0.63371411  1  0.130147  -8.9e-05  0.116236  0.112495  -9.9e-05  1.01377  0.0
H  H46  1  0.64252534  0.77515019  0.36626531  1  0.133597  -8.8e-05  0.115726  0.110955  -9.9e-05  1.015243  0.0
H  H47  1  0.72376712  0.09118358  0.36631283  1  0.131828  -8.8e-05  0.116197  0.112184  -9.9e-05  1.01364  0.0
H  H48  1  0.14251754  0.59113777  0.36628726  1  0.128501  -8.8e-05  0.115844  0.111065  -9.9e-05  1.015246  0.0
H  H49  1  0.22379107  0.27515199  0.36628573  1  0.131007  -8.9e-05  0.116244  0.112505  -9.9e-05  1.01378  0.0
H  H50  1  0.35747671  0.22484992  0.63373555  1  0.133693  -8.8e-05  0.115727  0.110915  -9.9e-05  1.015246  0.0
H  H51  1  0.27623276  0.90881798  0.63368948  1  0.131807  -8.8e-05  0.116218  0.112214  -9.9e-05  1.013631  0.0
H  H52  1  0.18595269  0.55943962  0.06606098  1  0.140003  1e-06  0.12203  0.138323  -0.0  0.991507  0.0
H  H53  1  0.88010943  0.00657396  0.06602368  1  0.156354  1e-06  0.122365  0.138532  -0.0  0.993206  0.0
H  H54  1  0.31404318  0.49335210  0.93392891  1  0.157156  1e-06  0.122102  0.138123  -0.0  0.991909  0.0
H  H55  1  0.61989965  0.94054140  0.93397575  1  0.159494  1e-06  0.12215  0.138519  -0.0  0.992587  0.0
H  H56  1  0.81404517  0.44055955  0.93393684  1  0.139936  1e-06  0.122021  0.138321  -0.0  0.991496  0.0
H  H57  1  0.11989223  0.99342736  0.93397699  1  0.156321  1e-06  0.122368  0.138526  -0.0  0.993208  0.0
H  H58  1  0.68595867  0.50664833  0.06607158  1  0.157092  1e-06  0.12208  0.138104  -0.0  0.991947  0.0
H  H59  1  0.38010022  0.05945904  0.06602543  1  0.15948  1e-06  0.122151  0.13854  -0.0  0.992578  0.0
H  H60  1  0.75771354  0.81317352  0.20135895  1  0.075368  0.000402  0.10853  0.113869  0.000208  0.98453  0.0
H  H61  1  0.44365709  0.88823115  0.20140218  1  0.103074  0.000398  0.108595  0.113744  0.000207  0.985481  0.0
H  H62  1  0.74229102  0.61179539  0.79863597  1  0.088479  0.0004  0.108441  0.114248  0.000208  0.984785  0.0
H  H63  1  0.05639383  0.68685712  0.79868422  1  0.070952  0.000405  0.108789  0.114139  0.000208  0.984526  0.0
H  H64  1  0.24228652  0.18682546  0.79864149  1  0.07537  0.000403  0.108533  0.113873  0.000208  0.984516  0.0
H  H65  1  0.55634313  0.11176963  0.79859795  1  0.103059  0.000398  0.108587  0.113739  0.000207  0.98552  0.0
H  H66  1  0.25770866  0.38820254  0.20136203  1  0.088547  0.0004  0.108438  0.114233  0.000208  0.984776  0.0
H  H67  1  0.94360548  0.31314371  0.20131526  1  0.070876  0.000405  0.10879  0.114134  0.000208  0.984528  0.0
H  H68  1  0.60040819  0.75283709  0.04303773  1  0.077744  4.5e-05  0.102435  0.101444  6e-06  0.9893  0.0
H  H69  1  0.44256391  0.79025286  0.04302491  1  0.075105  4.6e-05  0.102663  0.101623  6e-06  0.988943  0.0
H  H70  1  0.89958106  0.70975157  0.95699443  1  0.076573  4.5e-05  0.102512  0.101885  6e-06  0.988624  0.0
H  H71  1  0.05744368  0.74720410  0.95704985  1  0.06746  4.7e-05  0.102707  0.101583  6e-06  0.98876  0.0
H  H72  1  0.39959149  0.24716253  0.95696195  1  0.077739  4.5e-05  0.102454  0.101474  6e-06  0.989275  0.0
H  H73  1  0.55743630  0.20974792  0.95697522  1  0.075104  4.6e-05  0.102649  0.101614  6e-06  0.988951  0.0
H  H74  1  0.10041790  0.29024722  0.04300442  1  0.076564  4.5e-05  0.102516  0.101886  6e-06  0.988599  0.0
H  H75  1  0.94255508  0.25279558  0.04294918  1  0.067432  4.7e-05  0.102709  0.101567  6e-06  0.98874  0.0
H  H76  1  0.93953767  0.93521712  0.25476476  1  0.048784  7.4e-05  0.095463  0.101717  4.9e-05  0.989997  0.0
H  H77  1  0.31520342  0.81954670  0.25474645  1  0.039745  7.4e-05  0.095456  0.10123  4.9e-05  0.991189  0.0
H  H78  1  0.56048470  0.68046726  0.74525579  1  0.068936  7.4e-05  0.095582  0.101946  4.9e-05  0.990059  0.0
H  H79  1  0.18474595  0.56476902  0.74523131  1  0.042341  7.4e-05  0.095478  0.101582  4.9e-05  0.991496  0.0
H  H80  1  0.06046148  0.06478136  0.74523447  1  0.048794  7.4e-05  0.09547  0.101707  4.9e-05  0.990061  0.0
H  H81  1  0.68479622  0.18045448  0.74525197  1  0.039774  7.4e-05  0.095443  0.101213  4.9e-05  0.991196  0.0
H  H82  1  0.43951479  0.31953326  0.25474407  1  0.068923  7.4e-05  0.095584  0.10197  4.9e-05  0.990069  0.0
H  H83  1  0.81525412  0.43523053  0.25476969  1  0.042348  7.4e-05  0.095486  0.101634  4.9e-05  0.991467  0.0
H  H84  1  0.05792443  0.90955709  0.30122355  1  0.013295  -1.2e-05  0.078941  0.061552  -2.2e-05  1.036365  0.0
H  H85  1  0.24325771  0.89165220  0.30116574  1  0.027595  -1.1e-05  0.079223  0.061182  -2.2e-05  1.03601  0.0
H  H86  1  0.44211733  0.60833814  0.69881600  1  0.024399  -1.1e-05  0.07924  0.061881  -2.2e-05  1.035465  0.0
H  H87  1  0.25667941  0.59046063  0.69880123  1  0.008018  -1.2e-05  0.079136  0.061511  -2.2e-05  1.036537  0.0
H  H88  1  0.94207578  0.09044313  0.69877601  1  0.013308  -1.2e-05  0.078926  0.061543  -2.2e-05  1.036337  0.0
H  H89  1  0.75674285  0.10834892  0.69883333  1  0.027533  -1.1e-05  0.079227  0.061184  -2.2e-05  1.035942  0.0
H  H90  1  0.55788255  0.39166060  0.30118350  1  0.024407  -1.1e-05  0.079248  0.061916  -2.2e-05  1.035452  0.0
H  H91  1  0.74331936  0.40953961  0.30119836  1  0.007999  -1.2e-05  0.07912  0.061487  -2.2e-05  1.036545  0.0
H  H92  1  0.04408985  0.99417473  0.26411403  1  0.021433  -2.6e-05  0.078798  0.069311  -2.1e-05  1.029208  0.0
H  H93  1  0.21999924  0.76993148  0.26408517  1  0.027724  -2.5e-05  0.078558  0.06841  -2.1e-05  1.029427  0.0
H  H94  1  0.45590917  0.73005231  0.73588264  1  0.041287  -2.6e-05  0.078851  0.069361  -2.1e-05  1.028876  0.0
H  H95  1  0.27997084  0.50583895  0.73589937  1  0.033897  -2.5e-05  0.078961  0.069088  -2e-05  1.029507  0.0
H  H96  1  0.95590892  0.00582551  0.73588556  1  0.021432  -2.6e-05  0.078801  0.06932  -2.1e-05  1.029231  0.0
H  H97  1  0.78000224  0.23007016  0.73591512  1  0.027722  -2.5e-05  0.078549  0.068413  -2.1e-05  1.029459  0.0
H  H98  1  0.54409017  0.26994641  0.26411753  1  0.041289  -2.6e-05  0.078856  0.069379  -2.1e-05  1.028854  0.0
H  H99  1  0.72003120  0.49416229  0.26410262  1  0.034007  -2.5e-05  0.078975  0.069084  -2e-05  1.02955  0.0
H  H100  1  0.11237210  0.05629960  0.44359461  1  0.630922  6e-06  0.28418  0.316693  -6.8e-05  1.028962  0.0
H  H101  1  0.33120532  0.88729403  0.44357117  1  0.630867  6e-06  0.283868  0.316198  -6.8e-05  1.027306  0.0
H  H102  1  0.38763968  0.61270493  0.55641979  1  0.630973  7e-06  0.28439  0.316884  -6.8e-05  1.029368  0.0
H  H103  1  0.16878119  0.44370339  0.55642375  1  0.633673  7e-06  0.283608  0.315817  -6.8e-05  1.027911  0.0
H  H104  1  0.88762633  0.94369917  0.55640492  1  0.630916  6e-06  0.284172  0.31669  -6.8e-05  1.028962  0.0
H  H105  1  0.66879471  0.11270651  0.55642802  1  0.630897  6e-06  0.283909  0.316252  -6.8e-05  1.027375  0.0
H  H106  1  0.61235928  0.38729386  0.44357906  1  0.630981  7e-06  0.284404  0.316899  -6.8e-05  1.029351  0.0
H  H107  1  0.83121921  0.55629707  0.44357676  1  0.633659  7e-06  0.283641  0.315895  -6.8e-05  1.027906  0.0
C  C108  1  0.04769172  0.20416138  0.58579895  1  0.49724  -0.001416  0.05146  0.108226  -0.001796  3.907421  -0.001
C  C109  1  0.53805988  0.88161154  0.58579978  1  0.465392  -0.001306  0.050342  0.107706  -0.001791  3.906012  -0.001
C  C110  1  0.45231053  0.61846531  0.41425996  1  0.472834  -0.001325  0.051526  0.108993  -0.001794  3.905724  -0.001
C  C111  1  0.96187716  0.29585270  0.41417336  1  0.478865  -0.00135  0.051239  0.10806  -0.001799  3.907851  -0.001
C  C112  1  0.95230743  0.79583879  0.41420197  1  0.497245  -0.001416  0.051443  0.10822  -0.001796  3.907474  -0.001
C  C113  1  0.46194179  0.11838978  0.41420088  1  0.465576  -0.001306  0.050293  0.107634  -0.001791  3.906062  -0.001
C  C114  1  0.54768915  0.38153319  0.58573860  1  0.472916  -0.001325  0.05147  0.1089  -0.001794  3.905774  -0.001
C  C115  1  0.03812199  0.70414690  0.58582699  1  0.478783  -0.00135  0.051212  0.108034  -0.001799  3.907869  -0.001
C  C116  1  0.03551631  0.29490722  0.62417047  1  -0.05003  0.005792  -0.076715  -0.165905  0.003802  3.907089  0.005
C  C117  1  0.58863120  0.82926700  0.62419827  1  -0.022876  0.005699  -0.07645  -0.167288  0.003803  3.907275  0.005
C  C118  1  0.46449601  0.67083447  0.37588782  1  0.000294  0.00569  -0.07645  -0.166107  0.003804  3.907358  0.005
C  C119  1  0.91131532  0.20510651  0.37578641  1  -0.039928  0.005728  -0.077217  -0.167305  0.003803  3.908468  0.005
C  C120  1  0.96448192  0.70509243  0.37582924  1  -0.050051  0.005793  -0.076727  -0.16599  0.003802  3.907026  0.005
C  C121  1  0.41137047  0.17073487  0.37580296  1  -0.023  0.0057  -0.076455  -0.167278  0.003803  3.907306  0.005
C  C122  1  0.53550531  0.32916481  0.62411221  1  0.000323  0.00569  -0.07647  -0.166068  0.003804  3.907397  0.005
C  C123  1  0.08868383  0.79489366  0.62421450  1  -0.04003  0.005728  -0.077177  -0.167226  0.003803  3.908439  0.005
C  C124  1  0.94938777  0.31020547  0.63191023  1  -0.041946  -0.003717  0.009548  0.139376  -0.004211  3.943291  -0.002
C  C125  1  0.68250828  0.82171945  0.63194743  1  -0.020097  -0.003719  0.010143  0.141734  -0.004211  3.94038  -0.002
C  C126  1  0.55060105  0.67832700  0.36809771  1  -0.012611  -0.003713  0.0094  0.139714  -0.004209  3.942474  -0.002
C  C127  1  0.81745130  0.18981872  0.36805474  1  -0.040484  -0.003719  0.009715  0.139918  -0.004211  3.941839  -0.002
C  C128  1  0.05061009  0.68979426  0.36808815  1  -0.041919  -0.003717  0.009535  0.139407  -0.004211  3.9432  -0.002
C  C129  1  0.31749247  0.17828248  0.36805315  1  -0.02009  -0.003719  0.010154  0.14173  -0.004211  3.940372  -0.002
C  C130  1  0.44940027  0.32167285  0.63190288  1  -0.012569  -0.003713  0.009401  0.139671  -0.004209  3.942475  -0.002
C  C131  1  0.18254949  0.81018166  0.63194709  1  -0.040307  -0.003719  0.009673  0.139797  -0.004211  3.941891  -0.002
C  C132  1  0.87807290  0.23271168  0.59979821  1  -0.071507  0.005662  -0.085971  -0.183284  0.003743  3.925693  0.004
C  C133  1  0.72170148  0.86709707  0.59984287  1  -0.052604  0.005638  -0.085708  -0.182782  0.003743  3.925171  0.004
C  C134  1  0.62187581  0.63289414  0.40015280  1  -0.020292  0.005562  -0.085767  -0.182372  0.003745  3.92486  0.004
C  C135  1  0.77826368  0.26732146  0.40017349  1  -0.061039  0.005664  -0.084868  -0.180507  0.003742  3.924594  0.004
C  C136  1  0.12192515  0.76728773  0.40020055  1  -0.071423  0.005661  -0.085966  -0.183265  0.003743  3.925641  0.004
C  C137  1  0.27829984  0.13290333  0.40015828  1  -0.052398  0.005638  -0.085679  -0.182722  0.003743  3.925152  0.004
C  C138  1  0.37812532  0.36710602  0.59984742  1  -0.020257  0.005561  -0.085781  -0.182383  0.003745  3.924909  0.004
C  C139  1  0.22173691  0.73267981  0.59982853  1  -0.061043  0.005664  -0.084835  -0.180483  0.003742  3.924585  0.004
C  C140  1  0.89556365  0.14419894  0.56237471  1  0.483549  -0.001069  0.042231  0.089381  -0.001453  3.946083  -0.001
C  C141  1  0.66677968  0.91818190  0.56240245  1  0.453723  -0.001061  0.04232  0.089229  -0.001459  3.947208  -0.001
C  C142  1  0.60438141  0.58181885  0.43759220  1  0.428452  -0.000963  0.042448  0.0887  -0.001453  3.94524  -0.001
C  C143  1  0.83317853  0.35583465  0.43759816  1  0.480725  -0.001078  0.041708  0.087946  -0.001454  3.946624  -0.001
C  C144  1  0.10443478  0.85579983  0.43762481  1  0.483565  -0.001069  0.042197  0.089291  -0.001453  3.946135  -0.001
C  C145  1  0.33322290  0.08181936  0.43759886  1  0.453425  -0.001061  0.042336  0.08923  -0.00146  3.947189  -0.001
C  C146  1  0.39561846  0.41817990  0.56240729  1  0.428234  -0.000962  0.042438  0.088674  -0.001452  3.945185  -0.001
C  C147  1  0.16682116  0.64416554  0.56240208  1  0.480533  -0.001077  0.041692  0.087915  -0.001454  3.946618  -0.001
C  C148  1  0.93468426  0.40785264  0.67584397  1  0.292622  0.000345  -0.054107  -0.109171  0.000158  3.879853  0.0
C  C149  1  0.74115463  0.76798515  0.67585794  1  0.297243  0.000346  -0.054626  -0.112419  0.000159  3.880668  0.0
C  C150  1  0.56530588  0.73202030  0.32414489  1  0.275126  0.000347  -0.053543  -0.108858  0.00016  3.878222  0.0
C  C151  1  0.75882763  0.09218566  0.32417432  1  0.307348  0.000343  -0.05419  -0.110322  0.000158  3.879283  0.0
C  C152  1  0.06531360  0.59214709  0.32415441  1  0.292612  0.000344  -0.054076  -0.109176  0.000158  3.879973  0.0
C  C153  1  0.25884650  0.23201558  0.32414284  1  0.296364  0.000346  -0.054634  -0.112427  0.000159  3.880704  0.0
C  C154  1  0.43469616  0.26797925  0.67585541  1  0.27506  0.000347  -0.053527  -0.108714  0.00016  3.87805  0.0
C  C155  1  0.24117080  0.90781424  0.67582633  1  0.307355  0.000343  -0.054181  -0.110246  0.000158  3.879228  0.0
C  C156  1  0.04962619  0.48166110  0.85680338  1  1.358079  -5e-06  0.249277  0.432111  -1.6e-05  4.11403  0.0
C  C157  1  0.80720050  0.87510324  0.85680017  1  1.381788  -5e-06  0.250718  0.435919  -1.6e-05  4.111061  0.0
C  C158  1  0.45034607  0.62485864  0.14317476  1  1.355745  -5e-06  0.249063  0.431736  -1.5e-05  4.11353  0.0
C  C159  1  0.69279303  0.01830873  0.14321388  1  1.358096  -5e-06  0.250674  0.435039  -1.6e-05  4.111  0.0
C  C160  1  0.95036824  0.51833866  0.14319573  1  1.358223  -5e-06  0.249281  0.432166  -1.5e-05  4.114175  0.0
C  C161  1  0.19280044  0.12489781  0.14320022  1  1.381799  -5e-06  0.250745  0.436021  -1.6e-05  4.110973  0.0
C  C162  1  0.54966123  0.37514078  0.85682612  1  1.355772  -5e-06  0.24906  0.431779  -1.5e-05  4.113833  0.0
C  C163  1  0.30720106  0.98169068  0.85678629  1  1.358472  -5e-06  0.250741  0.435561  -1.6e-05  4.111282  0.0
C  C164  1  0.87944374  0.42874717  0.79708635  1  1.372617  4e-06  0.250265  0.425802  3e-06  4.124675  0.0
C  C165  1  0.91767159  0.86829363  0.79709639  1  1.374298  4e-06  0.25054  0.425652  3e-06  4.125058  0.0
C  C166  1  0.62053680  0.63171015  0.20289349  1  1.384672  4e-06  0.250051  0.42579  3e-06  4.124282  0.0
C  C167  1  0.58232866  0.07124752  0.20290668  1  1.392224  4e-06  0.249848  0.424604  3e-06  4.127138  0.0
C  C168  1  0.12055339  0.57125173  0.20291120  1  1.372383  4e-06  0.250228  0.4257  3e-06  4.124715  0.0
C  C169  1  0.08233041  0.13170634  0.20290154  1  1.374228  4e-06  0.250516  0.425729  3e-06  4.124813  0.0
C  C170  1  0.37946525  0.36828996  0.79710737  1  1.384715  4e-06  0.250029  0.425709  3e-06  4.124553  0.0
C  C171  1  0.41767068  0.92875345  0.79709574  1  1.392687  4e-06  0.249883  0.424665  3e-06  4.127075  0.0
C  C172  1  0.03516356  0.49670007  0.93999202  1  0.065467  1e-06  -9.8e-05  -0.048498  -3e-06  3.989898  0.0
C  C173  1  0.90484169  0.94326987  0.93999173  1  -0.036689  0.0  -0.000376  -0.050388  -4e-06  3.992498  0.0
C  C174  1  0.46481450  0.55669519  0.05999846  1  -0.033473  0.0  -0.000145  -0.047817  -4e-06  3.988812  0.0
C  C175  1  0.59514536  0.00326364  0.06000983  1  -0.039022  1e-06  -0.000989  -0.048861  -4e-06  3.9909  0.0
C  C176  1  0.96483358  0.50329883  0.06000554  1  0.065088  1e-06  -0.000125  -0.048698  -3e-06  3.989796  0.0
C  C177  1  0.09515853  0.05673203  0.06000952  1  -0.036709  0.0  -0.000435  -0.050518  -4e-06  3.992511  0.0
C  C178  1  0.53518663  0.44330498  0.94000176  1  -0.033258  0.0  -0.00017  -0.047853  -4e-06  3.988832  0.0
C  C179  1  0.40485306  0.99673513  0.93998969  1  -0.03907  1e-06  -0.000959  -0.050251  -3e-06  3.992804  0.0
C  C180  1  0.10627218  0.53360179  0.03757954  1  -0.023973  0.0  -0.051381  -0.070936  -3e-06  3.87458  0.0
C  C181  1  0.93129323  0.00397068  0.03756123  1  0.057436  0.0  -0.05154  -0.070167  -3e-06  3.876154  0.0
C  C182  1  0.39371799  0.49598943  0.96241294  1  0.064241  0.0  -0.051802  -0.070776  -3e-06  3.876393  0.0
C  C183  1  0.56871034  0.96638202  0.96244435  1  -0.003282  1e-06  -0.050592  -0.070713  -3e-06  3.875633  0.0
C  C184  1  0.89372404  0.46639660  0.96241680  1  -0.023759  0.0  -0.05136  -0.070858  -3e-06  3.874523  0.0
C  C185  1  0.06870752  0.99603069  0.96243878  1  0.057372  0.0  -0.051545  -0.070136  -3e-06  3.876129  0.0
C  C186  1  0.60628550  0.50401122  0.03758846  1  0.064225  0.0  -0.051826  -0.07082  -3e-06  3.876338  0.0
C  C187  1  0.43128881  0.03361814  0.03755656  1  -0.003281  0.0  -0.050626  -0.070335  -3e-06  3.876023  0.0
C  C188  1  0.06737920  0.53550792  0.09615146  1  -0.078448  2.1e-05  0.000209  -0.04844  9e-06  3.999678  0.0
C  C189  1  0.02874599  0.06066403  0.09613751  1  -0.107263  2.2e-05  -0.000174  -0.048255  1e-05  3.998897  0.0
C  C190  1  0.43263149  0.43933743  0.90385760  1  -0.075528  2.2e-05  0.000419  -0.049084  1e-05  4.000003  0.0
C  C191  1  0.47126169  0.96451067  0.90386680  1  -0.047742  2.1e-05  -0.00049  -0.048018  9e-06  3.999443  0.0
C  C192  1  0.93261812  0.46449122  0.90384703  1  -0.078603  2.1e-05  0.000167  -0.048579  9e-06  3.999707  0.0
C  C193  1  0.97125602  0.93933820  0.90386266  1  -0.107317  2.2e-05  -0.000184  -0.048268  1e-05  3.998838  0.0
C  C194  1  0.56737200  0.56066209  0.09614268  1  -0.075434  2.2e-05  0.000478  -0.049041  1e-05  3.999804  0.0
C  C195  1  0.52873620  0.03548864  0.09613396  1  -0.047938  2.1e-05  -0.000417  -0.048335  9e-06  3.998845  0.0
C  C196  1  0.78334862  0.91476403  0.38304788  1  1.573954  0.000156  0.213841  0.567621  0.000233  4.212682  -0.001
C  C197  1  0.59966335  0.96823677  0.38301376  1  1.574597  0.000175  0.214641  0.568708  0.000217  4.211561  -0.001
C  C198  1  0.71665668  0.53178571  0.61700577  1  1.583882  0.000179  0.213998  0.567937  0.000228  4.212727  -0.001
C  C199  1  0.90031311  0.58528936  0.61700285  1  1.572508  0.000208  0.214916  0.571087  0.000226  4.210099  -0.001
C  C200  1  0.21665053  0.08523557  0.61695247  1  1.573928  0.000156  0.213844  0.567619  0.000233  4.212763  -0.001
C  C201  1  0.40033668  0.03176377  0.61698543  1  1.574654  0.000174  0.214648  0.568744  0.000217  4.211571  -0.001
C  C202  1  0.28334373  0.46821250  0.38299248  1  1.583841  0.000178  0.214009  0.567961  0.000228  4.212659  -0.001
C  C203  1  0.09968619  0.41471091  0.38299607  1  1.572503  0.000207  0.214961  0.571187  0.000226  4.210058  -0.001
C  C204  1  0.68872505  0.88339540  0.28890978  1  -0.073244  0.010624  -0.007156  -0.039931  0.007205  3.928514  0.008
C  C205  1  0.60018435  0.90546799  0.28891361  1  -0.017615  0.010543  -0.008421  -0.041506  0.007214  3.929809  0.008
C  C206  1  0.81129259  0.59457888  0.71112209  1  -0.074391  0.010624  -0.007084  -0.038159  0.007212  3.927889  0.008
C  C207  1  0.89983518  0.61665081  0.71113287  1  0.002504  0.010522  -0.00859  -0.044696  0.007212  3.933013  0.008
C  C208  1  0.31127482  0.11660447  0.71109084  1  -0.073335  0.010624  -0.007137  -0.03993  0.007205  3.928541  0.008
C  C209  1  0.39981515  0.09453252  0.71108625  1  -0.017587  0.010543  -0.008396  -0.041458  0.007214  3.929817  0.008
C  C210  1  0.18870710  0.40541962  0.28887647  1  -0.07468  0.010624  -0.007111  -0.038182  0.007212  3.92785  0.008
C  C211  1  0.10016504  0.38334884  0.28886613  1  0.002499  0.010522  -0.008626  -0.044801  0.007211  3.9331  0.008
C  C212  1  0.68822904  0.82906594  0.20007465  1  0.002926  0.001771  -0.086658  -0.098348  0.001156  3.973079  0.001
C  C213  1  0.51183382  0.87101960  0.20008358  1  -0.044141  0.001782  -0.086266  -0.097651  0.001155  3.97245  0.001
C  C214  1  0.81177934  0.62901472  0.79994806  1  -0.004397  0.001764  -0.086615  -0.09918  0.001151  3.973516  0.001
C  C215  1  0.98819791  0.67096464  0.79997615  1  -0.030064  0.001784  -0.086548  -0.097134  0.001156  3.972407  0.001
C  C216  1  0.31177102  0.17093305  0.79992579  1  0.002985  0.001771  -0.086663  -0.098335  0.001156  3.973106  0.001
C  C217  1  0.48816548  0.12898123  0.79991590  1  -0.044089  0.001782  -0.086302  -0.097719  0.001155  3.972619  0.001
C  C218  1  0.18821943  0.37098440  0.20005040  1  -0.004161  0.001763  -0.086591  -0.099156  0.001151  3.973481  0.001
C  C219  1  0.01180212  0.32903646  0.20002360  1  -0.02996  0.001784  -0.086556  -0.097106  0.001156  3.972372  0.001
C  C220  1  0.60008723  0.79542575  0.11179898  1  -0.050016  0.001523  -0.096155  -0.09446  0.000955  4.043914  0.001
C  C221  1  0.51167433  0.81641653  0.11179704  1  -0.07522  0.001527  -0.096228  -0.09448  0.000956  4.042609  0.001
C  C222  1  0.89991704  0.68360053  0.88823343  1  -0.048145  0.001524  -0.096238  -0.095196  0.000957  4.044437  0.001
C  C223  1  0.98834955  0.70460071  0.88825690  1  -0.066558  0.001513  -0.095962  -0.093919  0.00095  4.04306  0.001
C  C224  1  0.39991318  0.20457471  0.88820153  1  -0.050055  0.001523  -0.096152  -0.094473  0.000955  4.04398  0.001
C  C225  1  0.48832517  0.18358454  0.88820339  1  -0.07522  0.001527  -0.0962  -0.09445  0.000956  4.042714  0.001
C  C226  1  0.10008227  0.31639917  0.11176492  1  -0.048103  0.001524  -0.096216  -0.09516  0.000956  4.044392  0.001
C  C227  1  0.01165047  0.29539983  0.11174229  1  -0.066655  0.001513  -0.095964  -0.093891  0.000949  4.042968  0.001
C  C228  1  0.02073109  0.96571690  0.29929050  1  0.439682  -0.000167  -0.159721  -0.107181  -0.000161  3.982881  0.0
C  C229  1  0.27852817  0.83357463  0.29925814  1  0.427614  -0.000168  -0.159182  -0.104303  -0.000161  3.982663  0.0
C  C230  1  0.47928825  0.66641898  0.70072618  1  0.380794  -0.000169  -0.159681  -0.10731  -0.000161  3.98221  0.0
C  C231  1  0.22142570  0.53429426  0.70072350  1  0.434381  -0.000168  -0.159135  -0.105481  -0.000161  3.984061  0.0
C  C232  1  0.97926878  0.03428241  0.70070956  1  0.439656  -0.000167  -0.159706  -0.107174  -0.000161  3.982988  0.0
C  C233  1  0.72147166  0.16642622  0.70074066  1  0.427589  -0.000168  -0.159132  -0.104268  -0.000161  3.982541  0.0
C  C234  1  0.52071124  0.33358154  0.29927368  1  0.380797  -0.000169  -0.159725  -0.107428  -0.000161  3.982171  0.0
C  C235  1  0.77857326  0.46570453  0.29927535  1  0.434261  -0.000168  -0.159126  -0.10548  -0.000161  3.984001  0.0
N  N236  1  0.97922808  0.13003517  0.55575691  1  -1.206971  0.086756  -0.346029  -0.225494  0.057177  3.598744  0.075
N  N237  1  0.57647862  0.92570231  0.55574982  1  -1.21138  0.086726  -0.346452  -0.226145  0.057202  3.599412  0.075
N  N238  1  0.52074373  0.57433053  0.44425609  1  -1.211376  0.086734  -0.346499  -0.225711  0.057212  3.597489  0.075
N  N239  1  0.92347039  0.36998652  0.44422559  1  -1.212113  0.086732  -0.346468  -0.225821  0.057134  3.600395  0.075
N  N240  1  0.02077034  0.86996416  0.44424317  1  -1.207026  0.086757  -0.346015  -0.225463  0.057177  3.598843  0.075
N  N241  1  0.42352376  0.07429927  0.44425111  1  -1.211246  0.086726  -0.346481  -0.226225  0.057202  3.599518  0.075
N  N242  1  0.47925740  0.42566795  0.55574244  1  -1.211315  0.086733  -0.346476  -0.225688  0.057211  3.597397  0.075
N  N243  1  0.07652910  0.63001343  0.55577370  1  -1.21186  0.086732  -0.346449  -0.2258  0.057135  3.600358  0.075
N  N244  1  0.95369584  0.44204615  0.77487403  1  -1.151115  -0.000147  -0.249126  -0.17924  -0.000196  3.618802  0.0
N  N245  1  0.82119676  0.83280890  0.77488218  1  -1.165328  -0.000146  -0.249655  -0.180393  -0.000196  3.619202  0.0
N  N246  1  0.54626454  0.66718538  0.22509925  1  -1.167228  -0.000146  -0.249264  -0.179718  -0.000196  3.620012  0.0
N  N247  1  0.67878828  0.05794391  0.22513225  1  -1.162411  -0.000147  -0.249112  -0.180132  -0.000196  3.620362  0.0
N  N248  1  0.04630183  0.55795390  0.22512397  1  -1.151086  -0.000147  -0.249109  -0.179213  -0.000196  3.618874  0.0
N  N249  1  0.17880490  0.16719242  0.22511848  1  -1.165305  -0.000146  -0.24969  -0.180461  -0.000196  3.619285  0.0
N  N250  1  0.45373803  0.33281589  0.77490206  1  -1.167172  -0.000146  -0.249201  -0.179751  -0.000195  3.619967  0.0
N  N251  1  0.32121106  0.94205537  0.77486848  1  -1.161432  -0.000147  -0.249178  -0.180187  -0.000196  3.620028  0.0
O  O252  1  0.12743264  0.49806278  0.85661507  1  -1.097707  4.5e-05  -0.257681  -0.411391  2.7e-05  2.092808  0.0
O  O253  1  0.72920212  0.85848380  0.85661311  1  -1.101244  4.5e-05  -0.258891  -0.413718  2.7e-05  2.091377  0.0
O  O254  1  0.37251765  0.64146415  0.14333550  1  -1.099129  4.5e-05  -0.25771  -0.411367  2.7e-05  2.091229  0.0
O  O255  1  0.77078885  0.00188736  0.14340052  1  -1.1026  4.5e-05  -0.258647  -0.41319  2.7e-05  2.09118  0.0
O  O256  1  0.87256845  0.50193837  0.14338333  1  -1.097817  4.5e-05  -0.257649  -0.411322  2.7e-05  2.0932  0.0
O  O257  1  0.27079882  0.14151725  0.14338729  1  -1.101285  4.5e-05  -0.258832  -0.41369  2.7e-05  2.091385  0.0
O  O258  1  0.62748040  0.35853695  0.85666494  1  -1.099389  4.5e-05  -0.257667  -0.411312  2.7e-05  2.091692  0.0
O  O259  1  0.22921231  0.99810956  0.85659926  1  -1.102631  4.5e-05  -0.258633  -0.413191  2.7e-05  2.091584  0.0
O  O260  1  0.79021987  0.39322347  0.73827568  1  -1.107515  0.000156  -0.2492  -0.402209  9.6e-05  2.126386  0.0
O  O261  1  0.94811363  0.84499216  0.73832109  1  -1.083374  0.000155  -0.248893  -0.401655  9.6e-05  2.129207  0.0
O  O262  1  0.70976057  0.65504865  0.26168521  1  -1.107887  0.000156  -0.248869  -0.401844  9.6e-05  2.125988  0.0
O  O263  1  0.55188527  0.10677795  0.26168853  1  -1.086356  0.000156  -0.248673  -0.401538  9.6e-05  2.129078  0.0
O  O264  1  0.20977798  0.60677626  0.26172270  1  -1.1074  0.000156  -0.249203  -0.402193  9.6e-05  2.126331  0.0
O  O265  1  0.05188716  0.15500935  0.26168187  1  -1.083294  0.000155  -0.248886  -0.401721  9.6e-05  2.12887  0.0
O  O266  1  0.29024220  0.34495173  0.73831593  1  -1.107806  0.000156  -0.248876  -0.401796  9.6e-05  2.126107  0.0
O  O267  1  0.44811404  0.89322345  0.73831151  1  -1.088257  0.000156  -0.248684  -0.401566  9.6e-05  2.129052  0.0
O  O268  1  0.86145283  0.95008526  0.38805659  1  -1.115738  0.09353  -0.314409  -0.535405  0.059501  2.40254  0.085
O  O269  1  0.52657097  0.93790501  0.38801550  1  -1.114275  0.093586  -0.314936  -0.536505  0.059566  2.40245  0.085
O  O270  1  0.63853546  0.56206596  0.61199717  1  -1.114029  0.093517  -0.314373  -0.535657  0.059497  2.402883  0.085
O  O271  1  0.97339451  0.54994850  0.61197622  1  -1.118773  0.093555  -0.314846  -0.537214  0.059574  2.402473  0.085
O  O272  1  0.13854704  0.04991461  0.61194403  1  -1.115768  0.093527  -0.314431  -0.535441  0.059499  2.402537  0.085
O  O273  1  0.47342943  0.06209544  0.61198501  1  -1.114308  0.093584  -0.314936  -0.536508  0.059564  2.402482  0.085
O  O274  1  0.36146476  0.43793257  0.38800071  1  -1.114073  0.093515  -0.314409  -0.535726  0.059496  2.402922  0.085
O  O275  1  0.02660498  0.45005089  0.38802252  1  -1.118793  0.093554  -0.314849  -0.537247  0.059574  2.402495  0.085
O  O276  1  0.77999657  0.90283441  0.44696279  1  -1.177497  0.001039  -0.305297  -0.543923  -0.000164  2.229567  0.001
O  O277  1  0.66688283  0.04411796  0.44689707  1  -1.186497  0.001037  -0.305134  -0.543499  -0.000163  2.227614  0.001
O  O278  1  0.72001107  0.45592157  0.55312239  1  -1.192104  0.001037  -0.305683  -0.544288  -0.000165  2.22905  0.001
O  O279  1  0.83303742  0.59723614  0.55310092  1  -1.185584  0.001041  -0.305596  -0.544641  -0.000161  2.227376  0.001
O  O280  1  0.22000258  0.09716519  0.55303756  1  -1.177448  0.001039  -0.3053  -0.543915  -0.000164  2.229635  0.001
O  O281  1  0.33311792  0.95588285  0.55310238  1  -1.18651  0.001037  -0.305151  -0.543536  -0.000163  2.227667  0.001
O  O282  1  0.27998972  0.54407656  0.44687719  1  -1.192017  0.001037  -0.305651  -0.544243  -0.000165  2.229047  0.001
O  O283  1  0.16696135  0.40276467  0.44689923  1  -1.185525  0.00104  -0.305626  -0.544674  -0.000162  2.22735  0.001
O  O284  1  0.04044904  0.03786330  0.39398602  1  -1.169858  -0.00039  -0.422714  -0.477584  -0.000664  2.417963  0.001
O  O285  1  0.35351865  0.85614294  0.39396590  1  -1.168792  -0.00038  -0.422812  -0.478162  -0.000656  2.41722  0.001
O  O286  1  0.45956581  0.64384819  0.60602161  1  -1.163096  -0.000389  -0.423237  -0.478165  -0.000666  2.41906  0.001
O  O287  1  0.14644630  0.46214257  0.60601330  1  -1.167102  -0.000373  -0.422874  -0.477795  -0.000652  2.417121  0.001
O  O288  1  0.95955084  0.96213657  0.60601460  1  -1.169836  -0.00039  -0.422708  -0.47758  -0.000664  2.418007  0.001
O  O289  1  0.64648244  0.14385821  0.60603250  1  -1.16877  -0.00038  -0.422888  -0.478259  -0.000656  2.417241  0.001
O  O290  1  0.54043388  0.35615200  0.39397864  1  -1.163094  -0.000389  -0.423217  -0.478115  -0.000666  2.419031  0.001
O  O291  1  0.85355506  0.53785572  0.39398854  1  -1.167084  -0.000373  -0.422919  -0.477889  -0.000652  2.417093  0.001
