# generated using pymatgen
data_CuH3C4(NCl)2
_symmetry_space_group_name_H-M   'P 1'
_cell_length_a   3.70805347
_cell_length_b   12.58762145
_cell_length_c   12.77963086
_cell_angle_alpha   90.00010018
_cell_angle_beta   90.00007250
_cell_angle_gamma   91.85797817
_symmetry_Int_Tables_number   1
_chemical_formula_structural   CuH3C4(NCl)2
_chemical_formula_sum   'Cu4 H12 C16 N8 Cl8'
_cell_volume   596.18299910
_cell_formula_units_Z   4
loop_
 _symmetry_equiv_pos_site_id
 _symmetry_equiv_pos_as_xyz
  1  'x, y, z'
loop_
 _atom_site_type_symbol
 _atom_site_label
 _atom_site_symmetry_multiplicity
 _atom_site_fract_x
 _atom_site_fract_y
 _atom_site_fract_z
 _atom_site_occupancy
 _atom_site_hle17_bader_spin_density
 _atom_site_hle17_ddec_charge
 _atom_site_hle17_ddec_spin_density
 _atom_site_hle17_ddec_sum_bond_order
 _atom_site_hle17_magmom
 _atom_site_hse06_10hf_bader_spin_density
 _atom_site_hse06_10hf_ddec_charge
 _atom_site_hse06_10hf_ddec_spin_density
 _atom_site_hse06_10hf_ddec_sum_bond_order
 _atom_site_hse06_10hf_magmom
 _atom_site_hse06_bader_spin_density
 _atom_site_hse06_ddec_charge
 _atom_site_hse06_ddec_spin_density
 _atom_site_hse06_ddec_sum_bond_order
 _atom_site_hse06_magmom
 _atom_site_pbe_bader_spin_density
 _atom_site_pbe_cm5_charge
 _atom_site_pbe_ddec_charge
 _atom_site_pbe_ddec_spin_density
 _atom_site_pbe_ddec_sum_bond_order
 _atom_site_pbe_magmom
Cu  Cu0  1  0.45568002  0.68220632  0.65373165  1  0  0.457937  0  1.989973  0  0  0.348638  0  2.488534  0  0  0.3362  0  2.44992  0  0  0.452207  0.36065  0  2.511038  0
Cu  Cu1  1  0.45569273  0.18220546  0.84627118  1  0  0.457966  0  1.989838  0  0  0.348712  0  2.488406  0  0  0.33638  0  2.449764  0  0  0.452211  0.36072  0  2.510983  0
Cu  Cu2  1  0.54432284  0.31779434  0.34627019  1  0  0.457992  0  1.989916  0  0  0.348693  0  2.488486  0  0  0.336253  0  2.449879  0  0  0.452229  0.3607  0  2.511003  0
Cu  Cu3  1  0.54431546  0.81779442  0.15373065  1  0  0.457979  0  1.989936  0  0  0.348697  0  2.488496  0  0  0.336297  0  2.449876  0  0  0.45223  0.360697  0  2.51105  0
H  H4  1  0.21190698  0.38528430  0.92278840  1  0  0.100449  0  0.975621  0  0  0.102208  0  1.050285  0  0  0.106524  0  1.047003  0  0  0.100433  0.099023  0  1.052908  0
H  H5  1  0.21190990  0.88528190  0.57720610  1  0  0.100403  0  0.975591  0  0  0.10219  0  1.050233  0  0  0.106509  0  1.046945  0  0  0.1004  0.099006  0  1.052847  0
H  H6  1  0.78808538  0.61472030  0.07721109  1  0  0.100416  0  0.975613  0  0  0.102196  0  1.050268  0  0  0.106515  0  1.046981  0  0  0.100404  0.099011  0  1.052887  0
H  H7  1  0.78809278  0.11471637  0.42278947  1  0  0.100441  0  0.975605  0  0  0.102215  0  1.050262  0  0  0.106534  0  1.046973  0  0  0.100445  0.099032  0  1.052879  0
H  H8  1  0.68746002  0.29120185  0.64311914  1  0  0.093172  0  0.976216  0  0  0.094749  0  1.051217  0  0  0.098747  0  1.048094  0  0  0.100343  0.091749  0  1.05378  0
H  H9  1  0.68744232  0.79119748  0.85688008  1  0  0.093222  0  0.976101  0  0  0.094753  0  1.051137  0  0  0.098753  0  1.048011  0  0  0.100377  0.091752  0  1.053686  0
H  H10  1  0.31254841  0.70880121  0.35688348  1  0  0.093215  0  0.97612  0  0  0.09475  0  1.05115  0  0  0.098748  0  1.048028  0  0  0.100334  0.091749  0  1.053706  0
H  H11  1  0.31253596  0.20879913  0.14311941  1  0  0.093175  0  0.976207  0  0  0.094748  0  1.051229  0  0  0.09875  0  1.048101  0  0  0.10033  0.091743  0  1.053791  0
H  H12  1  0.70657006  0.47859369  0.58100250  1  0  0.101975  0  0.953402  0  0  0.106011  0  1.021604  0  0  0.110141  0  1.018503  0  0  0.108596  0.102899  0  1.024182  0
H  H13  1  0.70656879  0.97858947  0.91899785  1  0  0.101958  0  0.953403  0  0  0.105936  0  1.021697  0  0  0.110072  0  1.018589  0  0  0.108563  0.102823  0  1.024288  0
H  H14  1  0.29344365  0.52140779  0.41900090  1  0  0.101957  0  0.953358  0  0  0.106014  0  1.021531  0  0  0.110148  0  1.018425  0  0  0.108567  0.102896  0  1.024116  0
H  H15  1  0.29342028  0.02140717  0.08100007  1  0  0.102002  0  0.953387  0  0  0.105986  0  1.021628  0  0  0.11012  0  1.018521  0  0  0.108576  0.102874  0  1.024216  0
C  C16  1  0.33892276  0.51074625  0.81088624  1  0  0.219416  0  3.801154  0  0  0.215246  0  4.075687  0  0  0.22067  0  4.092802  0  0  0.125566  0.211299  0  4.064626  0
C  C17  1  0.33892932  0.01074351  0.68911075  1  0  0.219314  0  3.801186  0  0  0.21519  0  4.075683  0  0  0.220617  0  4.092803  0  0  0.125553  0.211245  0  4.064622  0
C  C18  1  0.66107752  0.48925599  0.18911403  1  0  0.219287  0  3.801299  0  0  0.215116  0  4.075824  0  0  0.22053  0  4.092936  0  0  0.125528  0.211168  0  4.064757  0
C  C19  1  0.66107611  0.98925556  0.31088717  1  0  0.219377  0  3.801101  0  0  0.215237  0  4.075622  0  0  0.220662  0  4.092744  0  0  0.125565  0.211289  0  4.064563  0
C  C20  1  0.32403968  0.40634280  0.84652646  1  0  0.010133  0  3.670823  0  0  -0.026851  0  3.926732  0  0  -0.025198  0  3.940251  0  0  0.026758  -0.028496  0  3.918692  0
C  C21  1  0.32404308  0.90634292  0.65347126  1  0  0.010261  0  3.670675  0  0  -0.026768  0  3.926547  0  0  -0.025109  0  3.940051  0  0  0.026804  -0.02841  0  3.918485  0
C  C22  1  0.67596324  0.59365865  0.15347225  1  0  0.010256  0  3.670537  0  0  -0.026772  0  3.926401  0  0  -0.025114  0  3.939914  0  0  0.02679  -0.028409  0  3.918347  0
C  C23  1  0.67595701  0.09365694  0.34652432  1  0  0.010153  0  3.67095  0  0  -0.026877  0  3.926813  0  0  -0.025213  0  3.940327  0  0  0.026745  -0.028519  0  3.918756  0
C  C24  1  0.58442041  0.35371792  0.69237334  1  0  0.070017  0  3.652252  0  0  0.035665  0  3.915705  0  0  0.039367  0  3.926003  0  0  0.032515  0.032799  0  3.909829  0
C  C25  1  0.58441102  0.85371905  0.80762439  1  0  0.069864  0  3.652384  0  0  0.035519  0  3.915885  0  0  0.039233  0  3.926165  0  0  0.032398  0.032659  0  3.909993  0
C  C26  1  0.41558748  0.64627798  0.30762850  1  0  0.069923  0  3.65252  0  0  0.035582  0  3.915942  0  0  0.039286  0  3.926239  0  0  0.032483  0.032722  0  3.910045  0
C  C27  1  0.41557553  0.14627997  0.19237276  1  0  0.070036  0  3.652346  0  0  0.035618  0  3.915789  0  0  0.039336  0  3.926072  0  0  0.032517  0.032757  0  3.909899  0
C  C28  1  0.59400241  0.45788509  0.65733878  1  0  0.106761  0  3.62433  0  0  0.077147  0  3.87784  0  0  0.082048  0  3.888061  0  0  0.041292  0.073019  0  3.872641  0
C  C29  1  0.59400359  0.95788155  0.84265914  1  0  0.106909  0  3.624299  0  0  0.077348  0  3.877789  0  0  0.082229  0  3.888053  0  0  0.04137  0.073218  0  3.872612  0
C  C30  1  0.40601142  0.54211798  0.34266071  1  0  0.106839  0  3.624461  0  0  0.077253  0  3.877885  0  0  0.082126  0  3.888131  0  0  0.041392  0.073131  0  3.872676  0
C  C31  1  0.40598830  0.04211669  0.15733956  1  0  0.106691  0  3.624391  0  0  0.077165  0  3.877911  0  0  0.082063  0  3.888138  0  0  0.0413  0.073039  0  3.872726  0
N  N32  1  0.46949688  0.53859938  0.71593207  1  0  -0.307265  0  3.366268  0  0  -0.248907  0  3.668434  0  0  -0.247679  0  3.667167  0  0  -0.358291  -0.250532  0  3.669372  0
N  N33  1  0.46950395  0.03859840  0.78406581  1  0  -0.30729  0  3.366153  0  0  -0.248981  0  3.668347  0  0  -0.24777  0  3.667122  0  0  -0.358298  -0.250622  0  3.66933  0
N  N34  1  0.53051131  0.46140050  0.28406899  1  0  -0.307255  0  3.366311  0  0  -0.248951  0  3.668543  0  0  -0.247681  0  3.667226  0  0  -0.358333  -0.250584  0  3.669488  0
N  N35  1  0.53049339  0.96140066  0.21593211  1  0  -0.307211  0  3.366158  0  0  -0.248919  0  3.668358  0  0  -0.247698  0  3.667113  0  0  -0.358282  -0.250554  0  3.669328  0
N  N36  1  0.44713973  0.32655950  0.78714128  1  0  -0.228494  0  3.368615  0  0  -0.162396  0  3.670765  0  0  -0.160099  0  3.670255  0  0  -0.354285  -0.164845  0  3.671465  0
N  N37  1  0.44713241  0.82655730  0.71285790  1  0  -0.228541  0  3.368638  0  0  -0.162373  0  3.670704  0  0  -0.160066  0  3.670153  0  0  -0.354289  -0.164818  0  3.671363  0
N  N38  1  0.55285785  0.67344273  0.21286290  1  0  -0.228549  0  3.368586  0  0  -0.162363  0  3.67064  0  0  -0.160056  0  3.670103  0  0  -0.354287  -0.164814  0  3.671323  0
N  N39  1  0.55286223  0.17344174  0.28714080  1  0  -0.228559  0  3.368656  0  0  -0.162342  0  3.670701  0  0  -0.160051  0  3.670169  0  0  -0.354291  -0.164784  0  3.671361  0
Cl  Cl40  1  0.95437933  0.68111087  0.53770414  1  0  -0.562589  0  1.238071  0  0  -0.491245  0  1.605242  0  0  -0.509319  0  1.579076  0  0  -0.31602  -0.477894  0  1.621874  0
Cl  Cl41  1  0.95439264  0.18111180  0.96230046  1  0  -0.56262  0  1.238055  0  0  -0.491253  0  1.605177  0  0  -0.509391  0  1.579075  0  0  -0.316006  -0.477875  0  1.621845  0
Cl  Cl42  1  0.04562071  0.31888819  0.46229769  1  0  -0.562597  0  1.238051  0  0  -0.49125  0  1.605221  0  0  -0.509338  0  1.579085  0  0  -0.316018  -0.477886  0  1.621859  0
Cl  Cl43  1  0.04560734  0.81888647  0.03770373  1  0  -0.562626  0  1.23809  0  0  -0.49126  0  1.605198  0  0  -0.509364  0  1.579076  0  0  -0.316018  -0.477881  0  1.62185  0
Cl  Cl44  1  0.19579592  0.61094440  0.89089879  1  0  -0.061494  0  1.487893  0  0  -0.050277  0  1.768617  0  0  -0.051435  0  1.760566  0  0  0.040901  -0.0497  0  1.774354  0
Cl  Cl45  1  0.19581858  0.11094475  0.60909755  1  0  -0.061456  0  1.487829  0  0  -0.050268  0  1.768587  0  0  -0.051434  0  1.760537  0  0  0.0409  -0.049683  0  1.77433  0
Cl  Cl46  1  0.80419638  0.38905941  0.10909992  1  0  -0.061469  0  1.487927  0  0  -0.050254  0  1.768666  0  0  -0.05141  0  1.76062  0  0  0.040899  -0.049674  0  1.774407  0
Cl  Cl47  1  0.80419231  0.88905513  0.39090038  1  0  -0.061481  0  1.487832  0  0  -0.05027  0  1.768551  0  0  -0.051436  0  1.760502  0  0  0.040895  -0.049685  0  1.774291  0
