# generated using pymatgen
data_SrH9C11N3O5
_symmetry_space_group_name_H-M   'P 1'
_cell_length_a   6.75064972
_cell_length_b   12.86620603
_cell_length_c   14.69600000
_cell_angle_alpha   112.85431037
_cell_angle_beta   90.00000000
_cell_angle_gamma   90.00000000
_symmetry_Int_Tables_number   1
_chemical_formula_structural   SrH9C11N3O5
_chemical_formula_sum   'Sr4 H36 C44 N12 O20'
_cell_volume   1176.21955865
_cell_formula_units_Z   4
loop_
 _symmetry_equiv_pos_site_id
 _symmetry_equiv_pos_as_xyz
  1  'x, y, z'
loop_
 _atom_site_type_symbol
 _atom_site_label
 _atom_site_symmetry_multiplicity
 _atom_site_fract_x
 _atom_site_fract_y
 _atom_site_fract_z
 _atom_site_occupancy
 _atom_site_hle17_bader_spin_density
 _atom_site_hle17_ddec_charge
 _atom_site_hle17_ddec_spin_density
 _atom_site_hle17_ddec_sum_bond_order
 _atom_site_hle17_magmom
 _atom_site_hse06_10hf_bader_spin_density
 _atom_site_hse06_10hf_ddec_charge
 _atom_site_hse06_10hf_ddec_spin_density
 _atom_site_hse06_10hf_ddec_sum_bond_order
 _atom_site_hse06_10hf_magmom
 _atom_site_hse06_bader_spin_density
 _atom_site_hse06_ddec_charge
 _atom_site_hse06_ddec_spin_density
 _atom_site_hse06_ddec_sum_bond_order
 _atom_site_hse06_magmom
 _atom_site_pbe_bader_charge
 _atom_site_pbe_bader_spin_density
 _atom_site_pbe_cm5_charge
 _atom_site_pbe_ddec_charge
 _atom_site_pbe_ddec_spin_density
 _atom_site_pbe_ddec_sum_bond_order
 _atom_site_pbe_magmom
Sr  Sr0  1  0.55194687  0.84652776  0.03471152  1  0  1.628523  0  1.085561  0  0  1.492951  0  1.438102  0  0  1.533022  0  1.394344  0  1.682092  0  0.967739  1.463514  0  1.468909  0
Sr  Sr1  1  0.05194907  0.65347605  0.96529073  1  0  1.628548  0  1.085559  0  0  1.492956  0  1.438128  0  0  1.533036  0  1.39437  0  1.682082  0  0.967738  1.46352  0  1.468936  0
Sr  Sr2  1  0.44805317  0.15347394  0.96528879  1  0  1.628522  0  1.085587  0  0  1.492948  0  1.438122  0  0  1.533019  0  1.394369  0  1.682092  0  0.967736  1.463516  0  1.468926  0
Sr  Sr3  1  0.94805245  0.34652480  0.03470997  1  0  1.628533  0  1.085604  0  0  1.492926  0  1.438196  0  0  1.533033  0  1.394381  0  1.682083  0  0.967731  1.463488  0  1.469005  0
H  H4  1  0.92508281  0.18452955  0.73751850  1  0  0.138251  0  0.905796  0  0  0.150337  0  0.963498  0  0  0.153189  0  0.961608  0  0.130649  0  0.119184  0.148301  0  0.964925  0
H  H5  1  0.42509686  0.31546582  0.26248251  1  0  0.138223  0  0.905924  0  0  0.1503  0  0.96361  0  0  0.153148  0  0.961727  0  0.130682  0  0.119192  0.148265  0  0.965035  0
H  H6  1  0.07491279  0.81546962  0.26248026  1  0  0.138244  0  0.905784  0  0  0.150322  0  0.963487  0  0  0.153172  0  0.961599  0  0.130623  0  0.119183  0.148285  0  0.964918  0
H  H7  1  0.57491059  0.68452914  0.73751822  1  0  0.138199  0  0.905869  0  0  0.150272  0  0.963561  0  0  0.153122  0  0.961675  0  0.130642  0  0.119151  0.148236  0  0.964992  0
H  H8  1  0.02396066  0.29400354  0.70628429  1  0  0.118038  0  0.915957  0  0  0.1341  0  0.971784  0  0  0.13587  0  0.970733  0  0.068255  0  0.113224  0.13275  0  0.972701  0
H  H9  1  0.52396290  0.20599014  0.29371751  1  0  0.118098  0  0.915796  0  0  0.134084  0  0.971702  0  0  0.135854  0  0.970647  0  0.068155  0  0.11325  0.132729  0  0.972627  0
H  H10  1  0.97603642  0.70599394  0.29371254  1  0  0.118046  0  0.915895  0  0  0.134087  0  0.971746  0  0  0.135856  0  0.970696  0  0.068206  0  0.113228  0.13275  0  0.972646  0
H  H11  1  0.47603714  0.79400481  0.70628458  1  0  0.118102  0  0.915849  0  0  0.1341  0  0.971729  0  0  0.135869  0  0.970679  0  0.068206  0  0.113238  0.132767  0  0.972626  0
H  H12  1  0.73792897  0.02639643  0.61287122  1  0  0.117815  0  0.944134  0  0  0.12735  0  1.005533  0  0  0.13098  0  1.004097  0  0.101412  0  0.109039  0.124575  0  1.006939  0
H  H13  1  0.23792525  0.47359810  0.38712610  1  0  0.117841  0  0.944181  0  0  0.127406  0  1.005542  0  0  0.13106  0  1.004079  0  0.101377  0  0.109071  0.124636  0  1.006941  0
H  H14  1  0.26207700  0.97359937  0.38712776  1  0  0.117837  0  0.944165  0  0  0.127346  0  1.005583  0  0  0.13101  0  1.004111  0  0.101378  0  0.109058  0.124599  0  1.006954  0
H  H15  1  0.76208368  0.52640107  0.61287335  1  0  0.117835  0  0.944157  0  0  0.127341  0  1.005584  0  0  0.131015  0  1.004098  0  0.101408  0  0.109055  0.124583  0  1.00697  0
H  H16  1  0.67035029  0.92010561  0.43271544  1  0  0.067695  0  0.936004  0  0  0.079321  0  0.995941  0  0  0.081433  0  0.994868  0  0.06054  0  0.110421  0.077752  0  0.996808  0
H  H17  1  0.17033916  0.57989146  0.56728044  1  0  0.06766  0  0.936064  0  0  0.079314  0  0.995956  0  0  0.081423  0  0.994895  0  0.060421  0  0.110438  0.077747  0  0.996822  0
H  H18  1  0.32966160  0.07989018  0.56728354  1  0  0.067656  0  0.936024  0  0  0.079267  0  0.995964  0  0  0.081372  0  0.994916  0  0.059953  0  0.110431  0.0777  0  0.996829  0
H  H19  1  0.82966384  0.42011024  0.43271647  1  0  0.067681  0  0.93607  0  0  0.079293  0  0.995996  0  0  0.081395  0  0.994956  0  0.059936  0  0.110434  0.077727  0  0.996859  0
H  H20  1  0.95600576  0.29930458  0.53939941  1  0  0.104065  0  0.963761  0  0  0.115654  0  1.022277  0  0  0.118087  0  1.023113  0  0.086396  0  0.103229  0.113869  0  1.021881  0
H  H21  1  0.45601092  0.20069584  0.46060400  1  0  0.10405  0  0.963743  0  0  0.115652  0  1.022249  0  0  0.118082  0  1.023089  0  0.086406  0  0.103243  0.113872  0  1.021848  0
H  H22  1  0.04398391  0.70069374  0.46059839  1  0  0.103978  0  0.963778  0  0  0.115568  0  1.022323  0  0  0.117998  0  1.023163  0  0.086345  0  0.103197  0.113808  0  1.0219  0
H  H23  1  0.54398171  0.79930333  0.53939885  1  0  0.104  0  0.963809  0  0  0.115574  0  1.022356  0  0  0.118008  0  1.023193  0  0.086373  0  0.103208  0.11379  0  1.021958  0
H  H24  1  0.88599620  0.18019340  0.36220834  1  0  0.066726  0  0.967838  0  0  0.070256  0  1.042761  0  0  0.07214  0  1.041987  0  0.092423  0  0.107537  0.068829  0  1.04343  0
H  H25  1  0.38599840  0.31981208  0.63779475  1  0  0.066762  0  0.967801  0  0  0.070293  0  1.042729  0  0  0.072174  0  1.041961  0  0.092681  0  0.107539  0.068869  0  1.043384  0
H  H26  1  0.11399792  0.81980492  0.63778946  1  0  0.066765  0  0.967862  0  0  0.07027  0  1.042816  0  0  0.072151  0  1.042046  0  0.092401  0  0.107541  0.068842  0  1.043484  0
H  H27  1  0.61399423  0.68019215  0.36220777  1  0  0.066754  0  0.96781  0  0  0.070268  0  1.042755  0  0  0.072149  0  1.041984  0  0.092369  0  0.107551  0.068843  0  1.043416  0
H  H28  1  0.51978700  0.20229923  0.77225699  1  0  0.329622  0  0.911075  0  0  0.309324  0  0.973161  0  0  0.31891  0  0.96489  0  0.559  0  0.31342  0.302582  0  0.978984  0
H  H29  1  0.01979513  0.29770541  0.22774582  1  0  0.329627  0  0.91114  0  0  0.309425  0  0.973111  0  0  0.319009  0  0.964842  0  0.55897  0  0.313471  0.302684  0  0.978932  0
H  H30  1  0.48021007  0.79770247  0.22774264  1  0  0.329598  0  0.911168  0  0  0.309312  0  0.97325  0  0  0.318898  0  0.964982  0  0.558981  0  0.313428  0.302571  0  0.97907  0
H  H31  1  0.98020787  0.70229629  0.77225653  1  0  0.329615  0  0.91115  0  0  0.309404  0  0.973144  0  0  0.318989  0  0.964873  0  0.558972  0  0.313473  0.302662  0  0.978968  0
H  H32  1  0.41808716  0.98554675  0.23304653  1  0  0.380316  0  0.949449  0  0  0.336097  0  1.036705  0  0  0.34799  0  1.019553  0  0.642765  0  0.277282  0.327746  0  1.048726  0
H  H33  1  0.91809089  0.51445369  0.76695594  1  0  0.38029  0  0.949469  0  0  0.33609  0  1.036716  0  0  0.347981  0  1.019565  0  0.642774  0  0.277259  0.327738  0  1.048737  0
H  H34  1  0.58190991  0.01445410  0.76695417  1  0  0.380269  0  0.94949  0  0  0.33606  0  1.036748  0  0  0.347952  0  1.019595  0  0.642735  0  0.277269  0.32771  0  1.048766  0
H  H35  1  0.08191063  0.48554717  0.23304408  1  0  0.380246  0  0.949523  0  0  0.336037  0  1.036783  0  0  0.34793  0  1.01963  0  0.642738  0  0.277244  0.327686  0  1.048804  0
H  H36  1  0.63229618  0.97436606  0.28023753  1  0  0.385911  0  0.931642  0  0  0.343993  0  1.014012  0  0  0.355047  0  0.998176  0  0.624693  0  0.280227  0.336228  0  1.025118  0
H  H37  1  0.13229541  0.52563438  0.71976221  1  0  0.385901  0  0.931667  0  0  0.343989  0  1.014025  0  0  0.355043  0  0.998188  0  0.624696  0  0.280227  0.336224  0  1.025131  0
H  H38  1  0.36770535  0.02563227  0.71976163  1  0  0.385859  0  0.931731  0  0  0.343955  0  1.014073  0  0  0.355008  0  0.998237  0  0.624661  0  0.280218  0.33619  0  1.025178  0
H  H39  1  0.86770463  0.47436732  0.28023741  1  0  0.385872  0  0.931708  0  0  0.343961  0  1.014067  0  0  0.355017  0  0.998228  0  0.624691  0  0.280217  0.336196  0  1.025173  0
C  C40  1  0.55432146  0.59305678  0.90455441  1  0  0.666169  0  3.933594  0  0  0.617442  0  4.22679  0  0  0.652419  0  4.215943  0  1.601374  0  0.222455  0.593662  0  4.233451  0
C  C41  1  0.05431329  0.90694873  0.09544841  1  0  0.666051  0  3.933884  0  0  0.617315  0  4.227133  0  0  0.652293  0  4.216289  0  1.600918  0  0.222365  0.593535  0  4.233795  0
C  C42  1  0.44568303  0.40694492  0.09544657  1  0  0.666107  0  3.93369  0  0  0.617384  0  4.226881  0  0  0.652361  0  4.216039  0  1.601347  0  0.222411  0.593605  0  4.233542  0
C  C43  1  0.94568379  0.09305044  0.90455103  1  0  0.666136  0  3.933611  0  0  0.617408  0  4.226842  0  0  0.652386  0  4.216001  0  1.601035  0  0.222435  0.593628  0  4.233505  0
C  C44  1  0.56548927  0.47119934  0.83951540  1  0  0.012835  0  3.692222  0  0  0.003928  0  3.958871  0  0  0.002406  0  3.9754  0  0.396865  0  0.092565  0.004777  0  3.94794  0
C  C45  1  0.06548407  0.02880277  0.16048926  1  0  0.012911  0  3.692238  0  0  0.00395  0  3.958935  0  0  0.002427  0  3.975468  0  0.397157  0  0.09258  0.004794  0  3.94801  0
C  C46  1  0.43451077  0.52879983  0.16048404  1  0  0.012748  0  3.692353  0  0  0.003864  0  3.958962  0  0  0.002342  0  3.975491  0  0.396846  0  0.092559  0.004712  0  3.948034  0
C  C47  1  0.93451301  0.97119808  0.83951348  1  0  0.012814  0  3.692389  0  0  0.003875  0  3.959046  0  0  0.002351  0  3.975579  0  0.397114  0  0.092518  0.004721  0  3.948121  0
C  C48  1  0.44904418  0.38003400  0.83647634  1  0  0.03088  0  3.640037  0  0  0.015874  0  3.903576  0  0  0.016514  0  3.919167  0  0.408258  0  0.10153  0.015366  0  3.893307  0
C  C49  1  0.94904346  0.11997234  0.16352771  1  0  0.030651  0  3.6402  0  0  0.015744  0  3.903712  0  0  0.016379  0  3.919308  0  0.408493  0  0.101429  0.015243  0  3.893435  0
C  C50  1  0.55095586  0.61996770  0.16352396  1  0  0.030825  0  3.640079  0  0  0.015836  0  3.90363  0  0  0.016477  0  3.919222  0  0.408237  0  0.101492  0.015327  0  3.893362  0
C  C51  1  0.05095361  0.88002936  0.83647463  1  0  0.030564  0  3.640171  0  0  0.015664  0  3.903675  0  0  0.016301  0  3.919268  0  0.40827  0  0.101408  0.015156  0  3.893408  0
C  C52  1  0.26115116  0.36552591  0.88350150  1  0  0.647702  0  3.9851  0  0  0.599741  0  4.284052  0  0  0.633779  0  4.27402  0  1.608181  0  0.215826  0.576576  0  4.290285  0
C  C53  1  0.76115192  0.13448379  0.11650370  1  0  0.647609  0  3.985281  0  0  0.599613  0  4.28426  0  0  0.633654  0  4.274229  0  1.608157  0  0.215845  0.576446  0  4.290491  0
C  C54  1  0.73885036  0.63447579  0.11649948  1  0  0.647714  0  3.985238  0  0  0.599748  0  4.284183  0  0  0.633785  0  4.27415  0  1.608284  0  0.215825  0.576584  0  4.290416  0
C  C55  1  0.23884812  0.86551875  0.88350029  1  0  0.647739  0  3.985244  0  0  0.599756  0  4.284194  0  0  0.633797  0  4.274158  0  1.608446  0  0.215838  0.576591  0  4.290426  0
C  C56  1  0.72830175  0.31858740  0.75253687  1  0  0.387023  0  3.69484  0  0  0.357388  0  3.974885  0  0  0.371651  0  3.988047  0  0.986401  0  0.230339  0.348076  0  3.965606  0
C  C57  1  0.22830543  0.18141471  0.24746575  1  0  0.387088  0  3.694726  0  0  0.357386  0  3.974862  0  0  0.371623  0  3.988054  0  0.98634  0  0.23035  0.348084  0  3.965572  0
C  C58  1  0.27169681  0.68141261  0.24746218  1  0  0.386965  0  3.694868  0  0  0.357336  0  3.974925  0  0  0.371579  0  3.988114  0  0.986426  0  0.230325  0.348024  0  3.96565  0
C  C59  1  0.77169609  0.81858699  0.75253659  1  0  0.387038  0  3.694846  0  0  0.357422  0  3.974883  0  0  0.371684  0  3.988046  0  0.98636  0  0.230375  0.34811  0  3.965609  0
C  C60  1  0.89295701  0.24082523  0.69897978  1  0  -0.252524  0  3.683047  0  0  -0.294755  0  3.922933  0  0  -0.296839  0  3.929404  0  -0.025997  0  -0.138559  -0.293248  0  3.9185  0
C  C61  1  0.39296514  0.25917183  0.30102249  1  0  -0.252558  0  3.683038  0  0  -0.294676  0  3.922872  0  0  -0.296749  0  3.929346  0  -0.025941  0  -0.13861  -0.293169  0  3.918437  0
C  C62  1  0.10703859  0.75917310  0.30101802  1  0  -0.252516  0  3.683025  0  0  -0.294718  0  3.922891  0  0  -0.296797  0  3.929367  0  -0.026015  0  -0.138584  -0.293222  0  3.918458  0
C  C63  1  0.60703787  0.74082650  0.69897939  1  0  -0.252585  0  3.683183  0  0  -0.294705  0  3.922986  0  0  -0.296789  0  3.929456  0  -0.025943  0  -0.13858  -0.29321  0  3.918551  0
C  C64  1  0.85140694  0.17259566  0.59119264  1  0  0.160645  0  3.730171  0  0  0.175161  0  3.968278  0  0  0.179186  0  3.991141  0  -0.103934  0  0.011553  0.172661  0  3.952567  0
C  C65  1  0.35140766  0.32740393  0.40880912  1  0  0.160561  0  3.73025  0  0  0.175099  0  3.968266  0  0  0.179127  0  3.991123  0  -0.104014  0  0.011552  0.1726  0  3.952555  0
C  C66  1  0.14859162  0.82740182  0.40880555  1  0  0.160602  0  3.730159  0  0  0.17514  0  3.968198  0  0  0.179168  0  3.991063  0  -0.104458  0  0.011583  0.172638  0  3.952502  0
C  C67  1  0.64859238  0.67259777  0.59119323  1  0  0.160569  0  3.730229  0  0  0.175075  0  3.968284  0  0  0.179103  0  3.991149  0  -0.104419  0  0.011533  0.172573  0  3.952581  0
C  C68  1  0.77118947  0.06393053  0.55960717  1  0  -0.180719  0  3.71641  0  0  -0.200585  0  3.96804  0  0  -0.208265  0  3.989967  0  -0.037803  0  -0.088741  -0.195522  0  3.953376  0
C  C69  1  0.27118871  0.43606652  0.44039101  1  0  -0.180749  0  3.716447  0  0  -0.200658  0  3.968082  0  0  -0.208359  0  3.989995  0  -0.038173  0  -0.088725  -0.195599  0  3.953417  0
C  C70  1  0.22881353  0.93606526  0.44039112  1  0  -0.180763  0  3.716319  0  0  -0.200601  0  3.967935  0  0  -0.208314  0  3.989848  0  -0.038147  0  -0.088733  -0.195562  0  3.953261  0
C  C71  1  0.72881725  0.56393349  0.55960872  1  0  -0.180714  0  3.716334  0  0  -0.200562  0  3.967962  0  0  -0.20828  0  3.989866  0  -0.03818  0  -0.088725  -0.195513  0  3.953293  0
C  C72  1  0.73481075  0.00456135  0.45938170  1  0  0.116699  0  3.763252  0  0  0.089405  0  4.019884  0  0  0.095327  0  4.038254  0  0.551812  0  0.040511  0.085669  0  4.007289  0
C  C73  1  0.23480407  0.49543740  0.54061569  1  0  0.116766  0  3.763298  0  0  0.089465  0  4.019935  0  0  0.095384  0  4.038309  0  0.552379  0  0.040514  0.085728  0  4.007344  0
C  C74  1  0.26519521  0.99543276  0.54061670  1  0  0.116772  0  3.763137  0  0  0.089504  0  4.019758  0  0  0.09542  0  4.038136  0  0.552875  0  0.040485  0.085766  0  4.007172  0
C  C75  1  0.76519894  0.50456515  0.45938354  1  0  0.116692  0  3.763211  0  0  0.089449  0  4.019808  0  0  0.095363  0  4.038188  0  0.552823  0  0.040479  0.085711  0  4.007221  0
C  C76  1  0.89271259  0.21529249  0.51885868  1  0  -0.188165  0  3.731783  0  0  -0.205832  0  3.979501  0  0  -0.213865  0  4.002579  0  0.025514  0  -0.091629  -0.200537  0  3.963908  0
C  C77  1  0.39271775  0.28471047  0.48114423  1  0  -0.188084  0  3.73181  0  0  -0.205766  0  3.979511  0  0  -0.213797  0  4.002586  0  0.025553  0  -0.09168  -0.200476  0  3.963914  0
C  C78  1  0.10727856  0.78470584  0.48113911  1  0  -0.188017  0  3.731757  0  0  -0.205696  0  3.97946  0  0  -0.213728  0  4.002538  0  0.026049  0  -0.091663  -0.200422  0  3.963853  0
C  C79  1  0.60727932  0.71529207  0.51885909  1  0  -0.188043  0  3.731754  0  0  -0.205695  0  3.979463  0  0  -0.213732  0  4.002538  0  0.025933  0  -0.091643  -0.200401  0  3.96387  0
C  C80  1  0.85356821  0.14929720  0.42011925  1  0  0.115974  0  3.756977  0  0  0.086308  0  4.020932  0  0  0.092522  0  4.03854  0  0.395515  0  0.037959  0.082364  0  4.008891  0
C  C81  1  0.35357041  0.35070407  0.57988173  1  0  0.11584  0  3.756912  0  0  0.086174  0  4.020882  0  0  0.092387  0  4.038489  0  0.394824  0  0.037958  0.082232  0  4.008845  0
C  C82  1  0.14642739  0.85069859  0.57987837  1  0  0.115908  0  3.756877  0  0  0.086262  0  4.020846  0  0  0.092475  0  4.038452  0  0.395738  0  0.038012  0.082317  0  4.00881  0
C  C83  1  0.64642667  0.64929763  0.42011926  1  0  0.115979  0  3.756876  0  0  0.086323  0  4.020845  0  0  0.092538  0  4.038452  0  0.395269  0  0.038015  0.082379  0  4.008808  0
N  N84  1  0.73591583  0.43058498  0.78504113  1  0  -0.429898  0  3.084624  0  0  -0.383713  0  3.346119  0  0  -0.398141  0  3.35919  0  -1.157311  0  -0.315541  -0.373834  0  3.337172  0
N  N85  1  0.23591063  0.06941545  0.21496228  1  0  -0.429924  0  3.084522  0  0  -0.383678  0  3.346024  0  0  -0.3981  0  3.359106  0  -1.15728  0  -0.31551  -0.373799  0  3.337075  0
N  N86  1  0.26408569  0.56941504  0.21495792  1  0  -0.429862  0  3.084633  0  0  -0.383676  0  3.346126  0  0  -0.398098  0  3.359206  0  -1.157271  0  -0.315538  -0.373796  0  3.33718  0
N  N87  1  0.76408497  0.93058625  0.78504075  1  0  -0.429879  0  3.084586  0  0  -0.383686  0  3.346083  0  0  -0.398113  0  3.359156  0  -1.157311  0  -0.315513  -0.373805  0  3.337137  0
N  N88  1  0.55634052  0.28503857  0.78098633  1  0  -0.355681  0  3.374054  0  0  -0.297676  0  3.6066  0  0  -0.31386  0  3.618957  0  -1.282768  0  -0.363996  -0.286751  0  3.598171  0
N  N89  1  0.05634421  0.21496523  0.21901687  1  0  -0.355544  0  3.374126  0  0  -0.297663  0  3.606682  0  0  -0.31384  0  3.619049  0  -1.282781  0  -0.363985  -0.286741  0  3.598249  0
N  N90  1  0.44365655  0.71496229  0.21901233  1  0  -0.3555  0  3.37408  0  0  -0.297561  0  3.606696  0  0  -0.313736  0  3.619053  0  -1.282761  0  -0.363936  -0.286635  0  3.598265  0
N  N91  1  0.94365435  0.78503478  0.78098491  1  0  -0.355412  0  3.374016  0  0  -0.297568  0  3.606556  0  0  -0.313756  0  3.618924  0  -1.282764  0  -0.36394  -0.286641  0  3.598126  0
N  N92  1  0.77388995  0.04560755  0.39005684  1  0  -0.320829  0  3.154625  0  0  -0.263923  0  3.40784  0  0  -0.277216  0  3.422943  0  -1.229546  0  -0.313194  -0.254954  0  3.397515  0
N  N93  1  0.27388623  0.45439625  0.60994432  1  0  -0.320769  0  3.154575  0  0  -0.263883  0  3.407794  0  0  -0.277173  0  3.422896  0  -1.229142  0  -0.313223  -0.254915  0  3.39747  0
N  N94  1  0.22611157  0.95438908  0.60994311  1  0  -0.320818  0  3.15441  0  0  -0.263935  0  3.407625  0  0  -0.277224  0  3.422725  0  -1.229732  0  -0.313221  -0.254966  0  3.397299  0
N  N95  1  0.72611085  0.54560967  0.39005674  1  0  -0.320824  0  3.15453  0  0  -0.263949  0  3.407741  0  0  -0.277238  0  3.422839  0  -1.229186  0  -0.313214  -0.254981  0  3.397418  0
O  O96  1  0.69269925  0.65710961  0.89631463  1  0  -0.728622  0  1.970839  0  0  -0.668377  0  2.212113  0  0  -0.694477  0  2.20232  0  -1.219848  0  -0.389929  -0.649884  0  2.218243  0
O  O97  1  0.19269404  0.84289505  0.10368587  1  0  -0.728563  0  1.971001  0  0  -0.668267  0  2.212194  0  0  -0.69437  0  2.202401  0  -1.219635  0  -0.389844  -0.649773  0  2.218323  0
O  O98  1  0.30730375  0.34289209  0.10368500  1  0  -0.728543  0  1.970842  0  0  -0.668281  0  2.212072  0  0  -0.694387  0  2.202278  0  -1.219786  0  -0.389877  -0.649788  0  2.2182  0
O  O99  1  0.80730303  0.15710496  0.89631455  1  0  -0.728565  0  1.970844  0  0  -0.668251  0  2.211985  0  0  -0.694355  0  2.202192  0  -1.219844  0  -0.389857  -0.649756  0  2.218115  0
O  O100  1  0.41979367  0.62818875  0.96955155  1  0  -0.717426  0  2.054455  0  0  -0.658737  0  2.299051  0  0  -0.685524  0  2.290949  0  -1.215261  0  -0.389746  -0.639884  0  2.30403  0
O  O101  1  0.91978998  0.87181590  0.03045099  1  0  -0.71738  0  2.054508  0  0  -0.65871  0  2.299162  0  0  -0.685488  0  2.291038  0  -1.215297  0  -0.389752  -0.639857  0  2.304143  0
O  O102  1  0.58020934  0.37181295  0.03044944  1  0  -0.7174  0  2.054471  0  0  -0.658732  0  2.299089  0  0  -0.685513  0  2.290969  0  -1.215266  0  -0.38976  -0.639879  0  2.304069  0
O  O103  1  0.08021006  0.12818495  0.96954835  1  0  -0.717424  0  2.054414  0  0  -0.658769  0  2.299074  0  0  -0.685544  0  2.290939  0  -1.215248  0  -0.389794  -0.63992  0  2.304061  0
O  O104  1  0.13833483  0.44589264  0.91982637  1  0  -0.719857  0  2.003897  0  0  -0.663798  0  2.250873  0  0  -0.689361  0  2.241046  0  -1.222056  0  -0.381401  -0.645824  0  2.257201  0
O  O105  1  0.63833708  0.05411285  0.08017604  1  0  -0.719713  0  2.003937  0  0  -0.663656  0  2.250951  0  0  -0.689212  0  2.2411  0  -1.221853  0  -0.381343  -0.645682  0  2.257276  0
O  O106  1  0.86166521  0.55410906  0.08017462  1  0  -0.71986  0  2.004018  0  0  -0.663782  0  2.250967  0  0  -0.689358  0  2.241161  0  -1.222034  0  -0.381396  -0.645809  0  2.257296  0
O  O107  1  0.36166297  0.94589054  0.91982688  1  0  -0.719754  0  2.003844  0  0  -0.663703  0  2.250853  0  0  -0.689257  0  2.240999  0  -1.221986  0  -0.381341  -0.645729  0  2.25718  0
O  O108  1  0.23287388  0.26849273  0.88522482  1  0  -0.713264  0  2.01784  0  0  -0.657467  0  2.257457  0  0  -0.68322  0  2.249677  0  -1.206231  0  -0.37107  -0.639393  0  2.262269  0
O  O109  1  0.73287612  0.23151361  0.11477856  1  0  -0.713288  0  2.017888  0  0  -0.657476  0  2.257521  0  0  -0.683228  0  2.249736  0  -1.206406  0  -0.371119  -0.639402  0  2.262333  0
O  O110  1  0.76712616  0.73150897  0.11477549  1  0  -0.713246  0  2.017845  0  0  -0.657448  0  2.257476  0  0  -0.683197  0  2.249697  0  -1.206277  0  -0.371055  -0.639374  0  2.262287  0
O  O111  1  0.26712392  0.76849062  0.88522465  1  0  -0.713317  0  2.018007  0  0  -0.657518  0  2.257647  0  0  -0.683267  0  2.249863  0  -1.20636  0  -0.371109  -0.639446  0  2.262459  0
O  O112  1  0.52694928  0.93139595  0.23282764  1  0  -0.867945  0  1.963206  0  0  -0.809811  0  2.169521  0  0  -0.829748  0  2.136725  0  -1.321454  0  -0.610243  -0.795518  0  2.192136  0
O  O113  1  0.02695148  0.56860449  0.76717278  1  0  -0.867914  0  1.963252  0  0  -0.809816  0  2.169488  0  0  -0.829762  0  2.136717  0  -1.321466  0  -0.610216  -0.795523  0  2.1921  0
O  O114  1  0.47304928  0.06860406  0.76717073  1  0  -0.867848  0  1.963268  0  0  -0.809728  0  2.169538  0  0  -0.829678  0  2.136767  0  -1.321415  0  -0.610215  -0.795439  0  2.192152  0
O  O115  1  0.97305004  0.43139637  0.23282792  1  0  -0.867837  0  1.963324  0  0  -0.809749  0  2.16958  0  0  -0.829697  0  2.136793  0  -1.321457  0  -0.610202  -0.795456  0  2.192192  0
