# generated using pymatgen
data_ZnH8C9N3O5
_symmetry_space_group_name_H-M   'P 1'
_cell_length_a   7.19754330
_cell_length_b   10.69951675
_cell_length_c   14.80400000
_cell_angle_alpha   90.00000000
_cell_angle_beta   90.00000000
_cell_angle_gamma   100.90302175
_symmetry_Int_Tables_number   1
_chemical_formula_structural   ZnH8C9N3O5
_chemical_formula_sum   'Zn4 H32 C36 N12 O20'
_cell_volume   1119.48000809
_cell_formula_units_Z   4
loop_
 _symmetry_equiv_pos_site_id
 _symmetry_equiv_pos_as_xyz
  1  'x, y, z'
loop_
 _atom_site_type_symbol
 _atom_site_label
 _atom_site_symmetry_multiplicity
 _atom_site_fract_x
 _atom_site_fract_y
 _atom_site_fract_z
 _atom_site_occupancy
 _atom_site_hle17_bader_spin_density
 _atom_site_hle17_ddec_charge
 _atom_site_hle17_ddec_spin_density
 _atom_site_hle17_ddec_sum_bond_order
 _atom_site_hle17_magmom
 _atom_site_hse06_10hf_bader_spin_density
 _atom_site_hse06_10hf_ddec_charge
 _atom_site_hse06_10hf_ddec_spin_density
 _atom_site_hse06_10hf_ddec_sum_bond_order
 _atom_site_hse06_10hf_magmom
 _atom_site_hse06_bader_spin_density
 _atom_site_hse06_ddec_charge
 _atom_site_hse06_ddec_spin_density
 _atom_site_hse06_ddec_sum_bond_order
 _atom_site_hse06_magmom
 _atom_site_pbe_bader_charge
 _atom_site_pbe_bader_spin_density
 _atom_site_pbe_cm5_charge
 _atom_site_pbe_ddec_charge
 _atom_site_pbe_ddec_spin_density
 _atom_site_pbe_ddec_sum_bond_order
 _atom_site_pbe_magmom
Zn  Zn0  1  0.51340164  0.96549363  0.69285936  1  0  1.096248  0  1.759549  0  0  0.91347  0  2.233259  0  0  0.962593  0  2.17193  0  1.294437  0  0.697071  0.878929  0  2.27584  0
Zn  Zn1  1  0.48660024  0.53450681  0.19285734  1  0  1.096216  0  1.759593  0  0  0.913441  0  2.233277  0  0  0.962563  0  2.171951  0  1.294581  0  0.697068  0.878897  0  2.275856  0
Zn  Zn2  1  0.48659880  0.03450761  0.30714199  1  0  1.096221  0  1.759552  0  0  0.913449  0  2.233248  0  0  0.96257  0  2.171923  0  1.294606  0  0.697072  0.878906  0  2.27583  0
Zn  Zn3  1  0.51339828  0.46549253  0.80714064  1  0  1.096215  0  1.759557  0  0  0.913434  0  2.233265  0  0  0.962559  0  2.171941  0  1.294429  0  0.697071  0.878894  0  2.275845  0
H  H4  1  0.63947180  0.85186264  0.56133815  1  0  0.416915  0  0.898473  0  0  0.384564  0  0.965765  0  0  0.395865  0  0.949354  0  0.657537  0  0.285354  0.376557  0  0.977399  0
H  H5  1  0.36053035  0.64813875  0.06133477  1  0  0.417047  0  0.898304  0  0  0.384695  0  0.965599  0  0  0.395995  0  0.949187  0  0.65751  0  0.285414  0.376688  0  0.977233  0
H  H6  1  0.36053308  0.14813955  0.43866658  1  0  0.417023  0  0.898331  0  0  0.384664  0  0.965639  0  0  0.395966  0  0.949226  0  0.65751  0  0.285401  0.376657  0  0.977274  0
H  H7  1  0.63946731  0.35186249  0.93866455  1  0  0.417071  0  0.898262  0  0  0.38473  0  0.965538  0  0  0.39603  0  0.949127  0  0.657506  0  0.285435  0.376723  0  0.977173  0
H  H8  1  0.55692633  0.73869613  0.63451094  1  0  0.443625  0  0.856799  0  0  0.410619  0  0.922494  0  0  0.42226  0  0.905721  0  0.662049  0  0.290318  0.402308  0  0.93443  0
H  H9  1  0.44307501  0.76130240  0.13450959  1  0  0.443602  0  0.856844  0  0  0.410603  0  0.922525  0  0  0.422244  0  0.905752  0  0.662103  0  0.290299  0.402291  0  0.934462  0
H  H10  1  0.44307662  0.26130416  0.36549108  1  0  0.443604  0  0.856835  0  0  0.410599  0  0.922529  0  0  0.422241  0  0.905755  0  0.662098  0  0.290302  0.402288  0  0.934466  0
H  H11  1  0.55692409  0.23869408  0.86549176  1  0  0.443607  0  0.856824  0  0  0.410604  0  0.922512  0  0  0.422245  0  0.905739  0  0.662041  0  0.290299  0.402293  0  0.934449  0
H  H12  1  0.89367241  0.28418836  0.43374088  1  0  0.117031  0  0.9425  0  0  0.127255  0  1.001682  0  0  0.130097  0  1.00039  0  0.112542  0  0.111855  0.125233  0  1.002417  0
H  H13  1  0.10634386  0.21581084  0.93373953  1  0  0.117116  0  0.942455  0  0  0.127319  0  1.001646  0  0  0.130164  0  1.000349  0  0.113011  0  0.111873  0.125297  0  1.002381  0
H  H14  1  0.10632974  0.71580908  0.56625912  1  0  0.11708  0  0.942456  0  0  0.127291  0  1.001644  0  0  0.130133  0  1.000351  0  0.112489  0  0.111883  0.125269  0  1.002378  0
H  H15  1  0.89366380  0.78419136  0.06625709  1  0  0.117052  0  0.94251  0  0  0.127299  0  1.001657  0  0  0.130126  0  1.000385  0  0.112517  0  0.111876  0.125292  0  1.002372  0
H  H16  1  0.00716048  0.53082143  0.66707174  1  0  0.119785  0  0.966304  0  0  0.121213  0  1.039104  0  0  0.125616  0  1.035619  0  0.11423  0  0.110572  0.117959  0  1.041798  0
H  H17  1  0.99283391  0.96917710  0.16706971  1  0  0.11967  0  0.966245  0  0  0.12109  0  1.039068  0  0  0.125492  0  1.035585  0  0.114273  0  0.110539  0.117836  0  1.041759  0
H  H18  1  0.99284332  0.46917696  0.33292894  1  0  0.119806  0  0.966287  0  0  0.121222  0  1.039101  0  0  0.125627  0  1.035616  0  0.114414  0  0.110592  0.117973  0  1.041785  0
H  H19  1  0.00716680  0.03082509  0.83292759  1  0  0.119741  0  0.966271  0  0  0.121177  0  1.039077  0  0  0.125582  0  1.035588  0  0.114561  0  0.110552  0.117921  0  1.041772  0
H  H20  1  0.62206584  0.20072095  0.55243853  1  0  0.121439  0  0.962043  0  0  0.129079  0  1.027122  0  0  0.132359  0  1.022673  0  0.20271  0  0.146576  0.126555  0  1.030581  0
H  H21  1  0.37793343  0.29928205  0.05243448  1  0  0.121399  0  0.962022  0  0  0.12904  0  1.027111  0  0  0.13232  0  1.02266  0  0.202655  0  0.146561  0.126515  0  1.030574  0
H  H22  1  0.37793877  0.79928029  0.44756552  1  0  0.121314  0  0.962121  0  0  0.12906  0  1.027079  0  0  0.132342  0  1.022625  0  0.202657  0  0.146544  0.126534  0  1.030545  0
H  H23  1  0.62206204  0.70071634  0.94756417  1  0  0.121328  0  0.962083  0  0  0.129063  0  1.027056  0  0  0.132345  0  1.022604  0  0.202649  0  0.14656  0.126536  0  1.030524  0
H  H24  1  0.10921466  0.30657286  0.71673669  1  0  0.126476  0  0.924128  0  0  0.13429  0  0.984592  0  0  0.137274  0  0.98137  0  0.208243  0  0.147897  0.132038  0  0.98696  0
H  H25  1  0.89080310  0.19341682  0.21674345  1  0  0.126472  0  0.92397  0  0  0.134323  0  0.984396  0  0  0.137307  0  0.981173  0  0.207605  0  0.147879  0.132063  0  0.986764  0
H  H26  1  0.89080144  0.69341982  0.28325925  1  0  0.126494  0  0.923939  0  0  0.134338  0  0.984365  0  0  0.137324  0  0.981143  0  0.207669  0  0.147881  0.13208  0  0.986732  0
H  H27  1  0.10919627  0.80658061  0.78325790  1  0  0.126481  0  0.923972  0  0  0.134327  0  0.984395  0  0  0.137313  0  0.981172  0  0.207644  0  0.147891  0.132069  0  0.986759  0
H  H28  1  0.92422500  0.91523082  0.58186369  1  0  0.126209  0  0.966641  0  0  0.134215  0  1.028092  0  0  0.138517  0  1.025356  0  0.143651  0  0.109672  0.131161  0  1.030075  0
H  H29  1  0.07577982  0.58478008  0.08186098  1  0  0.126152  0  0.966639  0  0  0.134131  0  1.02815  0  0  0.138434  0  1.025414  0  0.143949  0  0.109634  0.131086  0  1.030103  0
H  H30  1  0.07577395  0.08477994  0.41814037  1  0  0.126145  0  0.966705  0  0  0.134168  0  1.028142  0  0  0.138474  0  1.025399  0  0.14397  0  0.109639  0.131116  0  1.030118  0
H  H31  1  0.92422164  0.41522972  0.91813767  1  0  0.126147  0  0.966738  0  0  0.134192  0  1.028147  0  0  0.138493  0  1.025415  0  0.143703  0  0.109657  0.131137  0  1.03013  0
H  H32  1  0.43892555  0.85501501  0.98564374  1  0  0.117373  0  0.951358  0  0  0.126817  0  1.012196  0  0  0.130612  0  1.009989  0  0.100552  0  0.109269  0.124081  0  1.013951  0
H  H33  1  0.56106366  0.64497495  0.48564239  1  0  0.117278  0  0.951277  0  0  0.126709  0  1.012203  0  0  0.130505  0  1.009997  0  0.100653  0  0.109201  0.123972  0  1.013964  0
H  H34  1  0.56106558  0.14497291  0.01435626  1  0  0.117298  0  0.951337  0  0  0.12671  0  1.012263  0  0  0.130505  0  1.01006  0  0.100672  0  0.109214  0.123972  0  1.01402  0
H  H35  1  0.43891743  0.35501677  0.51435558  1  0  0.117298  0  0.951404  0  0  0.126806  0  1.012176  0  0  0.130602  0  1.009968  0  0.100528  0  0.10925  0.124057  0  1.013949  0
C  C36  1  0.94815002  0.39678188  0.55611524  1  0  0.167048  0  3.77785  0  0  0.157873  0  4.027805  0  0  0.161486  0  4.052741  0  0.215347  0  0.09434  0.155415  0  4.011072  0
C  C37  1  0.05185871  0.10322017  0.05611456  1  0  0.167022  0  3.778061  0  0  0.157825  0  4.028008  0  0  0.161437  0  4.052951  0  0.21536  0  0.094334  0.155367  0  4.011274  0
C  C38  1  0.05186100  0.60321746  0.44388476  1  0  0.167035  0  3.777896  0  0  0.157884  0  4.027788  0  0  0.1615  0  4.052725  0  0.215386  0  0.094388  0.155426  0  4.011056  0
C  C39  1  0.94814141  0.89678488  0.94388273  1  0  0.167128  0  3.777824  0  0  0.157949  0  4.027782  0  0  0.161565  0  4.052717  0  0.215408  0  0.094399  0.155492  0  4.011052  0
C  C40  1  0.93894776  0.37881374  0.46257971  1  0  -0.115897  0  3.709157  0  0  -0.135376  0  3.959392  0  0  -0.138373  0  3.980493  0  -0.033664  0  -0.07849  -0.133215  0  3.945094  0
C  C41  1  0.06106487  0.12118735  0.96257701  1  0  -0.116033  0  3.709419  0  0  -0.135487  0  3.959658  0  0  -0.138483  0  3.980745  0  -0.034  0  -0.078534  -0.133328  0  3.945362  0
C  C42  1  0.06106021  0.62118464  0.53742164  1  0  -0.115881  0  3.70918  0  0  -0.135356  0  3.95944  0  0  -0.138347  0  3.980525  0  -0.033661  0  -0.078519  -0.133198  0  3.945145  0
C  C43  1  0.93893942  0.87881770  0.03742029  1  0  -0.115881  0  3.709368  0  0  -0.135402  0  3.959644  0  0  -0.13838  0  3.980727  0  -0.033547  0  -0.078505  -0.133257  0  3.945346  0
C  C44  1  0.00860198  0.51689465  0.59418333  1  0  -0.11167  0  3.720828  0  0  -0.133284  0  3.975775  0  0  -0.136419  0  3.995918  0  0.130106  0  -0.079151  -0.131394  0  3.962699  0
C  C45  1  0.99139878  0.98310674  0.09417928  1  0  -0.111559  0  3.720934  0  0  -0.133132  0  3.975868  0  0  -0.136271  0  3.996026  0  0.130031  0  -0.079139  -0.131242  0  3.962795  0
C  C46  1  0.99140600  0.48310374  0.40581735  1  0  -0.111775  0  3.720841  0  0  -0.13338  0  3.975798  0  0  -0.136512  0  3.995927  0  0.129847  0  -0.079245  -0.131492  0  3.962724  0
C  C47  1  0.00860439  0.01689926  0.90581735  1  0  -0.111668  0  3.721047  0  0  -0.133274  0  3.975941  0  0  -0.136414  0  3.996096  0  0.129432  0  -0.079199  -0.131382  0  3.962861  0
C  C48  1  0.72876242  0.20111785  0.60384220  1  0  0.186713  0  3.633828  0  0  0.114729  0  3.908086  0  0  0.129474  0  3.919092  0  1.005359  0  0.169194  0.104999  0  3.900835  0
C  C49  1  0.27124075  0.29888419  0.10384085  1  0  0.18678  0  3.633683  0  0  0.114795  0  3.90792  0  0  0.12954  0  3.91893  0  1.005378  0  0.169241  0.105063  0  3.900672  0
C  C50  1  0.27124192  0.79888243  0.39615982  1  0  0.186785  0  3.633635  0  0  0.114732  0  3.907889  0  0  0.129477  0  3.918896  0  1.005532  0  0.169256  0.105002  0  3.900637  0
C  C51  1  0.72875830  0.70111705  0.89615847  1  0  0.186862  0  3.633682  0  0  0.114813  0  3.907922  0  0  0.129558  0  3.918929  0  1.005937  0  0.169243  0.105083  0  3.900671  0
C  C52  1  0.97639532  0.25443309  0.69006890  1  0  0.168106  0  3.59301  0  0  0.113303  0  3.859709  0  0  0.124601  0  3.870464  0  0.950577  0  0.168318  0.105976  0  3.852388  0
C  C53  1  0.02361597  0.24556324  0.19007228  1  0  0.168174  0  3.592917  0  0  0.113324  0  3.85962  0  0  0.124622  0  3.870377  0  0.951225  0  0.168405  0.106004  0  3.852296  0
C  C54  1  0.02361489  0.74556339  0.30992975  1  0  0.16805  0  3.592946  0  0  0.113227  0  3.859624  0  0  0.124523  0  3.87038  0  0.951166  0  0.168371  0.105907  0  3.852296  0
C  C55  1  0.97638308  0.75443800  0.80992705  1  0  0.168205  0  3.592884  0  0  0.113379  0  3.859559  0  0  0.124676  0  3.870314  0  0.951675  0  0.168409  0.10606  0  3.852232  0
C  C56  1  0.02534017  0.97875414  0.53995609  1  0  -0.174848  0  3.659976  0  0  -0.195855  0  3.919547  0  0  -0.201982  0  3.935225  0  -0.242745  0  -0.088979  -0.191581  0  3.908222  0
C  C57  1  0.97466022  0.52125581  0.03995407  1  0  -0.174671  0  3.659886  0  0  -0.195596  0  3.919462  0  0  -0.20172  0  3.935137  0  0.042024  0  -0.088924  -0.191318  0  3.908142  0
C  C58  1  0.97466017  0.02125661  0.46004661  1  0  -0.174689  0  3.659932  0  0  -0.195628  0  3.919483  0  0  -0.201754  0  3.935156  0  0.042026  0  -0.088925  -0.191352  0  3.90816  0
C  C59  1  0.02533846  0.47875400  0.96004458  1  0  -0.174848  0  3.660079  0  0  -0.195827  0  3.919665  0  0  -0.201955  0  3.935343  0  -0.242317  0  -0.088952  -0.191553  0  3.90834  0
C  C60  1  0.22099407  0.01137690  0.57656850  1  0  0.686386  0  3.908029  0  0  0.63898  0  4.201933  0  0  0.673876  0  4.193043  0  1.573563  0  0.206637  0.615336  0  4.207113  0
C  C61  1  0.77900654  0.48863086  0.07656647  1  0  0.686429  0  3.907755  0  0  0.638863  0  4.201893  0  0  0.673758  0  4.193007  0  1.572811  0  0.20659  0.615217  0  4.207074  0
C  C62  1  0.77900824  0.98863100  0.42343488  1  0  0.686526  0  3.90767  0  0  0.638959  0  4.201795  0  0  0.673856  0  4.192904  0  1.572776  0  0.206646  0.615316  0  4.206974  0
C  C63  1  0.22099385  0.51137514  0.92343286  1  0  0.686535  0  3.907726  0  0  0.638975  0  4.201852  0  0  0.673874  0  4.19296  0  1.572844  0  0.206652  0.615331  0  4.207031  0
C  C64  1  0.47518485  0.95564722  0.96809443  1  0  -0.163459  0  3.672714  0  0  -0.183131  0  3.93031  0  0  -0.188935  0  3.946356  0  -0.0094  0  -0.083154  -0.179334  0  3.919751  0
C  C65  1  0.52480046  0.54434369  0.46809241  1  0  -0.163156  0  3.672451  0  0  -0.182926  0  3.930123  0  0  -0.188729  0  3.946169  0  -0.120885  0  -0.083148  -0.179128  0  3.919555  0
C  C66  1  0.52480682  0.04434259  0.03190692  1  0  -0.163186  0  3.672639  0  0  -0.182909  0  3.930269  0  0  -0.188712  0  3.946318  0  -0.120856  0  -0.083178  -0.179112  0  3.919706  0
C  C67  1  0.47517839  0.45564994  0.53190557  1  0  -0.163393  0  3.672701  0  0  -0.183123  0  3.930278  0  0  -0.188927  0  3.946323  0  -0.009327  0  -0.08319  -0.179316  0  3.91972  0
C  C68  1  0.47268376  0.98622770  0.87045258  1  0  0.6741  0  3.92246  0  0  0.626894  0  4.214772  0  0  0.66112  0  4.207323  0  1.562756  0  0.201203  0.603686  0  4.218936  0
C  C69  1  0.52730513  0.51376607  0.37044920  1  0  0.674064  0  3.922662  0  0  0.62692  0  4.214892  0  0  0.661145  0  4.207446  0  1.562749  0  0.201285  0.603711  0  4.219055  0
C  C70  1  0.52731038  0.01376593  0.12955012  1  0  0.673994  0  3.922761  0  0  0.62685  0  4.214983  0  0  0.661077  0  4.207539  0  1.562715  0  0.201257  0.603642  0  4.219147  0
C  C71  1  0.47268232  0.48622851  0.62954810  1  0  0.674058  0  3.922643  0  0  0.626914  0  4.214843  0  0  0.661141  0  4.207396  0  1.562766  0  0.201254  0.603707  0  4.219004  0
N  N72  1  0.71959560  0.11667771  0.66936639  1  0  -0.278886  0  3.259593  0  0  -0.204034  0  3.573539  0  0  -0.222423  0  3.58497  0  -0.791772  0  -0.240987  -0.191772  0  3.566273  0
N  N73  1  0.28040869  0.38332339  0.16936639  1  0  -0.278748  0  3.259593  0  0  -0.203881  0  3.573504  0  0  -0.222271  0  3.584938  0  -0.791797  0  -0.240896  -0.19162  0  3.566239  0
N  N74  1  0.28041125  0.88332163  0.33063496  1  0  -0.278721  0  3.259525  0  0  -0.203875  0  3.573488  0  0  -0.222266  0  3.584924  0  -0.792049  0  -0.240899  -0.191615  0  3.566223  0
N  N75  1  0.71958897  0.61667785  0.83063429  1  0  -0.278714  0  3.259547  0  0  -0.20385  0  3.573473  0  0  -0.222242  0  3.584909  0  -0.791866  0  -0.24089  -0.191588  0  3.566205  0
N  N76  1  0.87653091  0.14923984  0.72410159  1  0  -0.200005  0  2.908183  0  0  -0.179428  0  3.181366  0  0  -0.186763  0  3.195563  0  -0.679378  0  -0.21081  -0.174618  0  3.171999  0
N  N77  1  0.12347899  0.35075650  0.22410497  1  0  -0.200079  0  2.908258  0  0  -0.179507  0  3.181453  0  0  -0.186842  0  3.19565  0  -0.679303  0  -0.21087  -0.1747  0  3.172087  0
N  N78  1  0.12348043  0.85075569  0.27589705  1  0  -0.200077  0  2.908222  0  0  -0.179507  0  3.181412  0  0  -0.18684  0  3.195609  0  -0.679214  0  -0.210878  -0.174697  0  3.172044  0
N  N79  1  0.87651979  0.64924379  0.77589570  1  0  -0.200074  0  2.908179  0  0  -0.179507  0  3.181369  0  0  -0.18684  0  3.195566  0  -0.679769  0  -0.210876  -0.174698  0  3.172001  0
N  N80  1  0.88915718  0.28995057  0.61397595  1  0  -0.118223  0  3.577403  0  0  -0.027852  0  3.796094  0  0  -0.04453  0  3.820088  0  -1.286644  0  -0.211683  -0.016951  0  3.779651  0
N  N81  1  0.11084743  0.21004672  0.11397663  1  0  -0.118339  0  3.577551  0  0  -0.027965  0  3.796256  0  0  -0.044643  0  3.820253  0  -1.286689  0  -0.211792  -0.017064  0  3.779811  0
N  N82  1  0.11084775  0.71004686  0.38602405  1  0  -0.118204  0  3.577391  0  0  -0.02786  0  3.796123  0  0  -0.044539  0  3.820118  0  -1.286677  0  -0.211782  -0.016958  0  3.779675  0
N  N83  1  0.88914804  0.78995167  0.88602202  1  0  -0.118506  0  3.577441  0  0  -0.028157  0  3.796193  0  0  -0.044834  0  3.820184  0  -1.287195  0  -0.211825  -0.017256  0  3.779749  0
O  O84  1  0.25122797  0.94521166  0.64621386  1  0  -0.647796  0  2.009711  0  0  -0.576128  0  2.278208  0  0  -0.604905  0  2.260606  0  -1.155393  0  -0.323502  -0.555967  0  2.289521  0
O  O85  1  0.74877968  0.55479448  0.14621521  1  0  -0.647832  0  2.009627  0  0  -0.576104  0  2.27818  0  0  -0.604871  0  2.260556  0  -1.155149  0  -0.323471  -0.555944  0  2.289491  0
O  O86  1  0.74877354  0.05479339  0.35378817  1  0  -0.647832  0  2.009623  0  0  -0.5761  0  2.278165  0  0  -0.604878  0  2.260563  0  -1.155186  0  -0.323478  -0.55594  0  2.289475  0
O  O87  1  0.25122103  0.44520771  0.85378546  1  0  -0.64784  0  2.009569  0  0  -0.576128  0  2.278138  0  0  -0.604896  0  2.260511  0  -1.155169  0  -0.323504  -0.555968  0  2.289451  0
O  O88  1  0.34562000  0.09545726  0.54063969  1  0  -0.635226  0  2.00087  0  0  -0.578608  0  2.226094  0  0  -0.603559  0  2.215117  0  -1.198418  0  -0.312003  -0.561292  0  2.233279  0
O  O89  1  0.65438227  0.40455145  0.04063834  1  0  -0.635192  0  2.000673  0  0  -0.578535  0  2.225969  0  0  -0.603486  0  2.214994  0  -1.19833  0  -0.311995  -0.56122  0  2.233155  0
O  O90  1  0.65438259  0.90455159  0.45936369  1  0  -0.635233  0  2.000619  0  0  -0.578602  0  2.225934  0  0  -0.603552  0  2.214957  0  -1.19834  0  -0.312035  -0.561285  0  2.233119  0
O  O91  1  0.34562036  0.59545265  0.95936166  1  0  -0.635257  0  2.000763  0  0  -0.578601  0  2.226067  0  0  -0.603553  0  2.215091  0  -1.198405  0  -0.312016  -0.561285  0  2.233253  0
O  O92  1  0.48343881  0.89233425  0.81683261  1  0  -0.632072  0  1.96239  0  0  -0.558653  0  2.216044  0  0  -0.587985  0  2.201861  0  -1.145619  0  -0.324929  -0.537875  0  2.225061  0
O  O93  1  0.51655254  0.60766333  0.31683194  1  0  -0.632082  0  1.962503  0  0  -0.558657  0  2.216092  0  0  -0.587998  0  2.201928  0  -1.145786  0  -0.324898  -0.537876  0  2.225104  0
O  O94  1  0.51655474  0.10766223  0.18316604  1  0  -0.632054  0  1.962602  0  0  -0.558664  0  2.216248  0  0  -0.587983  0  2.20204  0  -1.145669  0  -0.324907  -0.537872  0  2.225237  0
O  O95  1  0.48343432  0.39233410  0.68316671  1  0  -0.632035  0  1.962523  0  0  -0.558648  0  2.216159  0  0  -0.587981  0  2.201979  0  -1.145614  0  -0.324917  -0.537868  0  2.225175  0
O  O96  1  0.46174821  0.09551056  0.84175763  1  0  -0.634731  0  1.979029  0  0  -0.575721  0  2.198341  0  0  -0.601086  0  2.18765  0  -1.183659  0  -0.311028  -0.557696  0  2.204992  0
O  O97  1  0.53824892  0.40448482  0.34175426  1  0  -0.634749  0  1.979119  0  0  -0.575766  0  2.19842  0  0  -0.60113  0  2.18773  0  -1.183791  0  -0.311124  -0.557744  0  2.205079  0
O  O98  1  0.53825591  0.90448401  0.15824507  1  0  -0.634693  0  1.979032  0  0  -0.575707  0  2.198321  0  0  -0.601073  0  2.187629  0  -1.183822  0  -0.311086  -0.557689  0  2.204984  0
O  O99  1  0.46174741  0.59551166  0.65824304  1  0  -0.634724  0  1.979034  0  0  -0.575738  0  2.198314  0  0  -0.601105  0  2.187623  0  -1.183697  0  -0.31106  -0.557716  0  2.204974  0
O  O100  1  0.62164875  0.83018437  0.62732842  1  0  -0.854788  0  1.912096  0  0  -0.785346  0  2.131033  0  0  -0.808917  0  2.092702  0  -1.293518  0  -0.583529  -0.768651  0  2.157907  0
O  O101  1  0.37835451  0.66981606  0.12732572  1  0  -0.854877  0  1.912017  0  0  -0.78545  0  2.130974  0  0  -0.809021  0  2.092642  0  -1.293498  0  -0.583556  -0.768754  0  2.15785  0
O  O102  1  0.37835532  0.16981496  0.37267428  1  0  -0.854879  0  1.912017  0  0  -0.785456  0  2.130986  0  0  -0.809029  0  2.092655  0  -1.293477  0  -0.583564  -0.768761  0  2.157861  0
O  O103  1  0.62164288  0.33018423  0.87267360  1  0  -0.854895  0  1.911947  0  0  -0.785473  0  2.130889  0  0  -0.809044  0  2.092557  0  -1.293457  0  -0.583573  -0.768779  0  2.157764  0
