# generated using pymatgen
data_LaH14C33N2Cl3(OF)6
_symmetry_space_group_name_H-M   'P 1'
_cell_length_a   10.09538349
_cell_length_b   13.04745129
_cell_length_c   13.20855700
_cell_angle_alpha   72.95225434
_cell_angle_beta   83.53534252
_cell_angle_gamma   86.23211502
_symmetry_Int_Tables_number   1
_chemical_formula_structural   LaH14C33N2Cl3(OF)6
_chemical_formula_sum   'La2 H28 C66 N4 Cl6 O12 F12'
_cell_volume   1651.81558398
_cell_formula_units_Z   2
loop_
 _symmetry_equiv_pos_site_id
 _symmetry_equiv_pos_as_xyz
  1  'x, y, z'
loop_
 _atom_site_type_symbol
 _atom_site_label
 _atom_site_symmetry_multiplicity
 _atom_site_fract_x
 _atom_site_fract_y
 _atom_site_fract_z
 _atom_site_occupancy
 _atom_site_hle17_bader_spin_density
 _atom_site_hle17_ddec_charge
 _atom_site_hle17_ddec_spin_density
 _atom_site_hle17_ddec_sum_bond_order
 _atom_site_hle17_magmom
 _atom_site_hse06_10hf_bader_spin_density
 _atom_site_hse06_10hf_ddec_charge
 _atom_site_hse06_10hf_ddec_spin_density
 _atom_site_hse06_10hf_ddec_sum_bond_order
 _atom_site_hse06_10hf_magmom
 _atom_site_hse06_bader_spin_density
 _atom_site_hse06_ddec_charge
 _atom_site_hse06_ddec_spin_density
 _atom_site_hse06_ddec_sum_bond_order
 _atom_site_hse06_magmom
 _atom_site_pbe_bader_spin_density
 _atom_site_pbe_cm5_charge
 _atom_site_pbe_ddec_charge
 _atom_site_pbe_ddec_spin_density
 _atom_site_pbe_ddec_sum_bond_order
 _atom_site_pbe_magmom
La  La0  1  0.28994850  0.55408369  0.48890560  1  0  2.077203  0  1.863363  0  0  1.927539  0  2.418632  0  0  2.033084  0  2.315394  0  0  1.41918  1.846508  0  2.493407  0
La  La1  1  0.71005002  0.44591580  0.51109413  1  0  2.077178  0  1.863368  0  0  1.927504  0  2.418629  0  0  2.033061  0  2.315383  0  0  1.419153  1.846484  0  2.49339  0
H  H2  1  0.04430758  0.64967150  0.97289493  1  0  0.135858  0  0.953791  0  0  0.13888  0  1.025842  0  0  0.143022  0  1.022933  0  0  0.102186  0.135986  0  1.027873  0
H  H3  1  0.95569190  0.35032880  0.02710449  1  0  0.135873  0  0.953792  0  0  0.138904  0  1.025835  0  0  0.143038  0  1.022932  0  0  0.102194  0.136017  0  1.02786  0
H  H4  1  0.92470450  0.74456472  0.31167409  1  0  0.148932  0  0.91444  0  0  0.157591  0  0.971095  0  0  0.162344  0  0.967313  0  0  0.120699  0.154005  0  0.974201  0
H  H5  1  0.07529394  0.25543637  0.68832442  1  0  0.148978  0  0.914363  0  0  0.157563  0  0.971103  0  0  0.162315  0  0.967327  0  0  0.120696  0.153978  0  0.974206  0
H  H6  1  0.67762942  0.39977999  0.97346531  1  0  0.142193  0  0.935107  0  0  0.149987  0  0.998245  0  0  0.153265  0  0.997137  0  0  0.109029  0.147719  0  0.998889  0
H  H7  1  0.32237098  0.60022192  0.02653355  1  0  0.142143  0  0.935072  0  0  0.149935  0  0.998224  0  0  0.153212  0  0.997115  0  0  0.109004  0.147666  0  0.998868  0
H  H8  1  0.31051653  0.35214155  0.26604318  1  0  0.144206  0  0.925324  0  0  0.14987  0  0.986817  0  0  0.154591  0  0.982956  0  0  0.117157  0.146479  0  0.989564  0
H  H9  1  0.68948499  0.64785795  0.73395553  1  0  0.144253  0  0.925268  0  0  0.149901  0  0.98676  0  0  0.154624  0  0.982896  0  0  0.117158  0.146507  0  0.989509  0
H  H10  1  0.45373280  0.94782792  0.65933254  1  0  0.132863  0  0.965432  0  0  0.138724  0  1.033926  0  0  0.1424  0  1.031727  0  0  0.102041  0.136234  0  1.035239  0
H  H11  1  0.54626764  0.05217319  0.34066732  1  0  0.132851  0  0.965438  0  0  0.138709  0  1.033937  0  0  0.142385  0  1.031739  0  0  0.10204  0.13622  0  1.035249  0
H  H12  1  0.37298665  0.26113998  0.80447258  1  0  0.145007  0  0.916129  0  0  0.152246  0  0.976931  0  0  0.155989  0  0.974663  0  0  0.117986  0.149548  0  0.978704  0
H  H13  1  0.62701387  0.73885952  0.19552849  1  0  0.144932  0  0.916223  0  0  0.15218  0  0.977019  0  0  0.155922  0  0.974755  0  0  0.117958  0.149481  0  0.978791  0
H  H14  1  0.21731991  0.67776877  0.69018324  1  0  0.082376  0  0.964704  0  0  0.085311  0  1.038209  0  0  0.088537  0  1.034606  0  0  0.115154  0.082754  0  1.041171  0
H  H15  1  0.78268065  0.32222993  0.30981730  1  0  0.082384  0  0.964704  0  0  0.085319  0  1.038203  0  0  0.088546  0  1.034597  0  0  0.115155  0.082762  0  1.041165  0
H  H16  1  0.16027520  0.84970168  0.73775259  1  0  0.110595  0  0.930454  0  0  0.123522  0  0.980081  0  0  0.126948  0  0.979192  0  0  0.109293  0.120908  0  0.981072  0
H  H17  1  0.83972436  0.15029702  0.26224804  1  0  0.11058  0  0.930458  0  0  0.123521  0  0.980074  0  0  0.126948  0  0.979184  0  0  0.109304  0.120907  0  0.981065  0
H  H18  1  0.14194777  0.02116307  0.59038283  1  0  0.102192  0  0.922216  0  0  0.116883  0  0.974903  0  0  0.119625  0  0.973446  0  0  0.110586  0.114782  0  0.97614  0
H  H19  1  0.85805179  0.97883563  0.40961780  1  0  0.102133  0  0.922173  0  0  0.116797  0  0.974896  0  0  0.119539  0  0.973439  0  0  0.110549  0.114693  0  0.976143  0
H  H20  1  0.14999424  0.11295199  0.39465602  1  0  0.101357  0  0.937651  0  0  0.114626  0  0.99173  0  0  0.117637  0  0.990902  0  0  0.104972  0.112351  0  0.992514  0
H  H21  1  0.85000425  0.88704830  0.60534273  1  0  0.101401  0  0.937682  0  0  0.114671  0  0.991751  0  0  0.117681  0  0.990923  0  0  0.105002  0.112396  0  0.992532  0
H  H22  1  0.17947184  0.10132971  0.20932329  1  0  0.108444  0  0.964107  0  0  0.113354  0  1.031561  0  0  0.117034  0  1.028967  0  0  0.099181  0.110668  0  1.033528  0
H  H23  1  0.82052760  0.89867139  0.79067514  1  0  0.108516  0  0.964059  0  0  0.113346  0  1.031591  0  0  0.117026  0  1.028996  0  0  0.099168  0.11066  0  1.033556  0
H  H24  1  0.22774014  0.99143151  0.08291957  1  0  0.11068  0  0.942103  0  0  0.11472  0  1.010277  0  0  0.118756  0  1.006032  0  0  0.10548  0.111809  0  1.013417  0
H  H25  1  0.77225934  0.00856879  0.91708060  1  0  0.110621  0  0.942168  0  0  0.114685  0  1.010313  0  0  0.118723  0  1.006065  0  0  0.105463  0.111773  0  1.013452  0
H  H26  1  0.29026727  0.81210630  0.05458766  1  0  0.10646  0  0.947115  0  0  0.113949  0  1.009715  0  0  0.117335  0  1.00849  0  0  0.102091  0.111585  0  1.010591  0
H  H27  1  0.70973221  0.18789400  0.94541251  1  0  0.106442  0  0.94715  0  0  0.113925  0  1.009761  0  0  0.117313  0  1.008534  0  0  0.102098  0.111568  0  1.010625  0
H  H28  1  0.31409564  0.65235624  0.21469063  1  0  0.081004  0  0.945776  0  0  0.088143  0  1.012314  0  0  0.090921  0  1.009875  0  0  0.118305  0.085986  0  1.014281  0
H  H29  1  0.68590388  0.34764326  0.78530977  1  0  0.080927  0  0.945776  0  0  0.088076  0  1.012333  0  0  0.090856  0  1.009892  0  0  0.118268  0.085921  0  1.014299  0
C  C30  1  0.99336523  0.61775987  0.24163558  1  0  -0.079311  0  3.709216  0  0  -0.072588  0  3.955912  0  0  -0.075748  0  3.972762  0  0  -0.008892  -0.070674  0  3.944982  0
C  C31  1  0.00663122  0.38224122  0.75836311  1  0  -0.079245  0  3.709383  0  0  -0.072519  0  3.956028  0  0  -0.075682  0  3.972877  0  0  -0.008877  -0.070604  0  3.945093  0
C  C32  1  0.02744699  0.59295128  0.14560662  1  0  0.121813  0  3.792203  0  0  0.124539  0  4.063713  0  0  0.127668  0  4.084834  0  0  0.008211  0.122305  0  4.049666  0
C  C33  1  0.97254950  0.40704901  0.85439306  1  0  0.121802  0  3.792206  0  0  0.124509  0  4.063754  0  0  0.127639  0  4.084872  0  0  0.008193  0.122274  0  4.049711  0
C  C34  1  0.01964236  0.67016528  0.04717369  1  0  -0.23657  0  3.774296  0  0  -0.274152  0  4.045489  0  0  -0.27825  0  4.063667  0  0  -0.112949  -0.271162  0  4.033198  0
C  C35  1  0.98035609  0.32983582  0.95282558  1  0  -0.236559  0  3.774295  0  0  -0.274159  0  4.045462  0  0  -0.278246  0  4.063646  0  0  -0.112926  -0.271175  0  4.033169  0
C  C36  1  0.97801547  0.77391538  0.04598794  1  0  0.214941  0  3.806683  0  0  0.191589  0  4.101015  0  0  0.200399  0  4.110057  0  0  0.084061  0.18523  0  4.095391  0
C  C37  1  0.02198397  0.22608572  0.95401124  1  0  0.214931  0  3.80662  0  0  0.191663  0  4.100882  0  0  0.200469  0  4.109926  0  0  0.084105  0.185305  0  4.095262  0
C  C38  1  0.94557220  0.80046021  0.14091224  1  0  0.192817  0  3.820873  0  0  0.168645  0  4.119495  0  0  0.175952  0  4.130949  0  0  0.082343  0.163198  0  4.113062  0
C  C39  1  0.05442617  0.19954249  0.85908657  1  0  0.192909  0  3.820761  0  0  0.168685  0  4.119395  0  0  0.175995  0  4.130851  0  0  0.082356  0.163238  0  4.112965  0
C  C40  1  0.95267717  0.72328155  0.23814613  1  0  -0.153534  0  3.7196  0  0  -0.190719  0  3.987291  0  0  -0.192238  0  4.003528  0  0  -0.087098  -0.189928  0  3.97728  0
C  C41  1  0.04732028  0.27671954  0.76185247  1  0  -0.153649  0  3.719613  0  0  -0.190753  0  3.987341  0  0  -0.192269  0  4.003566  0  0  -0.087103  -0.189962  0  3.97733  0
C  C42  1  0.00227419  0.53284592  0.34752180  1  0  0.731072  0  3.871165  0  0  0.685048  0  4.165954  0  0  0.722819  0  4.153608  0  0  0.240055  0.65871  0  4.173501  0
C  C43  1  0.99772349  0.46715037  0.65247970  1  0  0.730902  0  3.871307  0  0  0.684918  0  4.166042  0  0  0.722696  0  4.153681  0  0  0.240032  0.658581  0  4.173581  0
C  C44  1  0.50578450  0.41445265  0.20846742  1  0  -0.09371  0  3.709999  0  0  -0.087698  0  3.958284  0  0  -0.093368  0  3.976602  0  0  -0.022197  -0.085473  0  3.947629  0
C  C45  1  0.49421905  0.58554606  0.79153361  1  0  -0.093673  0  3.71006  0  0  -0.087722  0  3.958386  0  0  -0.093396  0  3.976709  0  0  -0.022222  -0.085501  0  3.947735  0
C  C46  1  0.60919414  0.42666984  0.12562353  1  0  0.134832  0  3.782117  0  0  0.138104  0  4.051882  0  0  0.142573  0  4.073171  0  0  0.013048  0.134861  0  4.037969  0
C  C47  1  0.39080726  0.57333207  0.87437525  1  0  0.134766  0  3.782077  0  0  0.138076  0  4.05182  0  0  0.142545  0  4.073108  0  0  0.013013  0.134834  0  4.037911  0
C  C48  1  0.59986631  0.38617666  0.03968045  1  0  -0.23685  0  3.761063  0  0  -0.273455  0  4.02885  0  0  -0.279208  0  4.048992  0  0  -0.109698  -0.26833  0  4.014263  0
C  C49  1  0.40013609  0.61382525  0.96031824  1  0  -0.236665  0  3.760964  0  0  -0.273281  0  4.028743  0  0  -0.279031  0  4.048883  0  0  -0.10963  -0.268143  0  4.014123  0
C  C50  1  0.48710220  0.33218135  0.03755311  1  0  0.228377  0  3.81709  0  0  0.200646  0  4.118772  0  0  0.210784  0  4.127218  0  0  0.089544  0.193469  0  4.112526  0
C  C51  1  0.51290135  0.66781736  0.96244793  1  0  0.228264  0  3.817245  0  0  0.200531  0  4.118925  0  0  0.210666  0  4.127372  0  0  0.089514  0.193356  0  4.112676  0
C  C52  1  0.38410539  0.31827598  0.11962710  1  0  0.192047  0  3.821075  0  0  0.163845  0  4.12515  0  0  0.171438  0  4.1339  0  0  0.079777  0.159137  0  4.119367  0
C  C53  1  0.61589920  0.68172193  0.88037407  1  0  0.192097  0  3.821072  0  0  0.163912  0  4.125125  0  0  0.171506  0  4.133876  0  0  0.079813  0.159202  0  4.119341  0
C  C54  1  0.39268014  0.35968586  0.20363823  1  0  -0.163684  0  3.756858  0  0  -0.200962  0  4.025785  0  0  -0.201371  0  4.041257  0  0  -0.093183  -0.200883  0  4.016452  0
C  C55  1  0.60732233  0.64031444  0.79636092  1  0  -0.163729  0  3.756825  0  0  -0.200971  0  4.025764  0  0  -0.201382  0  4.041236  0  0  -0.093189  -0.200892  0  4.016434  0
C  C56  1  0.50649393  0.45814312  0.30241767  1  0  0.703289  0  3.869859  0  0  0.656349  0  4.166294  0  0  0.693519  0  4.155718  0  0  0.228534  0.630901  0  4.172513  0
C  C57  1  0.49350966  0.54185479  0.69758435  1  0  0.703081  0  3.870073  0  0  0.656193  0  4.166438  0  0  0.693362  0  4.155868  0  0  0.2285  0.63075  0  4.172652  0
C  C58  1  0.39900788  0.20911373  0.66154217  1  0  -0.074334  0  3.733445  0  0  -0.067299  0  3.983323  0  0  -0.070212  0  3.999738  0  0  -0.012613  -0.065562  0  3.972718  0
C  C59  1  0.60098858  0.79088736  0.33845803  1  0  -0.074352  0  3.733647  0  0  -0.067305  0  3.98349  0  0  -0.070248  0  3.999947  0  0  -0.012629  -0.065568  0  3.972885  0
C  C60  1  0.42235158  0.12066764  0.62197212  1  0  0.126368  0  3.784747  0  0  0.124711  0  4.064084  0  0  0.128298  0  4.084023  0  0  0.012109  0.122203  0  4.050511  0
C  C61  1  0.57764786  0.87933346  0.37802782  1  0  0.126296  0  3.784692  0  0  0.124635  0  4.064017  0  0  0.128232  0  4.08396  0  0  0.012098  0.122131  0  4.050442  0
C  C62  1  0.43677791  0.01689921  0.68982534  1  0  -0.228756  0  3.781101  0  0  -0.26749  0  4.052343  0  0  -0.270998  0  4.070693  0  0  -0.107175  -0.264616  0  4.039173  0
C  C63  1  0.56322353  0.98310190  0.31017518  1  0  -0.228698  0  3.78103  0  0  -0.26743  0  4.052269  0  0  -0.270937  0  4.070616  0  0  -0.107176  -0.264559  0  4.0391  0
C  C64  1  0.42745745  0.00329489  0.79848669  1  0  0.217356  0  3.797176  0  0  0.195231  0  4.090013  0  0  0.204256  0  4.098512  0  0  0.088935  0.189192  0  4.084145  0
C  C65  1  0.57254411  0.99670382  0.20151376  1  0  0.217395  0  3.797206  0  0  0.195247  0  4.090022  0  0  0.204274  0  4.098519  0  0  0.088967  0.189208  0  4.084156  0
C  C66  1  0.40535745  0.09100888  0.83910839  1  0  0.209796  0  3.807976  0  0  0.178725  0  4.114272  0  0  0.187581  0  4.122906  0  0  0.087385  0.172552  0  4.109118  0
C  C67  1  0.59464403  0.90899143  0.16089236  1  0  0.209677  0  3.808116  0  0  0.178678  0  4.114327  0  0  0.187536  0  4.122957  0  0  0.087358  0.172505  0  4.109172  0
C  C68  1  0.39127004  0.19372457  0.77127034  1  0  -0.155146  0  3.711226  0  0  -0.192863  0  3.980991  0  0  -0.195003  0  3.99805  0  0  -0.087818  -0.191686  0  3.970464  0
C  C69  1  0.60873045  0.80627574  0.22873050  1  0  -0.155025  0  3.711309  0  0  -0.19279  0  3.981059  0  0  -0.194923  0  3.998127  0  0  -0.08779  -0.191613  0  3.970531  0
C  C70  1  0.37748366  0.31987724  0.58843384  1  0  0.68571  0  3.91547  0  0  0.637776  0  4.213117  0  0  0.673494  0  4.205417  0  0  0.217446  0.613156  0  4.217196  0
C  C71  1  0.62250873  0.68012545  0.41156777  1  0  0.685716  0  3.915596  0  0  0.637819  0  4.213132  0  0  0.673548  0  4.205422  0  0  0.217427  0.613196  0  4.217212  0
C  C72  1  0.20835756  0.75399946  0.62860175  1  0  0.152816  0  3.699003  0  0  0.124342  0  3.955807  0  0  0.133257  0  3.972225  0  0  0.06116  0.118442  0  3.944537  0
C  C73  1  0.79163997  0.24600003  0.37139883  1  0  0.15283  0  3.699015  0  0  0.124359  0  3.95582  0  0  0.133278  0  3.972236  0  0  0.061183  0.11846  0  3.944549  0
C  C74  1  0.17661438  0.85046240  0.65455021  1  0  -0.123822  0  3.740321  0  0  -0.134902  0  3.991519  0  0  -0.142143  0  4.012486  0  0  -0.085059  -0.130193  0  3.977283  0
C  C75  1  0.82338611  0.14953791  0.34545063  1  0  -0.123811  0  3.740407  0  0  -0.134907  0  3.991606  0  0  -0.142151  0  4.012574  0  0  -0.085074  -0.130193  0  3.977366  0
C  C76  1  0.16612501  0.94477365  0.57332998  1  0  -0.048913  0  3.714708  0  0  -0.077445  0  3.971396  0  0  -0.075093  0  3.990241  0  0  -0.065793  -0.078673  0  3.958229  0
C  C77  1  0.83387348  0.05522665  0.42666952  1  0  -0.048887  0  3.714754  0  0  -0.077383  0  3.971435  0  0  -0.075026  0  3.990278  0  0  -0.065763  -0.078611  0  3.958263  0
C  C78  1  0.18612422  0.94222336  0.46651970  1  0  0.016331  0  3.803602  0  0  0.03356  0  4.036388  0  0  0.030724  0  4.061181  0  0  -0.006808  0.035286  0  4.019526  0
C  C79  1  0.81387423  0.05777774  0.53348109  1  0  0.016524  0  3.803654  0  0  0.033718  0  4.036413  0  0  0.03088  0  4.061205  0  0  -0.006728  0.035442  0  4.019552  0
C  C80  1  0.17383445  0.03623185  0.37832116  1  0  -0.11214  0  3.783448  0  0  -0.135086  0  4.041474  0  0  -0.138822  0  4.065734  0  0  -0.090438  -0.132349  0  4.024698  0
C  C81  1  0.82616404  0.96376845  0.62167834  1  0  -0.112285  0  3.783598  0  0  -0.135225  0  4.041602  0  0  -0.13896  0  4.065861  0  0  -0.090514  -0.132485  0  4.024822  0
C  C82  1  0.18999520  0.02995454  0.27627306  1  0  -0.096539  0  3.740359  0  0  -0.121211  0  3.996705  0  0  -0.124464  0  4.019704  0  0  -0.08756  -0.118952  0  3.981089  0
C  C83  1  0.81000425  0.97004657  0.72372689  1  0  -0.096648  0  3.740491  0  0  -0.121252  0  3.996827  0  0  -0.124504  0  4.019826  0  0  -0.087582  -0.11899  0  3.981205  0
C  C84  1  0.22208614  0.92950290  0.25448174  1  0  0.027628  0  3.784579  0  0  0.04497  0  4.015525  0  0  0.042065  0  4.040864  0  0  -0.003721  0.046761  0  3.998815  0
C  C85  1  0.77791338  0.07049659  0.74551791  1  0  0.027654  0  3.78466  0  0  0.045  0  4.015576  0  0  0.042096  0  4.040916  0  0  -0.003714  0.046787  0  3.998872  0
C  C86  1  0.24009279  0.92031879  0.14987432  1  0  -0.036002  0  3.666169  0  0  -0.067994  0  3.927297  0  0  -0.065081  0  3.943925  0  0  -0.064549  -0.070097  0  3.916965  0
C  C87  1  0.75990673  0.07968071  0.85012532  1  0  -0.035893  0  3.666105  0  0  -0.067903  0  3.927202  0  0  -0.064991  0  3.943832  0  0  -0.064464  -0.070003  0  3.916869  0
C  C88  1  0.27372122  0.82141201  0.13428796  1  0  -0.118702  0  3.73979  0  0  -0.136614  0  4.006414  0  0  -0.143718  0  4.028265  0  0  -0.087185  -0.132036  0  3.992294  0
C  C89  1  0.72627827  0.17858829  0.86571146  1  0  -0.118718  0  3.739739  0  0  -0.13661  0  4.006363  0  0  -0.143713  0  4.028214  0  0  -0.087245  -0.132034  0  3.992245  0
C  C90  1  0.28773881  0.73198741  0.22342610  1  0  0.145535  0  3.715563  0  0  0.116388  0  3.977965  0  0  0.123847  0  3.99716  0  0  0.059496  0.11149  0  3.964872  0
C  C91  1  0.71225871  0.26801208  0.77657296  1  0  0.145688  0  3.715415  0  0  0.116491  0  3.977866  0  0  0.123944  0  3.997062  0  0  0.059565  0.11159  0  3.964771  0
C  C92  1  0.23793614  0.83460186  0.33977400  1  0  0.134818  0  3.749926  0  0  0.133194  0  3.985343  0  0  0.137195  0  4.008649  0  0  0.122311  0.130379  0  3.96955  0
C  C93  1  0.76206335  0.16539844  0.66022693  1  0  0.134834  0  3.749949  0  0  0.1332  0  3.985333  0  0  0.137201  0  4.00864  0  0  0.12234  0.130388  0  3.96954  0
C  C94  1  0.21809899  0.84084547  0.44795741  1  0  0.137932  0  3.746843  0  0  0.133502  0  3.984098  0  0  0.138179  0  4.006316  0  0  0.12294  0.130253  0  3.969186  0
C  C95  1  0.78190049  0.15915483  0.55204125  1  0  0.137847  0  3.746852  0  0  0.133482  0  3.984028  0  0  0.138159  0  4.00625  0  0  0.122928  0.130234  0  3.969113  0
N  N96  1  0.22941569  0.74902445  0.52863624  1  0  -0.387471  0  3.182164  0  0  -0.338967  0  3.448236  0  0  -0.359338  0  3.468279  0  0  -0.348501  -0.32452  0  3.434157  0
N  N97  1  0.77058483  0.25097506  0.47136407  1  0  -0.387469  0  3.182179  0  0  -0.338989  0  3.448248  0  0  -0.359362  0  3.468296  0  0  -0.348529  -0.324543  0  3.434174  0
N  N98  1  0.27020387  0.73768062  0.32314891  1  0  -0.401256  0  3.214866  0  0  -0.351886  0  3.482716  0  0  -0.372922  0  3.504964  0  0  -0.355585  -0.336758  0  3.466815  0
N  N99  1  0.72979565  0.26231887  0.67685074  1  0  -0.40134  0  3.214897  0  0  -0.351951  0  3.482749  0  0  -0.372989  0  3.504998  0  0  -0.355617  -0.336824  0  3.466847  0
Cl  Cl100  1  0.08289829  0.46395058  0.14753435  1  0  -0.075937  0  1.414121  0  0  -0.063183  0  1.659173  0  0  -0.065879  0  1.652663  0  0  0.014197  -0.061829  0  1.664291  0
Cl  Cl101  1  0.91710120  0.53604972  0.85246583  1  0  -0.07592  0  1.414122  0  0  -0.063166  0  1.659177  0  0  -0.065861  0  1.652668  0  0  0.014216  -0.061809  0  1.664296  0
Cl  Cl102  1  0.74840209  0.49823379  0.12149876  1  0  -0.062813  0  1.47685  0  0  -0.057127  0  1.73484  0  0  -0.05972  0  1.730142  0  0  0.019126  -0.055525  0  1.738818  0
Cl  Cl103  1  0.25159831  0.50176812  0.87850011  1  0  -0.062788  0  1.47686  0  0  -0.057105  0  1.734828  0  0  -0.059698  0  1.730131  0  0  0.019151  -0.055504  0  1.738805  0
Cl  Cl104  1  0.43054067  0.14124710  0.48564525  1  0  -0.068743  0  1.36588  0  0  -0.052961  0  1.601078  0  0  -0.055845  0  1.597464  0  0  0.024937  -0.050718  0  1.603509  0
Cl  Cl105  1  0.56945985  0.85875240  0.51435506  1  0  -0.068738  0  1.365856  0  0  -0.052963  0  1.601048  0  0  -0.055844  0  1.597431  0  0  0.02492  -0.050722  0  1.603479  0
O  O106  1  0.10354009  0.53394733  0.39501983  1  0  -0.669434  0  2.0235  0  0  -0.625189  0  2.282755  0  0  -0.659721  0  2.270666  0  0  -0.375845  -0.599419  0  2.290368  0
O  O107  1  0.89645825  0.46605618  0.60498026  1  0  -0.669341  0  2.023528  0  0  -0.625106  0  2.282752  0  0  -0.659642  0  2.270662  0  0  -0.375835  -0.599332  0  2.290347  0
O  O108  1  0.90861501  0.46769410  0.37894397  1  0  -0.677947  0  2.003416  0  0  -0.638883  0  2.261698  0  0  -0.67276  0  2.250623  0  0  -0.377287  -0.613435  0  2.268486  0
O  O109  1  0.09138961  0.53230301  0.62105289  1  0  -0.677929  0  2.003342  0  0  -0.638869  0  2.261597  0  0  -0.672752  0  2.250518  0  0  -0.377312  -0.613415  0  2.26838  0
O  O110  1  0.39423401  0.49304767  0.33522435  1  0  -0.672238  0  2.004228  0  0  -0.625473  0  2.258064  0  0  -0.657971  0  2.247811  0  0  -0.372157  -0.601724  0  2.264496  0
O  O111  1  0.60577265  0.50694865  0.66477939  1  0  -0.672097  0  2.004243  0  0  -0.625348  0  2.258045  0  0  -0.657845  0  2.247794  0  0  -0.372074  -0.601598  0  2.264473  0
O  O112  1  0.61613549  0.45495124  0.34137093  1  0  -0.678563  0  2.064858  0  0  -0.634083  0  2.325567  0  0  -0.667179  0  2.317049  0  0  -0.368991  -0.609985  0  2.330636  0
O  O113  1  0.38387125  0.54504347  0.65863251  1  0  -0.6785  0  2.064881  0  0  -0.634045  0  2.325571  0  0  -0.667134  0  2.317051  0  0  -0.368993  -0.609947  0  2.330638  0
O  O114  1  0.25957345  0.35057302  0.56818981  1  0  -0.632518  0  1.937086  0  0  -0.588009  0  2.168192  0  0  -0.618588  0  2.159773  0  0  -0.345102  -0.565708  0  2.173334  0
O  O115  1  0.74041994  0.64942966  0.43181096  1  0  -0.632518  0  1.937156  0  0  -0.588003  0  2.168201  0  0  -0.618592  0  2.159796  0  0  -0.345058  -0.565701  0  2.173343  0
O  O116  1  0.47784007  0.37863786  0.55268532  1  0  -0.723825  0  2.106413  0  0  -0.674282  0  2.375304  0  0  -0.712364  0  2.368632  0  0  -0.37983  -0.645687  0  2.378158  0
O  O117  1  0.52215041  0.62136321  0.44731693  1  0  -0.723828  0  2.106428  0  0  -0.674305  0  2.375303  0  0  -0.712386  0  2.368623  0  0  -0.379823  -0.645702  0  2.37814  0
F  F118  1  0.97043615  0.85108771  0.95143882  1  0  -0.184677  0  1.203868  0  0  -0.132923  0  1.357253  0  0  -0.140716  0  1.346503  0  0  -0.095212  -0.127184  0  1.364683  0
F  F119  1  0.02956234  0.14891258  0.04855992  1  0  -0.184682  0  1.203766  0  0  -0.132969  0  1.357149  0  0  -0.140762  0  1.3464  0  0  -0.095251  -0.127231  0  1.364581  0
F  F120  1  0.90829912  0.90361356  0.13690793  1  0  -0.185244  0  1.20614  0  0  -0.1374  0  1.361896  0  0  -0.145742  0  1.35354  0  0  -0.100572  -0.131517  0  1.368322  0
F  F121  1  0.09170033  0.09638755  0.86309201  1  0  -0.185255  0  1.205984  0  0  -0.137426  0  1.361775  0  0  -0.145769  0  1.353418  0  0  -0.100578  -0.131542  0  1.368201  0
F  F122  1  0.47514175  0.29405005  0.95415161  1  0  -0.181713  0  1.261381  0  0  -0.127932  0  1.43066  0  0  -0.136851  0  1.420932  0  0  -0.082276  -0.121146  0  1.436878  0
F  F123  1  0.52486279  0.70594866  0.04584782  1  0  -0.181718  0  1.261475  0  0  -0.12792  0  1.430735  0  0  -0.136837  0  1.421007  0  0  -0.082266  -0.121136  0  1.436949  0
F  F124  1  0.27403223  0.26595922  0.11439642  1  0  -0.182474  0  1.232243  0  0  -0.130539  0  1.393897  0  0  -0.138785  0  1.383548  0  0  -0.094362  -0.12438  0  1.400935  0
F  F125  1  0.72597335  0.73403869  0.88560467  1  0  -0.182523  0  1.232224  0  0  -0.130599  0  1.393875  0  0  -0.138845  0  1.383526  0  0  -0.094415  -0.12444  0  1.400913  0
F  F126  1  0.43882518  0.90320217  0.86680214  1  0  -0.182574  0  1.225905  0  0  -0.12855  0  1.382239  0  0  -0.138756  0  1.37436  0  0  -0.093694  -0.122119  0  1.38845  0
F  F127  1  0.56117633  0.09679733  0.13319733  1  0  -0.182554  0  1.225875  0  0  -0.128535  0  1.382213  0  0  -0.138745  0  1.374339  0  0  -0.093685  -0.122104  0  1.388426  0
F  F128  1  0.39590293  0.07475032  0.94571888  1  0  -0.177433  0  1.249946  0  0  -0.128665  0  1.41758  0  0  -0.13671  0  1.406886  0  0  -0.086829  -0.12263  0  1.424963  0
F  F129  1  0.60409763  0.92524838  0.05428242  1  0  -0.177365  0  1.249968  0  0  -0.12862  0  1.417575  0  0  -0.136666  0  1.406881  0  0  -0.086804  -0.122585  0  1.424959  0
