# generated using pymatgen
data_ZnH30C34(NO3)2
_symmetry_space_group_name_H-M   'P 1'
_cell_length_a   6.87371146
_cell_length_b   9.10359660
_cell_length_c   25.51000600
_cell_angle_alpha   100.12537472
_cell_angle_beta   89.96427273
_cell_angle_gamma   112.13052385
_symmetry_Int_Tables_number   1
_chemical_formula_structural   ZnH30C34(NO3)2
_chemical_formula_sum   'Zn2 H60 C68 N4 O12'
_cell_volume   1451.89661472
_cell_formula_units_Z   2
loop_
 _symmetry_equiv_pos_site_id
 _symmetry_equiv_pos_as_xyz
  1  'x, y, z'
loop_
 _atom_site_type_symbol
 _atom_site_label
 _atom_site_symmetry_multiplicity
 _atom_site_fract_x
 _atom_site_fract_y
 _atom_site_fract_z
 _atom_site_occupancy
 _atom_site_pbe_bader_spin_density
 _atom_site_pbe_cm5_charge
 _atom_site_pbe_ddec_charge
 _atom_site_pbe_ddec_spin_density
 _atom_site_pbe_ddec_sum_bond_order
 _atom_site_pbe_magmom
Zn  Zn0  1  0.00629916  0.00024828  0.75007819  1  0  0.683016  0.909854  0  2.310816  0
Zn  Zn1  1  0.99369638  0.99975061  0.24992236  1  0  0.682997  0.90978  0  2.31087  0
H  H2  1  0.02092729  0.46930269  0.53875117  1  0  0.096338  0.094614  0  1.039497  0
H  H3  1  0.55230612  0.53137246  0.96151818  1  0  0.096598  0.095127  0  1.039525  0
H  H4  1  0.97908622  0.53069723  0.46124630  1  0  0.096377  0.094687  0  1.039513  0
H  H5  1  0.44768653  0.46862646  0.03848316  1  0  0.096566  0.095075  0  1.039576  0
H  H6  1  0.60848216  0.18052977  0.67505396  1  0  0.104449  0.106872  0  1.021333  0
H  H7  1  0.42848537  0.81969189  0.82510034  1  0  0.104015  0.106073  0  1.02007  0
H  H8  1  0.39152628  0.81947746  0.32494511  1  0  0.104405  0.106784  0  1.021382  0
H  H9  1  0.57150173  0.18030469  0.17490204  1  0  0.104016  0.106119  0  1.02012  0
H  H10  1  0.44000919  0.28930519  0.61575980  1  0  0.098291  0.105241  0  1.056688  0
H  H11  1  0.15116315  0.71088528  0.88438382  1  0  0.098144  0.104988  0  1.056774  0
H  H12  1  0.56000600  0.71070683  0.38423875  1  0  0.098313  0.105293  0  1.056585  0
H  H13  1  0.84882687  0.28911129  0.11561856  1  0  0.098124  0.105017  0  1.056828  0
H  H14  1  0.18901625  0.36272227  0.59994978  1  0  0.100408  0.09475  0  1.042971  0
H  H15  1  0.82711216  0.63793599  0.90033205  1  0  0.100428  0.094414  0  1.043309  0
H  H16  1  0.81099073  0.63727039  0.40004689  1  0  0.100458  0.094832  0  1.04298  0
H  H17  1  0.17288194  0.36206294  0.09966928  1  0  0.100413  0.094357  0  1.043424  0
H  H18  1  0.54768656  0.88039392  0.47506709  1  0  0.098141  0.100435  0  1.036369  0
H  H19  1  0.66769430  0.11936173  0.02461188  1  0  0.098211  0.100569  0  1.035926  0
H  H20  1  0.45234020  0.11961797  0.52492910  1  0  0.098161  0.100457  0  1.036378  0
H  H21  1  0.33229865  0.88063488  0.97539129  1  0  0.098206  0.100608  0  1.035923  0
H  H22  1  0.84955659  0.07498065  0.53414751  1  0  0.095546  0.093276  0  1.037232  0
H  H23  1  0.77596734  0.92511638  0.96550742  1  0  0.095745  0.093826  0  1.03819  0
H  H24  1  0.15047189  0.92502883  0.46584854  1  0  0.095594  0.093412  0  1.037116  0
H  H25  1  0.22401766  0.07487890  0.03449331  1  0  0.095743  0.093769  0  1.038199  0
H  H26  1  0.92977235  0.69132191  0.59655636  1  0  0.096549  0.098501  0  1.047715  0
H  H27  1  0.24058741  0.30926656  0.90357341  1  0  0.096599  0.098692  0  1.047956  0
H  H28  1  0.07023276  0.30869032  0.40344613  1  0  0.096562  0.098504  0  1.047691  0
H  H29  1  0.75941102  0.69072649  0.09643073  1  0  0.096613  0.098727  0  1.047969  0
H  H30  1  0.04334489  0.97993368  0.59499922  1  0  0.101631  0.105088  0  1.011953  0
H  H31  1  0.06564233  0.02041907  0.90488367  1  0  0.101613  0.104823  0  1.011597  0
H  H32  1  0.95666741  0.02007838  0.40500012  1  0  0.101655  0.105119  0  1.011891  0
H  H33  1  0.93434794  0.97957511  0.09511896  1  0  0.101577  0.104807  0  1.011638  0
H  H34  1  0.44814525  0.26869604  0.74936785  1  0  0.127524  0.065423  0  1.021222  0
H  H35  1  0.17898697  0.73135072  0.75063313  1  0  0.127715  0.066287  0  1.020697  0
H  H36  1  0.55184580  0.73129676  0.25063157  1  0  0.127554  0.065471  0  1.021238  0
H  H37  1  0.82100820  0.26864452  0.24936682  1  0  0.127693  0.066253  0  1.020665  0
H  H38  1  0.68235847  0.30906385  0.89955597  1  0  0.102454  0.117051  0  1.010806  0
H  H39  1  0.37351054  0.69120791  0.60043570  1  0  0.102543  0.117253  0  1.011202  0
H  H40  1  0.31763912  0.69093624  0.10044465  1  0  0.102413  0.117009  0  1.010879  0
H  H41  1  0.62648643  0.30879093  0.39956406  1  0  0.102557  0.117254  0  1.011198  0
H  H42  1  0.71284479  0.13408299  0.86259727  1  0  0.105591  0.12654  0  1.019572  0
H  H43  1  0.57858898  0.86600935  0.63742003  1  0  0.10549  0.127205  0  1.017787  0
H  H44  1  0.28715073  0.86591585  0.13740249  1  0  0.1056  0.12654  0  1.019588  0
H  H45  1  0.42141032  0.13398832  0.36258045  1  0  0.105512  0.127215  0  1.017877  0
H  H46  1  0.45433536  0.13208141  0.87347265  1  0  0.113288  0.13671  0  0.999784  0
H  H47  1  0.32220260  0.86825147  0.62658406  1  0  0.113483  0.137266  0  0.998704  0
H  H48  1  0.54565869  0.86791742  0.12652672  1  0  0.113287  0.136705  0  0.999892  0
H  H49  1  0.67779788  0.13174858  0.37341577  1  0  0.113486  0.137273  0  0.998688  0
H  H50  1  0.92432531  0.30539642  0.79968682  1  0  0.106968  0.127241  0  0.992863  0
H  H51  1  0.61890521  0.69489631  0.70033059  1  0  0.107305  0.127865  0  0.991633  0
H  H52  1  0.07566909  0.69460602  0.20031276  1  0  0.10696  0.127249  0  0.992981  0
H  H53  1  0.38108992  0.30509885  0.29966779  1  0  0.107304  0.127849  0  0.991698  0
H  H54  1  0.87804576  0.48385964  0.82710944  1  0  0.100475  0.118467  0  1.041934  0
H  H55  1  0.39474082  0.51635060  0.67292091  1  0  0.10057  0.118302  0  1.042293  0
H  H56  1  0.12194863  0.51614276  0.17288935  1  0  0.100493  0.118499  0  1.041955  0
H  H57  1  0.60525261  0.48364698  0.32707761  1  0  0.100571  0.118331  0  1.042277  0
H  H58  1  0.79125262  0.38603900  0.75972570  1  0  0.10962  0.12431  0  1.000958  0
H  H59  1  0.40520578  0.61420684  0.74029557  1  0  0.109588  0.124271  0  1.000505  0
H  H60  1  0.20874203  0.61396104  0.24027374  1  0  0.109635  0.124395  0  1.000876  0
H  H61  1  0.59479227  0.38578834  0.25970320  1  0  0.109555  0.124247  0  1.000507  0
C  C62  1  0.91151809  0.26719130  0.64252455  1  0  -0.022615  -0.045726  0  3.989723  0
C  C63  1  0.64502483  0.73327833  0.85771278  1  0  -0.022552  -0.046843  0  3.990798  0
C  C64  1  0.08849460  0.73280987  0.35747378  1  0  -0.022694  -0.045841  0  3.989741  0
C  C65  1  0.35495934  0.26671818  0.14228842  1  0  -0.022644  -0.046959  0  3.990925  0
C  C66  1  0.93025301  0.40889025  0.56926262  1  0  -0.090341  -0.135159  0  3.972219  0
C  C67  1  0.52211424  0.59179693  0.93100352  1  0  -0.091233  -0.137254  0  3.973872  0
C  C68  1  0.06975179  0.59110970  0.43073525  1  0  -0.090383  -0.135231  0  3.972288  0
C  C69  1  0.47788423  0.40820199  0.06899781  1  0  -0.091172  -0.137174  0  3.974082  0
C  C70  1  0.43510831  0.33272145  0.50113143  1  0  -0.009213  0.028296  0  3.990011  0
C  C71  1  0.10199788  0.66733644  0.99900100  1  0  -0.009861  0.027265  0  3.992391  0
C  C72  1  0.56490774  0.66728938  0.49886745  1  0  -0.009232  0.028363  0  3.989855  0
C  C73  1  0.89799531  0.33265776  0.00100202  1  0  -0.009742  0.027425  0  3.992275  0
C  C74  1  0.67633095  0.61253605  0.53425865  1  0  -0.009991  0.024708  0  3.997881  0
C  C75  1  0.06455121  0.38763424  0.96572477  1  0  -0.009545  0.024757  0  3.998176  0
C  C76  1  0.32367869  0.38747360  0.46574055  1  0  -0.010138  0.024467  0  3.997956  0
C  C77  1  0.93544342  0.61235994  0.03427787  1  0  -0.009471  0.024887  0  3.998086  0
C  C78  1  0.71757304  0.38817011  0.57245049  1  0  -0.003244  0.085312  0  3.998029  0
C  C79  1  0.33007518  0.61236219  0.92776419  1  0  -0.002849  0.085919  0  3.998195  0
C  C80  1  0.28243681  0.61183704  0.42754700  1  0  -0.003245  0.085181  0  3.998351  0
C  C81  1  0.66991627  0.38763437  0.07223779  1  0  -0.002901  0.085896  0  3.998398  0
C  C82  1  0.69975456  0.24671890  0.64585316  1  0  -0.084835  -0.08664  0  3.979338  0
C  C83  1  0.45367825  0.75367432  0.85434922  1  0  -0.084859  -0.086221  0  3.978418  0
C  C84  1  0.30025966  0.75328827  0.35414473  1  0  -0.084769  -0.086473  0  3.979299  0
C  C85  1  0.54630449  0.24632225  0.14565316  1  0  -0.084859  -0.086243  0  3.978568  0
C  C86  1  0.60476044  0.30711379  0.61163740  1  0  -0.091115  -0.136276  0  3.966247  0
C  C87  1  0.29824631  0.69329214  0.88855146  1  0  -0.091272  -0.135971  0  3.965419  0
C  C88  1  0.39525151  0.69289465  0.38836173  1  0  -0.091106  -0.136238  0  3.966356  0
C  C89  1  0.70174104  0.30670202  0.11145078  1  0  -0.091218  -0.13601  0  3.965541  0
C  C90  1  0.02578986  0.34963535  0.60391891  1  0  -0.087049  -0.0955  0  3.99389  0
C  C91  1  0.67696698  0.65097470  0.89634974  1  0  -0.08657  -0.093523  0  3.993908  0
C  C92  1  0.97421977  0.65035970  0.39607750  1  0  -0.08707  -0.095559  0  3.994058  0
C  C93  1  0.32302360  0.34902300  0.10365114  1  0  -0.08654  -0.09341  0  3.9939  0
C  C94  1  0.60956486  0.44582706  0.53513006  1  0  -0.007902  -0.04131  0  3.944549  0
C  C95  1  0.16411539  0.55444682  0.96499762  1  0  -0.007747  -0.040517  0  3.946281  0
C  C96  1  0.39045153  0.55418737  0.46486864  1  0  -0.007852  -0.041114  0  3.944273  0
C  C97  1  0.83587282  0.44554615  0.03500494  1  0  -0.007739  -0.040534  0  3.946304  0
C  C98  1  0.63227313  0.83728160  0.50078760  1  0  -0.095193  -0.134846  0  3.972977  0
C  C99  1  0.79562756  0.16260448  0.99895216  1  0  -0.094704  -0.133341  0  3.972557  0
C  C100  1  0.36774336  0.16272428  0.49920865  1  0  -0.095187  -0.134784  0  3.972908  0
C  C101  1  0.20436561  0.83738968  0.00105008  1  0  -0.094615  -0.133315  0  3.972563  0
C  C102  1  0.01091797  0.19740797  0.67856830  1  0  0.199887  0.556912  0  4.251198  0
C  C103  1  0.81420701  0.80303107  0.82166754  1  0  0.200221  0.558625  0  4.249871  0
C  C104  1  0.98909276  0.80259804  0.32143030  1  0  0.199843  0.556737  0  4.251174  0
C  C105  1  0.18578503  0.19696664  0.17833373  1  0  0.200293  0.558728  0  4.24987  0
C  C106  1  0.80056342  0.94639920  0.53399822  1  0  -0.091753  -0.071398  0  4.020232  0
C  C107  1  0.85534306  0.05368948  0.96571245  1  0  -0.092835  -0.074822  0  4.023361  0
C  C108  1  0.19945486  0.05361026  0.46599745  1  0  -0.09185  -0.071644  0  4.020345  0
C  C109  1  0.14464658  0.94630343  0.03428894  1  0  -0.092865  -0.074807  0  4.023346  0
C  C110  1  0.84851304  0.73091692  0.56883664  1  0  -0.095266  -0.136847  0  3.98813  0
C  C111  1  0.11920626  0.26942605  0.93115881  1  0  -0.095524  -0.137553  0  3.986276  0
C  C112  1  0.15149832  0.26909035  0.43116321  1  0  -0.095289  -0.136913  0  3.988221  0
C  C113  1  0.88078804  0.73056454  0.06884440  1  0  -0.095549  -0.137649  0  3.986266  0
C  C114  1  0.91107272  0.89262435  0.56829795  1  0  -0.09225  -0.081327  0  4.01162  0
C  C115  1  0.02012344  0.10763687  0.93155049  1  0  -0.091733  -0.078808  0  4.008587  0
C  C116  1  0.08893714  0.10738284  0.43170033  1  0  -0.092211  -0.081143  0  4.011633  0
C  C117  1  0.97986769  0.89235612  0.06845247  1  0  -0.091644  -0.078716  0  4.008436  0
C  C118  1  0.43424902  0.22417537  0.78720134  1  0  0.181472  0.297387  0  4.051574  0
C  C119  1  0.20949019  0.77574657  0.71277617  1  0  0.181302  0.295784  0  4.052197  0
C  C120  1  0.56574411  0.77581871  0.21279933  1  0  0.181398  0.297273  0  4.051697  0
C  C121  1  0.79049916  0.22424867  0.28722378  1  0  0.18124  0.295804  0  4.052312  0
C  C122  1  0.61515834  0.20645735  0.86621032  1  0  -0.134155  -0.275511  0  3.856613  0
C  C123  1  0.40866349  0.79376989  0.63380781  1  0  -0.134322  -0.277206  0  3.855647  0
C  C124  1  0.38484042  0.79354508  0.13378886  1  0  -0.134095  -0.275419  0  3.856683  0
C  C125  1  0.59133350  0.20622899  0.36619274  1  0  -0.134366  -0.277222  0  3.855638  0
C  C126  1  0.81332795  0.36613084  0.80004672  1  0  -0.132173  -0.276133  0  3.878859  0
C  C127  1  0.44730829  0.63409454  0.69997064  1  0  -0.132224  -0.276541  0  3.878711  0
C  C128  1  0.18666585  0.63387040  0.19995279  1  0  -0.132203  -0.276286  0  3.87895  0
C  C129  1  0.55268541  0.36590066  0.30002853  1  0  -0.132178  -0.27653  0  3.878819  0
N  N130  1  0.61209553  0.26469572  0.81667217  1  0  -0.269004  0.056961  0  3.714937  0
N  N131  1  0.34726802  0.73545357  0.68333094  1  0  -0.269414  0.057877  0  3.715051  0
N  N132  1  0.38790324  0.73530674  0.18332780  1  0  -0.269042  0.05696  0  3.714941  0
N  N133  1  0.65272833  0.26454405  0.31666836  1  0  -0.269368  0.057931  0  3.71532  0
O  O134  1  0.87974966  0.09996208  0.70577691  1  0  -0.335912  -0.570992  0  2.334272  0
O  O135  1  0.78044601  0.90058599  0.79449249  1  0  -0.335844  -0.571522  0  2.333107  0
O  O136  1  0.12026002  0.90004767  0.29422426  1  0  -0.335854  -0.57079  0  2.334308  0
O  O137  1  0.21954953  0.09941292  0.20550845  1  0  -0.335875  -0.571524  0  2.333065  0
O  O138  1  0.20577449  0.23280591  0.68087590  1  0  -0.319274  -0.556692  0  2.172552  0
O  O139  1  0.97355954  0.76740006  0.81928727  1  0  -0.319432  -0.557536  0  2.173962  0
O  O140  1  0.79423116  0.76719282  0.31912190  1  0  -0.319322  -0.556749  0  2.172475  0
O  O141  1  0.02643106  0.23259769  0.18071478  1  0  -0.319408  -0.55755  0  2.173988  0
O  O142  1  0.25583535  0.13902771  0.80102480  1  0  -0.308792  -0.474873  0  2.43134  0
O  O143  1  0.11573728  0.86061621  0.69892011  1  0  -0.308681  -0.474408  0  2.431227  0
O  O144  1  0.74415924  0.86096637  0.19897587  1  0  -0.308745  -0.474826  0  2.431326  0
O  O145  1  0.88425208  0.13937905  0.30108024  1  0  -0.308679  -0.474479  0  2.431184  0
