# generated using pymatgen
data_ZnH11C15Br3NO4
_symmetry_space_group_name_H-M   'P 1'
_cell_length_a   10.11939258
_cell_length_b   11.26104477
_cell_length_c   13.77871325
_cell_angle_alpha   85.11374390
_cell_angle_beta   111.34766855
_cell_angle_gamma   93.26694022
_symmetry_Int_Tables_number   1
_chemical_formula_structural   ZnH11C15Br3NO4
_chemical_formula_sum   'Zn2 H22 C30 Br6 N2 O8'
_cell_volume   1456.53617646
_cell_formula_units_Z   2
loop_
 _symmetry_equiv_pos_site_id
 _symmetry_equiv_pos_as_xyz
  1  'x, y, z'
loop_
 _atom_site_type_symbol
 _atom_site_label
 _atom_site_symmetry_multiplicity
 _atom_site_fract_x
 _atom_site_fract_y
 _atom_site_fract_z
 _atom_site_occupancy
 _atom_site_pbe_bader_charge
 _atom_site_pbe_bader_spin_density
 _atom_site_pbe_cm5_charge
 _atom_site_pbe_ddec_charge
 _atom_site_pbe_ddec_spin_density
 _atom_site_pbe_ddec_sum_bond_order
 _atom_site_pbe_magmom
Zn  Zn0  1  0.64191522  0.47632829  0.51582679  1  1.297042  0  0.677051  0.876024  0  2.364124  0
Zn  Zn1  1  0.34912641  0.46958703  0.48249420  1  1.300611  0  0.669781  0.85318  0  2.372407  0
H  H2  1  0.25028500  0.64108770  0.17715482  1  0.08371  0  0.10944  0.128838  0  0.987175  0
H  H3  1  0.06717022  0.77125178  0.66735800  1  0.021236  0  0.076806  0.101393  0  1.018515  0
H  H4  1  0.09017146  0.55343270  0.72346613  1  0.012463  0  0.083059  0.077004  0  0.99614  0
H  H5  1  0.07144482  0.63436848  0.82031599  1  0.051003  0  0.079175  0.075384  0  1.108095  0
H  H6  1  0.71045767  0.66284762  0.72609480  1  0.041567  0  0.081379  0.119192  0  1.034051  0
H  H7  1  0.79938637  0.71036405  0.85417130  1  0.028128  0  0.078992  0.109219  0  1.009107  0
H  H8  1  0.89078841  0.70863906  0.76633816  1  0.03305  0  0.078847  0.11174  0  1.03731  0
H  H9  1  0.95820698  0.53357523  0.89810783  1  0.034083  0  0.084809  0.075085  0  1.050719  0
H  H10  1  0.86466295  0.48120234  0.77360664  1  0.083035  0  0.092125  0.102937  0  1.007111  0
H  H11  1  0.94492613  0.24056039  0.03834111  1  0.026843  0  0.08382  0.111909  0  1.00264  0
H  H12  1  0.00376620  0.33231231  0.95024428  1  0.030835  0  0.08606  0.117116  0  1.008531  0
H  H13  1  0.59452670  0.87975808  0.47945691  1  0.114461  0  0.113833  0.148859  0  0.972916  0
H  H14  1  0.11602049  0.31231986  0.08372629  1  0.004292  0  0.081409  0.116908  0  1.009879  0
H  H15  1  0.00590460  0.51133196  0.05197729  1  0.017297  0  0.085054  0.078287  0  1.025379  0
H  H16  1  0.94725372  0.41865195  0.13798609  1  0.029038  0  0.089765  0.088965  0  0.975863  0
H  H17  1  0.89504254  0.64834580  0.49741796  1  0.12589  0  0.140567  0.106513  0  0.937638  0
H  H18  1  0.88298682  0.38792595  0.52158526  1  0.459036  0  0.283673  0.256587  0  1.019506  0
H  H19  1  0.12879923  0.63079759  0.49297245  1  0.178851  0  0.133092  0.114666  0  1.004823  0
H  H20  1  0.72147133  0.42111451  0.11696941  1  0.106484  0  0.084582  0.088695  0  1.080912  0
H  H21  1  0.31472349  0.50993518  0.72430216  1  0.120302  0  0.098738  0.116234  0  1.070165  0
H  H22  1  0.21918618  0.80507238  0.77754620  1  0.030601  0  0.080417  0.113805  0  1.020054  0
H  H23  1  0.23787185  0.72317682  0.67919517  1  0.006911  0  0.078413  0.109291  0  1.025121  0
C  C24  1  0.49820287  0.24167122  0.51416409  1  1.656666  0  0.202228  0.604253  0  4.236762  0
C  C25  1  0.60011327  0.47254331  0.81500107  1  -0.020984  0  -0.014988  -0.140266  0  3.84757  0
C  C26  1  0.38409621  0.91182699  0.44973783  1  -0.137526  0  -0.011137  0.123209  0  3.988907  0
C  C27  1  0.55689695  0.47460670  0.69801928  1  1.561429  0  0.220339  0.605245  0  4.123521  0
C  C28  1  0.49097839  0.83715990  0.46873000  1  0.073121  0  -0.097369  -0.274607  0  3.873632  0
C  C29  1  0.40493732  0.04120261  0.44493632  1  0.005306  0  -0.041028  -0.008147  0  4.024577  0
C  C30  1  0.48459582  0.10735789  0.52326593  1  -0.00651  0  -0.024301  -0.056091  0  3.869749  0
C  C31  1  0.92888755  0.55652028  0.50253748  1  0.715455  0  0.117712  0.190069  0  3.850963  0
C  C32  1  0.06803004  0.54614640  0.49197479  1  0.601129  0  0.095649  0.080568  0  3.830958  0
C  C33  1  0.49059396  0.70505942  0.48000874  1  1.585439  0  0.210191  0.657199  0  4.152292  0
C  C34  1  0.41841666  0.47683346  0.29908154  1  1.583209  0  0.213359  0.611108  0  4.171162  0
C  C35  1  0.54095149  0.45846981  0.97507350  1  -0.046445  0  -0.014183  0.022747  0  3.992005  0
C  C36  1  0.26672836  0.62245648  0.02795917  1  -0.150721  0  -0.014161  0.061192  0  3.942105  0
C  C37  1  0.38962576  0.50023656  0.18435919  1  0.005818  0  -0.021676  -0.052257  0  3.983  0
C  C38  1  0.74560506  0.47575217  0.87759194  1  -0.013643  0  0.01203  0.092175  0  3.830744  0
C  C39  1  0.78727637  0.44779453  0.98688491  1  0.052264  0  -0.009784  0.066103  0  3.92137  0
C  C40  1  0.68498363  0.43657675  0.03250208  1  -0.068065  0  -0.092995  -0.172933  0  3.99009  0
C  C41  1  0.14372889  0.61984756  0.78060797  1  -0.007925  0  -0.174445  -0.158784  0  4.003405  0
C  C42  1  0.16844784  0.73629391  0.72271305  1  -0.056348  0  -0.251868  -0.35932  0  3.976707  0
C  C43  1  0.85433318  0.53170999  0.83474177  1  -0.043623  0  -0.170976  -0.163861  0  3.966654  0
C  C44  1  0.81121543  0.66058954  0.79269818  1  -0.079747  0  -0.252529  -0.361556  0  3.947859  0
C  C45  1  0.94089858  0.43073647  0.05635747  1  0.000124  0  -0.161136  -0.134814  0  3.966547  0
C  C46  1  0.49770169  0.47463680  0.86430172  1  0.00948  0  -0.000837  0.078297  0  3.990423  0
C  C47  1  0.00528247  0.32282975  0.03067704  1  -0.042107  0  -0.243791  -0.349489  0  3.948862  0
C  C48  1  0.44309440  0.48427253  0.02588580  1  0.006848  0  0.000675  0.01209  0  3.908314  0
C  C49  1  0.32679632  0.56182653  0.96796952  1  0.059276  0  -0.003535  -0.010485  0  3.923202  0
C  C50  1  0.27904201  0.56491495  0.85532373  1  -0.099909  0  -0.012196  0.085512  0  3.927523  0
C  C51  1  0.35605406  0.51106223  0.80867336  1  -0.019431  0  -0.097714  -0.183031  0  3.952586  0
C  C52  1  0.46057225  0.44670228  0.13074292  1  -0.073537  0  -0.010124  0.041163  0  3.878778  0
C  C53  1  0.29712656  0.59280431  0.13299798  1  0.116346  0  -0.097831  -0.161306  0  4.016699  0
Br  Br54  1  0.30753571  0.12073651  0.31132050  1  -0.019746  0  0.036217  -0.029018  0  1.491928  0
Br  Br55  1  0.58431867  0.03999866  0.65992005  1  -0.014132  0  0.048333  -2.1e-05  0  1.350759  0
Br  Br56  1  0.05333807  0.30129676  0.47173391  1  0.233614  0  0.229267  0.136907  0  1.383268  0
Br  Br57  1  0.15279324  0.76053968  0.97603190  1  -0.067811  0  0.059313  -0.042845  0  1.476248  0
Br  Br58  1  0.56485569  0.30784102  0.20021549  1  -0.056924  0  0.032729  -0.056224  0  1.52285  0
Br  Br59  1  0.19157963  0.86422196  0.43024768  1  -0.052728  0  0.027844  -0.056504  0  1.457671  0
N  N60  1  0.84635186  0.47221732  0.51788436  1  -1.18521  0  -0.432239  -0.374165  0  3.24145  0
N  N61  1  0.13425850  0.45748711  0.47992693  1  -0.953064  0  -0.270089  -0.14845  0  3.192286  0
O  O62  1  0.60935843  0.28750782  0.50391136  1  -1.151912  0  -0.312821  -0.529261  0  2.259718  0
O  O63  1  0.39341050  0.29414620  0.51963856  1  -1.156718  0  -0.316993  -0.549806  0  2.379636  0
O  O64  1  0.64975116  0.44309417  0.66308494  1  -1.167881  0  -0.314481  -0.543334  0  2.384328  0
O  O65  1  0.43149511  0.50304245  0.63811275  1  -1.172247  0  -0.314593  -0.545775  0  2.370184  0
O  O66  1  0.61316110  0.65906368  0.51560448  1  -1.150588  0  -0.319838  -0.555214  0  2.238811  0
O  O67  1  0.37128501  0.64870065  0.45290097  1  -1.170048  0  -0.32133  -0.553501  0  2.352807  0
O  O68  1  0.54664158  0.49443073  0.35821936  1  -1.163424  0  -0.319857  -0.560172  0  2.376312  0
O  O69  1  0.31341758  0.45046735  0.32745762  1  -1.153342  0  -0.31593  -0.53443  0  2.276649  0
