# generated using pymatgen
data_TbH19C20(NO2)6
_symmetry_space_group_name_H-M   'P 1'
_cell_length_a   8.63749709
_cell_length_b   12.79424070
_cell_length_c   13.31790786
_cell_angle_alpha   97.00970901
_cell_angle_beta   105.86997407
_cell_angle_gamma   105.54486136
_symmetry_Int_Tables_number   1
_chemical_formula_structural   TbH19C20(NO2)6
_chemical_formula_sum   'Tb2 H38 C40 N12 O24'
_cell_volume   1333.24529179
_cell_formula_units_Z   2
loop_
 _symmetry_equiv_pos_site_id
 _symmetry_equiv_pos_as_xyz
  1  'x, y, z'
loop_
 _atom_site_type_symbol
 _atom_site_label
 _atom_site_symmetry_multiplicity
 _atom_site_fract_x
 _atom_site_fract_y
 _atom_site_fract_z
 _atom_site_occupancy
 _atom_site_pbe_bader_charge
 _atom_site_pbe_bader_spin_density
 _atom_site_pbe_cm5_charge
 _atom_site_pbe_ddec_charge
 _atom_site_pbe_ddec_spin_density
 _atom_site_pbe_ddec_sum_bond_order
 _atom_site_pbe_magmom
Tb  Tb0  1  0.83824877  0.07678370  0.54067433  1  2.176986  0  1.46872  2.090849  0  2.059699  0
Tb  Tb1  1  0.16173181  0.92320931  0.45933040  1  2.176956  0  1.468748  2.090849  0  2.059712  0
H  H2  1  0.60937959  0.90565848  0.92701328  1  0.076009  0  0.10951  0.124553  0  0.994567  0
H  H3  1  0.39060300  0.09433107  0.07298470  1  0.075872  0  0.10955  0.124607  0  0.994533  0
H  H4  1  0.43720646  0.85719993  0.73230439  1  0.120742  0  0.110749  0.087586  0  1.030467  0
H  H5  1  0.56280099  0.14279113  0.26769300  1  0.120975  0  0.110741  0.087588  0  1.030507  0
H  H6  1  0.98635449  0.76096973  0.80016434  1  0.066792  0  0.109708  0.081453  0  1.001897  0
H  H7  1  0.01364983  0.23903448  0.19982628  1  0.066823  0  0.109715  0.081496  0  1.001882  0
H  H8  1  0.14023030  0.80393416  0.99739607  1  0.101718  0  0.105933  0.121253  0  1.008704  0
H  H9  1  0.85975111  0.19606034  0.00259994  1  0.101755  0  0.105917  0.121192  0  1.008854  0
H  H10  1  0.86716064  0.96228463  0.70909470  1  0.641521  0  0.33332  0.424005  0  0.870142  0
H  H11  1  0.13282316  0.03770750  0.29090827  1  0.641483  0  0.333319  0.423937  0  0.870244  0
H  H12  1  0.69462093  0.87273967  0.63576955  1  0.640885  0  0.335117  0.424931  0  0.860185  0
H  H13  1  0.30536888  0.12724977  0.36422448  1  0.640911  0  0.335204  0.425002  0  0.860062  0
H  H14  1  0.97376052  0.33599452  0.66828962  1  0.656859  0  0.304747  0.41386  0  0.908317  0
H  H15  1  0.02624300  0.66401061  0.33170545  1  0.656842  0  0.304702  0.413807  0  0.908404  0
H  H16  1  0.99468300  0.30518878  0.55363415  1  0.618918  0  0.315997  0.40854  0  0.897986  0
H  H17  1  0.00530280  0.69479984  0.44635907  1  0.618759  0  0.316025  0.408508  0  0.898026  0
H  H18  1  0.05396016  0.15719575  0.41109058  1  0.62875  0  0.299927  0.397334  0  0.930497  0
H  H19  1  0.94603688  0.84280132  0.58891453  1  0.628722  0  0.300015  0.397432  0  0.930346  0
H  H20  1  0.89139651  0.19327804  0.35445184  1  0.614667  0  0.276258  0.32965  0  1.040562  0
H  H21  1  0.10859416  0.80672042  0.64553723  1  0.614741  0  0.276348  0.329732  0  1.040484  0
H  H22  1  0.52837136  0.12053574  0.48277321  1  0.641978  0  0.291772  0.366617  0  1.002318  0
H  H23  1  0.47161126  0.87946133  0.51722778  1  0.642026  0  0.291763  0.366528  0  1.002443  0
H  H24  1  0.65008166  0.23601025  0.48128550  1  0.633598  0  0.316439  0.402761  0  0.895439  0
H  H25  1  0.34989175  0.76398764  0.51871164  1  0.633677  0  0.316476  0.40278  0  0.8954  0
H  H26  1  0.17448497  0.52814345  0.15279233  1  0.052473  0  0.098087  0.096649  0  1.029088  0
H  H27  1  0.82551487  0.47184932  0.84720536  1  0.051952  0  0.098055  0.096604  0  1.029152  0
H  H28  1  0.21420397  0.55015730  0.34452663  1  0.121765  0  0.112816  0.081872  0  0.992895  0
H  H29  1  0.78579149  0.44984125  0.65546858  1  0.121748  0  0.112764  0.08183  0  0.992912  0
H  H30  1  0.71226511  0.69872772  0.23402248  1  0.121547  0  0.113604  0.126704  0  1.014167  0
H  H31  1  0.28774641  0.30127922  0.76598325  1  0.120946  0  0.113612  0.126719  0  1.014071  0
H  H32  1  0.72633869  0.72024943  0.42564983  1  0.081788  0  0.115557  0.081135  0  1.004765  0
H  H33  1  0.27365119  0.27975759  0.57435347  1  0.081724  0  0.115473  0.081052  0  1.004901  0
H  H34  1  0.17449855  0.50570993  0.97860460  1  0.485999  0  0.343193  0.300001  0  0.895673  0
H  H35  1  0.82552226  0.49430321  0.02138091  1  0.48604  0  0.343159  0.300011  0  0.895856  0
H  H36  1  0.36738890  0.58151775  0.71551177  1  0.647171  0  0.307473  0.362377  0  0.960163  0
H  H37  1  0.63264833  0.41849719  0.28448590  1  0.647337  0  0.307525  0.362513  0  0.959985  0
H  H38  1  0.76687531  0.75259651  0.99510031  1  0.676421  0  0.342031  0.390067  0  0.865699  0
H  H39  1  0.23314502  0.24741400  0.00492088  1  0.676755  0  0.342157  0.390345  0  0.865399  0
C  C40  1  0.84319561  0.91658304  0.31110539  1  1.445166  0  0.200344  0.582334  0  4.210337  0
C  C41  1  0.15678176  0.08340835  0.68890009  1  1.445435  0  0.20025  0.582212  0  4.210454  0
C  C42  1  0.67759335  0.91046773  0.23921713  1  0.429865  0  0.072219  -0.010266  0  4.010743  0
C  C43  1  0.32238882  0.08952105  0.76078371  1  0.429252  0  0.07219  -0.010214  0  4.010724  0
C  C44  1  0.52013572  0.90561540  0.25897746  1  0.473271  0  0.073767  -0.020933  0  4.014393  0
C  C45  1  0.47983966  0.09437674  0.74102323  1  0.47367  0  0.073757  -0.020851  0  4.014671  0
C  C46  1  0.47161294  0.91437955  0.35604803  1  1.509983  0  0.22712  0.629086  0  4.137899  0
C  C47  1  0.52835922  0.08561360  0.64396119  1  1.510045  0  0.227252  0.629304  0  4.137858  0
C  C48  1  0.47931389  0.87850156  0.09106576  1  0.942459  0  0.179084  0.242645  0  4.110452  0
C  C49  1  0.52067512  0.12149131  0.90893372  1  0.942463  0  0.179123  0.242878  0  4.11023  0
C  C50  1  0.38774910  0.85520919  0.97755822  1  0.01229  0  0.012886  0.081519  0  3.977827  0
C  C51  1  0.61224754  0.14478694  0.02244072  1  0.01193  0  0.012852  0.081539  0  3.97793  0
C  C52  1  0.47174372  0.87128104  0.90143489  1  -0.000352  0  -0.088382  -0.171936  0  3.953102  0
C  C53  1  0.52824566  0.12870261  0.09855999  1  -0.000287  0  -0.088396  -0.172051  0  3.953003  0
C  C54  1  0.37720602  0.84520730  0.79394778  1  0.474207  0  0.035068  0.082529  0  3.971821  0
C  C55  1  0.62279822  0.15478210  0.20604886  1  0.474159  0  0.035154  0.082684  0  3.971799  0
C  C56  1  0.12480090  0.79128738  0.83141143  1  0.486306  0  0.032235  0.074111  0  3.997772  0
C  C57  1  0.87520422  0.20871860  0.16858552  1  0.486243  0  0.032221  0.074124  0  3.997872  0
C  C58  1  0.20921234  0.81503447  0.94020488  1  -0.074951  0  -0.09232  -0.174921  0  3.955178  0
C  C59  1  0.79078112  0.18496752  0.05979632  1  -0.074818  0  -0.092299  -0.174924  0  3.955589  0
C  C60  1  0.20200737  0.51298693  0.78215943  1  1.591361  0  0.233291  0.551359  0  4.206562  0
C  C61  1  0.79802788  0.48703128  0.21783520  1  1.589945  0  0.233127  0.551163  0  4.207317  0
C  C62  1  0.32690517  0.56758643  0.88688037  1  0.433667  0  0.093446  -0.004037  0  3.988198  0
C  C63  1  0.67311599  0.43242033  0.11311882  1  0.433453  0  0.093426  -0.004084  0  3.988181  0
C  C64  1  0.49822126  0.63013576  0.92207596  1  0.448034  0  0.081873  -0.038488  0  4.121687  0
C  C65  1  0.50180147  0.36986949  0.07793088  1  0.447578  0  0.081831  -0.038445  0  4.121702  0
C  C66  1  0.60734258  0.67494431  0.86035345  1  1.498536  0  0.238775  0.553069  0  4.16934  0
C  C67  1  0.39269460  0.32506592  0.13965876  1  1.499466  0  0.238851  0.55314  0  4.169564  0
C  C68  1  0.43250871  0.60556700  0.06485924  1  0.983181  0  0.23756  0.317554  0  3.955711  0
C  C69  1  0.56750003  0.39443893  0.93513612  1  0.983392  0  0.237656  0.317579  0  3.955318  0
C  C70  1  0.44243837  0.61218995  0.17657763  1  -0.024028  0  0.000363  0.028845  0  4.032073  0
C  C71  1  0.55756233  0.38780924  0.82340883  1  -0.024119  0  0.00044  0.028721  0  4.032255  0
C  C72  1  0.30127152  0.56973731  0.20915418  1  -0.002832  0  -0.087825  -0.15477  0  3.947307  0
C  C73  1  0.69873197  0.43026029  0.79083714  1  -0.001404  0  -0.087735  -0.154542  0  3.947352  0
C  C74  1  0.32274386  0.58333585  0.31804597  1  0.500403  0  0.044638  0.106594  0  3.97748  0
C  C75  1  0.67725043  0.41666513  0.68194552  1  0.500587  0  0.04469  0.106609  0  3.977318  0
C  C76  1  0.59939397  0.66513517  0.25611375  1  -0.005523  0  -0.080446  -0.155846  0  3.928659  0
C  C77  1  0.40060349  0.33486001  0.74387924  1  -0.005484  0  -0.080506  -0.155744  0  3.92854  0
C  C78  1  0.60633737  0.67624276  0.36274247  1  0.501743  0  0.046445  0.106703  0  3.966651  0
C  C79  1  0.39365209  0.32375831  0.63725265  1  0.501846  0  0.046598  0.106827  0  3.966728  0
N  N80  1  0.64816455  0.89371528  0.13183679  1  -1.102475  0  -0.343617  -0.380067  0  3.225626  0
N  N81  1  0.35182525  0.10627430  0.86816476  1  -1.102698  0  -0.343679  -0.380237  0  3.225759  0
N  N82  1  0.39695627  0.88362528  0.16382775  1  -1.136875  0  -0.344012  -0.370073  0  3.237311  0
N  N83  1  0.60302312  0.11636510  0.83616898  1  -1.137098  0  -0.344043  -0.370257  0  3.23734  0
N  N84  1  0.20668680  0.80500597  0.75868150  1  -1.266914  0  -0.321503  -0.243077  0  3.457355  0
N  N85  1  0.79331986  0.19498842  0.24131683  1  -1.266806  0  -0.321486  -0.243136  0  3.457583  0
N  N86  1  0.28915679  0.55383900  0.97889352  1  -1.221789  0  -0.359052  -0.255779  0  3.617482  0
N  N87  1  0.71086398  0.44616936  0.02110201  1  -1.2219  0  -0.358983  -0.255768  0  3.617572  0
N  N88  1  0.56184392  0.65102349  0.03070213  1  -1.146039  0  -0.31456  -0.352446  0  3.281161  0
N  N89  1  0.43817682  0.34898259  0.96930443  1  -1.146245  0  -0.314569  -0.352409  0  3.280928  0
N  N90  1  0.47125022  0.63736150  0.39473985  1  -1.207193  0  -0.325816  -0.27405  0  3.273467  0
N  N91  1  0.52873764  0.36263874  0.60525490  1  -1.207322  0  -0.325922  -0.274167  0  3.27348  0
O  O92  1  0.58428670  0.93331836  0.44931311  1  -1.206875  0  -0.411383  -0.69023  0  2.403723  0
O  O93  1  0.41570839  0.06668949  0.55069122  1  -1.207232  0  -0.411315  -0.690253  0  2.403494  0
O  O94  1  0.31693274  0.90153942  0.34668753  1  -1.176264  0  -0.408399  -0.650974  0  2.309513  0
O  O95  1  0.68303022  0.09845440  0.65331107  1  -1.175853  0  -0.408508  -0.651176  0  2.309408  0
O  O96  1  0.88042034  0.94480175  0.41443396  1  -1.194339  0  -0.465665  -0.772555  0  2.45879  0
O  O97  1  0.11955587  0.05519705  0.58556829  1  -1.194248  0  -0.46562  -0.772522  0  2.458777  0
O  O98  1  0.95509583  0.89149321  0.27624689  1  -1.16675  0  -0.364142  -0.60845  0  2.160761  0
O  O99  1  0.04488192  0.10849409  0.72376200  1  -1.166497  0  -0.364001  -0.60838  0  2.160923  0
O  O100  1  0.81054680  0.91132111  0.63895617  1  -1.238451  0  -0.569068  -0.780877  0  2.047796  0
O  O101  1  0.18944265  0.08867755  0.36104321  1  -1.238438  0  -0.569166  -0.780886  0  2.047695  0
O  O102  1  0.93257677  0.27843456  0.60157213  1  -1.255906  0  -0.628558  -0.843929  0  2.064754  0
O  O103  1  0.06742108  0.72156163  0.39843079  1  -1.255708  0  -0.628544  -0.843865  0  2.064911  0
O  O104  1  0.96522219  0.18313043  0.42902727  1  -1.277964  0  -0.643768  -0.865076  0  2.117527  0
O  O105  1  0.03477804  0.81686597  0.57098737  1  -1.278077  0  -0.643938  -0.865174  0  2.117575  0
O  O106  1  0.61149432  0.15759977  0.44637480  1  -1.278781  0  -0.606957  -0.816987  0  2.055506  0
O  O107  1  0.38849431  0.84239723  0.55362427  1  -1.278933  0  -0.60698  -0.816928  0  2.055593  0
O  O108  1  0.06261557  0.44803958  0.77647785  1  -1.154747  0  -0.277471  -0.492326  0  2.173781  0
O  O109  1  0.93741411  0.55198444  0.22351560  1  -1.154237  0  -0.277304  -0.492083  0  2.174247  0
O  O110  1  0.24364445  0.53222709  0.69601289  1  -1.138528  0  -0.317301  -0.451545  0  2.276184  0
O  O111  1  0.75639720  0.46778693  0.30398174  1  -1.13817  0  -0.317424  -0.451765  0  2.276461  0
O  O112  1  0.56227653  0.65528254  0.76155320  1  -1.105556  0  -0.265513  -0.454682  0  2.155164  0
O  O113  1  0.43777233  0.34473668  0.23845528  1  -1.105813  0  -0.265478  -0.454631  0  2.155355  0
O  O114  1  0.76346440  0.74037796  0.91925428  1  -1.153931  0  -0.304436  -0.434309  0  2.237003  0
O  O115  1  0.23657440  0.25963828  0.08076934  1  -1.154113  0  -0.304666  -0.434733  0  2.236904  0
