# generated using pymatgen
data_ZnH15C19(NO)4
_symmetry_space_group_name_H-M   'P 1'
_cell_length_a   10.91735024
_cell_length_b   12.04628902
_cell_length_c   16.29166140
_cell_angle_alpha   90.00003836
_cell_angle_beta   89.99973906
_cell_angle_gamma   92.56384249
_symmetry_Int_Tables_number   1
_chemical_formula_structural   ZnH15C19(NO)4
_chemical_formula_sum   'Zn4 H60 C76 N16 O16'
_cell_volume   2140.42960851
_cell_formula_units_Z   4
loop_
 _symmetry_equiv_pos_site_id
 _symmetry_equiv_pos_as_xyz
  1  'x, y, z'
loop_
 _atom_site_type_symbol
 _atom_site_label
 _atom_site_symmetry_multiplicity
 _atom_site_fract_x
 _atom_site_fract_y
 _atom_site_fract_z
 _atom_site_occupancy
 _atom_site_pbe_bader_charge
 _atom_site_pbe_bader_spin_density
 _atom_site_pbe_cm5_charge
 _atom_site_pbe_ddec_charge
 _atom_site_pbe_ddec_spin_density
 _atom_site_pbe_ddec_sum_bond_order
 _atom_site_pbe_magmom
Zn  Zn0  1  0.85085723  0.14536980  0.69985068  1  1.253275  0  0.69142  0.776911  0  2.385577  0
Zn  Zn1  1  0.14914315  0.35463306  0.19985303  1  1.253317  0  0.691409  0.776877  0  2.385595  0
Zn  Zn2  1  0.14914120  0.85463145  0.30014924  1  1.253262  0  0.691416  0.776917  0  2.385598  0
Zn  Zn3  1  0.85085439  0.64536902  0.80014936  1  1.253259  0  0.691398  0.776875  0  2.385532  0
H  H4  1  0.65742458  0.09998526  0.85276722  1  0.132465  0  0.118591  0.121211  0  1.022006  0
H  H5  1  0.34259025  0.40001695  0.35276534  1  0.132481  0  0.118611  0.121196  0  1.022041  0
H  H6  1  0.34257627  0.90000852  0.14722841  1  0.132434  0  0.11864  0.121279  0  1.022068  0
H  H7  1  0.65741262  0.59998100  0.64723459  1  0.132405  0  0.118611  0.12124  0  1.022008  0
H  H8  1  0.45300331  0.23172062  0.86685328  1  0.133146  0  0.130514  0.13719  0  0.983349  0
H  H9  1  0.54700540  0.26826910  0.36684399  1  0.133284  0  0.130513  0.137218  0  0.98341  0
H  H10  1  0.54699177  0.76826648  0.13314542  1  0.133213  0  0.130498  0.137202  0  0.983416  0
H  H11  1  0.45299920  0.73172637  0.63314980  1  0.133251  0  0.130529  0.137239  0  0.983433  0
H  H12  1  0.66597085  0.33440369  0.66065856  1  0.213462  0  0.13906  0.118486  0  1.023668  0
H  H13  1  0.33401680  0.16559490  0.16066027  1  0.213415  0  0.139069  0.118509  0  1.023648  0
H  H14  1  0.33402120  0.66559835  0.33934076  1  0.213496  0  0.139087  0.118465  0  1.023737  0
H  H15  1  0.66597694  0.83440382  0.83933843  1  0.213482  0  0.139053  0.118494  0  1.023736  0
H  H16  1  0.35829047  0.34858498  0.72120778  1  0.06459  0  0.117669  0.103269  0  0.956227  0
H  H17  1  0.64169594  0.15139454  0.22118956  1  0.064967  0  0.117649  0.103182  0  0.956114  0
H  H18  1  0.64169643  0.65140374  0.27880382  1  0.064707  0  0.11764  0.103151  0  0.956172  0
H  H19  1  0.35829843  0.84859754  0.77880301  1  0.064754  0  0.117641  0.103205  0  0.956165  0
H  H20  1  0.48216900  0.43415749  0.68328331  1  0.095977  0  0.123712  0.110923  0  0.954495  0
H  H21  1  0.51780412  0.06582609  0.18328014  1  0.095658  0  0.123749  0.111022  0  0.954527  0
H  H22  1  0.51780888  0.56583450  0.31671724  1  0.095779  0  0.12377  0.111058  0  0.954473  0
H  H23  1  0.48218660  0.93416597  0.81671672  1  0.095769  0  0.123754  0.111024  0  0.954422  0
H  H24  1  0.62212029  0.49565562  0.83352562  1  0.106678  0  0.100998  0.102103  0  1.037601  0
H  H25  1  0.37787943  0.00433236  0.33352774  1  0.106838  0  0.100998  0.10214  0  1.037491  0
H  H26  1  0.37787789  0.50433981  0.16646694  1  0.106686  0  0.100976  0.102141  0  1.037589  0
H  H27  1  0.62211868  0.99566140  0.66646973  1  0.10673  0  0.101019  0.102199  0  1.037494  0
H  H28  1  0.59243015  0.63660848  0.94185167  1  0.098346  0  0.102442  0.109608  0  1.016036  0
H  H29  1  0.40758150  0.86338386  0.44185511  1  0.098359  0  0.102475  0.109673  0  1.016034  0
H  H30  1  0.40757821  0.36338950  0.05813967  1  0.098332  0  0.102453  0.109654  0  1.015981  0
H  H31  1  0.59242493  0.13661162  0.55814298  1  0.098316  0  0.102429  0.109629  0  1.016017  0
H  H32  1  0.38171810  0.68747113  0.98070806  1  0.04893  0  0.098651  0.09858  0  1.008928  0
H  H33  1  0.61829834  0.81253290  0.48070595  1  0.048971  0  0.098629  0.098532  0  1.008918  0
H  H34  1  0.61829600  0.31253270  0.01929187  1  0.048948  0  0.098657  0.098559  0  1.008897  0
H  H35  1  0.38170931  0.18747006  0.51929091  1  0.04889  0  0.098656  0.098564  0  1.008888  0
H  H36  1  0.23140634  0.46295946  0.79689579  1  0.087131  0  0.104252  0.111271  0  1.001079  0
H  H37  1  0.76859124  0.03703680  0.29688144  1  0.086771  0  0.104254  0.111342  0  1.001041  0
H  H38  1  0.76858909  0.53703595  0.20311519  1  0.086854  0  0.104253  0.1113  0  1.001025  0
H  H39  1  0.23140641  0.96296777  0.70311235  1  0.086839  0  0.104213  0.111205  0  1.001127  0
H  H40  1  0.14300394  0.69109855  0.90838736  1  0.086273  0  0.121192  0.119801  0  0.960212  0
H  H41  1  0.85701520  0.80891375  0.40837964  1  0.08653  0  0.121154  0.119721  0  0.960271  0
H  H42  1  0.85700675  0.30891107  0.09161748  1  0.086518  0  0.121147  0.119719  0  0.960252  0
H  H43  1  0.14299365  0.19109586  0.59161476  1  0.086401  0  0.121216  0.119817  0  0.960269  0
H  H44  1  0.09698993  0.55402604  0.88093286  1  0.073465  0  0.114469  0.103102  0  0.994173  0
H  H45  1  0.90301584  0.94599032  0.38092998  1  0.073412  0  0.114446  0.103024  0  0.994269  0
H  H46  1  0.90301082  0.44598685  0.11906829  1  0.073444  0  0.114415  0.103027  0  0.994307  0
H  H47  1  0.09699030  0.05402011  0.61906749  1  0.073632  0  0.114461  0.103099  0  0.994256  0
H  H48  1  0.11888880  0.74026582  0.05408596  1  0.158592  0  0.122752  0.124846  0  1.032547  0
H  H49  1  0.88109493  0.75973773  0.55407929  1  0.158961  0  0.122781  0.12495  0  1.032533  0
H  H50  1  0.88111350  0.25974043  0.94591888  1  0.158635  0  0.122754  0.124929  0  1.032489  0
H  H51  1  0.11888147  0.24026256  0.44591635  1  0.158592  0  0.122746  0.124896  0  1.03251  0
H  H52  1  0.11777495  0.62110116  0.20146071  1  0.164815  0  0.12188  0.128867  0  1.023521  0
H  H53  1  0.88219936  0.87889912  0.70145655  1  0.164711  0  0.121845  0.128766  0  1.023402  0
H  H54  1  0.88221802  0.37890089  0.79854229  1  0.164829  0  0.121806  0.128698  0  1.02354  0
H  H55  1  0.11777504  0.12109701  0.29854154  1  0.164832  0  0.121862  0.128795  0  1.023581  0
H  H56  1  0.17704047  0.40057743  0.00562542  1  0.159497  0  0.13724  0.116949  0  1.015857  0
H  H57  1  0.82297344  0.09943119  0.50562190  1  0.15935  0  0.137201  0.116867  0  1.015885  0
H  H58  1  0.82295359  0.59942878  0.99437513  1  0.159108  0  0.137219  0.116873  0  1.015853  0
H  H59  1  0.17704997  0.90057602  0.49437557  1  0.158813  0  0.137233  0.116856  0  1.015905  0
H  H60  1  0.05271255  0.17405485  0.92465336  1  0.095839  0  0.102544  0.108117  0  1.022501  0
H  H61  1  0.94730083  0.32594657  0.42465459  1  0.095974  0  0.102517  0.108038  0  1.022357  0
H  H62  1  0.94730033  0.82594150  0.07534534  1  0.095826  0  0.1026  0.108201  0  1.022479  0
H  H63  1  0.05270982  0.67406223  0.57535209  1  0.095789  0  0.102545  0.108173  0  1.022334  0
C  C64  1  0.62805445  0.16847851  0.81561023  1  0.42321  0  -0.004849  -0.041129  0  4.021661  0
C  C65  1  0.37195523  0.33152530  0.31560823  1  0.423013  0  -0.004883  -0.041178  0  4.021777  0
C  C66  1  0.37194113  0.83152023  0.18438601  1  0.423499  0  -0.004833  -0.041155  0  4.021728  0
C  C67  1  0.62804944  0.66847183  0.68438985  1  0.423107  0  -0.004841  -0.041195  0  4.021676  0
C  C68  1  0.52725647  0.23193571  0.82265203  1  0.287103  0  -0.000349  -0.116314  0  3.92917  0
C  C69  1  0.47275185  0.26805897  0.32264726  1  0.287105  0  -0.000327  -0.116246  0  3.929203  0
C  C70  1  0.47274059  0.76805473  0.17734421  1  0.287099  0  -0.000365  -0.116347  0  3.929107  0
C  C71  1  0.52725006  0.73193815  0.67734838  1  0.286991  0  -0.000415  -0.116422  0  3.92916  0
C  C72  1  0.63640054  0.28713863  0.71424367  1  0.981455  0  0.154657  0.113282  0  3.884119  0
C  C73  1  0.36359501  0.21286088  0.21424225  1  0.981509  0  0.154655  0.113305  0  3.88396  0
C  C74  1  0.36359426  0.71286342  0.28575626  1  0.981515  0  0.154681  0.113401  0  3.883872  0
C  C75  1  0.63640246  0.78713953  0.78575645  1  0.981473  0  0.154662  0.113251  0  3.88414  0
C  C76  1  0.44636944  0.39032454  0.73810158  1  0.302851  0  -0.036022  -0.103823  0  3.902834  0
C  C77  1  0.55361901  0.10966249  0.23809403  1  0.302722  0  -0.036069  -0.103934  0  3.902943  0
C  C78  1  0.55362039  0.60966835  0.26190204  1  0.302967  0  -0.036031  -0.103867  0  3.902884  0
C  C79  1  0.44637544  0.89033126  0.76190099  1  0.302931  0  -0.036033  -0.103919  0  3.902801  0
C  C80  1  0.42900037  0.47157887  0.80721489  1  0.00553  0  -0.016678  0.085499  0  4.011325  0
C  C81  1  0.57099773  0.02840992  0.30720541  1  0.005333  0  -0.01668  0.0856  0  4.011242  0
C  C82  1  0.57099682  0.52841489  0.19278995  1  0.005517  0  -0.016719  0.085476  0  4.011234  0
C  C83  1  0.42900048  0.97158634  0.69278899  1  0.005522  0  -0.016671  0.085435  0  4.011274  0
C  C84  1  0.52985648  0.51940650  0.84922459  1  -0.080637  0  -0.092282  -0.132361  0  3.966746  0
C  C85  1  0.47014564  0.98058324  0.34922299  1  -0.080764  0  -0.092202  -0.132253  0  3.966708  0
C  C86  1  0.47014346  0.48058728  0.15077350  1  -0.08066  0  -0.092283  -0.132397  0  3.966728  0
C  C87  1  0.52985356  0.01941469  0.65077448  1  -0.080678  0  -0.092319  -0.132343  0  3.966707  0
C  C88  1  0.51299802  0.59800542  0.91068000  1  -0.089834  0  -0.089115  -0.065687  0  4.009586  0
C  C89  1  0.48700934  0.90198854  0.41067831  1  -0.089917  0  -0.08923  -0.065957  0  4.009572  0
C  C90  1  0.48700756  0.40199171  0.08931809  1  -0.089778  0  -0.089187  -0.065904  0  4.009299  0
C  C91  1  0.51299445  0.09800942  0.58931916  1  -0.089759  0  -0.089145  -0.065906  0  4.009388  0
C  C92  1  0.39493659  0.62798218  0.93121522  1  -0.007383  0  -0.095077  -0.142812  0  3.981515  0
C  C93  1  0.60507729  0.87201765  0.43121257  1  -0.007483  0  -0.094903  -0.142511  0  3.981076  0
C  C94  1  0.60507097  0.37201829  0.06878593  1  -0.007699  0  -0.094952  -0.142555  0  3.981015  0
C  C95  1  0.39492946  0.12798531  0.56878491  1  -0.007433  0  -0.095024  -0.142666  0  3.981105  0
C  C96  1  0.29302124  0.57917144  0.89052215  1  0.006095  0  -0.017012  0.089159  0  4.01168  0
C  C97  1  0.70698648  0.92082749  0.39051247  1  0.006  0  -0.017087  0.089012  0  4.011727  0
C  C98  1  0.70698353  0.42082818  0.10948453  1  0.006336  0  -0.017044  0.089101  0  4.011661  0
C  C99  1  0.29301847  0.07917628  0.60948317  1  0.006131  0  -0.017028  0.089133  0  4.011672  0
C  C100  1  0.31085029  0.50143050  0.82846521  1  -0.117917  0  -0.093705  -0.198466  0  3.968374  0
C  C101  1  0.68915300  0.99856172  0.32845438  1  -0.117456  0  -0.09375  -0.198607  0  3.968379  0
C  C102  1  0.68914877  0.49856410  0.17154270  1  -0.11759  0  -0.093671  -0.198451  0  3.96823  0
C  C103  1  0.31084905  0.00143872  0.67154125  1  -0.11768  0  -0.093688  -0.198352  0  3.968254  0
C  C104  1  0.16450780  0.60363441  0.91688737  1  0.300518  0  -0.043153  -0.111646  0  3.873924  0
C  C105  1  0.83550194  0.89637369  0.41688098  1  0.300416  0  -0.043137  -0.111505  0  3.874085  0
C  C106  1  0.83549633  0.39637185  0.08311686  1  0.300163  0  -0.043123  -0.111572  0  3.874042  0
C  C107  1  0.16450410  0.10363425  0.58311527  1  0.300091  0  -0.043179  -0.111696  0  3.874066  0
C  C108  1  0.12913858  0.65297049  0.06665738  1  0.328238  0  0.000429  -0.112073  0  3.929025  0
C  C109  1  0.87084587  0.84703058  0.56665078  1  0.327943  0  0.000324  -0.112421  0  3.928952  0
C  C110  1  0.87085903  0.34703324  0.93334684  1  0.328427  0  0.000324  -0.112364  0  3.928873  0
C  C111  1  0.12913687  0.15296808  0.43334546  1  0.328525  0  0.000383  -0.112236  0  3.928908  0
C  C112  1  0.12848399  0.59361272  0.13864082  1  0.326832  0  -0.00189  -0.034201  0  3.978028  0
C  C113  1  0.87149820  0.90639005  0.63863916  1  0.327175  0  -0.001776  -0.03395  0  3.977693  0
C  C114  1  0.87151003  0.40639265  0.86136095  1  0.32681  0  -0.001763  -0.033966  0  3.977849  0
C  C115  1  0.12848272  0.09360860  0.36136016  1  0.326734  0  -0.001795  -0.034057  0  3.977944  0
C  C116  1  0.15864568  0.47628806  0.03871233  1  0.949565  0  0.142881  0.090442  0  3.886178  0
C  C117  1  0.84135777  0.02371719  0.53870934  1  0.949559  0  0.142863  0.090361  0  3.886356  0
C  C118  1  0.84134457  0.52371480  0.96128944  1  0.950285  0  0.142862  0.090379  0  3.886373  0
C  C119  1  0.15865359  0.97628662  0.46129059  1  0.950546  0  0.142796  0.090349  0  3.886155  0
C  C120  1  0.90913646  0.03571701  0.83576611  1  1.543303  0  0.195235  0.56353  0  4.218862  0
C  C121  1  0.09086289  0.46428426  0.33576746  1  1.543307  0  0.195171  0.563402  0  4.21862  0
C  C122  1  0.09086341  0.96427510  0.16423443  1  1.544013  0  0.195205  0.563441  0  4.218634  0
C  C123  1  0.90913557  0.53571781  0.66423616  1  1.544113  0  0.195224  0.563474  0  4.218804  0
C  C124  1  0.96251740  0.01245277  0.91822232  1  0.033143  0  -0.01526  -0.043732  0  3.957882  0
C  C125  1  0.03748770  0.48754693  0.41822690  1  0.033388  0  -0.015231  -0.04357  0  3.957901  0
C  C126  1  0.03748991  0.98754188  0.08177638  1  0.033243  0  -0.01514  -0.043364  0  3.957572  0
C  C127  1  0.96251745  0.51246183  0.58177855  1  0.033517  0  -0.015226  -0.043591  0  3.957688  0
C  C128  1  0.93392781  0.91246465  0.96003661  1  -0.002795  0  -0.010432  -0.030639  0  3.95456  0
C  C129  1  0.06607965  0.58754014  0.46004153  1  -0.002747  0  -0.010541  -0.031012  0  3.954726  0
C  C130  1  0.06607777  0.08753248  0.03996270  1  -0.002618  0  -0.01051  -0.030874  0  3.954491  0
C  C131  1  0.93392994  0.41246532  0.53996515  1  -0.002992  0  -0.010396  -0.0307  0  3.954311  0
C  C132  1  0.02987715  0.09775384  0.95832827  1  -0.113412  0  -0.088743  -0.136928  0  3.980831  0
C  C133  1  0.97013606  0.40224926  0.45833193  1  -0.113571  0  -0.088809  -0.13696  0  3.980925  0
C  C134  1  0.97013471  0.90224001  0.04167043  1  -0.113473  0  -0.088888  -0.137234  0  3.981121  0
C  C135  1  0.02987452  0.59775787  0.54167598  1  -0.11381  0  -0.088772  -0.136993  0  3.981044  0
C  C136  1  0.87367629  0.81220836  0.91937661  1  1.608855  0  0.198134  0.575997  0  4.24268  0
C  C137  1  0.12632783  0.68779722  0.41938078  1  1.608834  0  0.198294  0.576309  0  4.242605  0
C  C138  1  0.12632301  0.18779206  0.08062393  1  1.608743  0  0.198107  0.576047  0  4.242681  0
C  C139  1  0.87368448  0.31220743  0.58062590  1  1.608903  0  0.198143  0.576065  0  4.242705  0
N  N140  1  0.69534793  0.20378267  0.74758700  1  -1.250777  0  -0.357594  -0.29243  0  3.606279  0
N  N141  1  0.30465768  0.29622191  0.24758641  1  -1.250604  0  -0.357544  -0.292385  0  3.606325  0
N  N142  1  0.30465050  0.79621858  0.25241170  1  -1.25119  0  -0.357637  -0.292507  0  3.606261  0
N  N143  1  0.69534346  0.70377852  0.75241229  1  -1.250598  0  -0.35756  -0.292364  0  3.606302  0
N  N144  1  0.53413602  0.30632374  0.75779494  1  -1.262721  0  -0.238786  0.04855  0  3.780196  0
N  N145  1  0.46585986  0.19366916  0.25779076  1  -1.262782  0  -0.238812  0.048465  0  3.780134  0
N  N146  1  0.46585662  0.69367082  0.24220622  1  -1.262723  0  -0.23884  0.0485  0  3.780021  0
N  N147  1  0.53413748  0.80632793  0.74220549  1  -1.262742  0  -0.238762  0.048663  0  3.780069  0
N  N148  1  0.14748696  0.48348386  0.12018409  1  -1.209366  0  -0.356488  -0.291574  0  3.618087  0
N  N149  1  0.85250481  0.01651889  0.62017860  1  -1.209804  0  -0.356495  -0.29149  0  3.618039  0
N  N150  1  0.85250329  0.51651900  0.87981891  1  -1.209836  0  -0.356441  -0.29141  0  3.618043  0
N  N151  1  0.14749087  0.98348234  0.37981826  1  -1.209747  0  -0.35646  -0.291443  0  3.617992  0
N  N152  1  0.14726797  0.57767451  0.00430949  1  -1.223829  0  -0.239519  0.044707  0  3.783268  0
N  N153  1  0.85273183  0.92233243  0.50430421  1  -1.223407  0  -0.239454  0.044887  0  3.783174  0
N  N154  1  0.85272887  0.42233254  0.99569350  1  -1.223803  0  -0.239427  0.044905  0  3.78304  0
N  N155  1  0.14727135  0.07767300  0.49569265  1  -1.223837  0  -0.23945  0.044863  0  3.783048  0
O  O156  1  0.96493495  0.11232524  0.79201177  1  -1.161666  0  -0.343294  -0.54726  0  2.229803  0
O  O157  1  0.03505928  0.38767764  0.29201446  1  -1.161772  0  -0.34332  -0.547238  0  2.229722  0
O  O158  1  0.03506045  0.88766934  0.20798693  1  -1.161978  0  -0.343274  -0.54724  0  2.229636  0
O  O159  1  0.96493739  0.61232526  0.70798977  1  -1.16174  0  -0.343294  -0.547236  0  2.229677  0
O  O160  1  0.80984014  0.98650870  0.81508106  1  -1.182245  0  -0.31807  -0.560923  0  2.188555  0
O  O161  1  0.19016261  0.51349015  0.31507883  1  -1.182258  0  -0.317997  -0.560816  0  2.188298  0
O  O162  1  0.19015874  0.01348175  0.18492316  1  -1.182714  0  -0.318118  -0.560984  0  2.188604  0
O  O163  1  0.80984304  0.48650864  0.68492172  1  -1.182879  0  -0.318065  -0.560927  0  2.188625  0
O  O164  1  0.77783784  0.76763239  0.94952038  1  -1.193558  0  -0.338864  -0.578704  0  2.119285  0
O  O165  1  0.22216177  0.73237983  0.44951939  1  -1.19363  0  -0.338902  -0.578757  0  2.119394  0
O  O166  1  0.22215357  0.23237629  0.05048139  1  -1.193896  0  -0.338853  -0.578704  0  2.11944  0
O  O167  1  0.77785333  0.26762567  0.55048607  1  -1.193638  0  -0.338885  -0.578694  0  2.119417  0
O  O168  1  0.93334274  0.77500341  0.85710601  1  -1.173018  0  -0.341491  -0.561611  0  2.283491  0
O  O169  1  0.06665604  0.72499545  0.35710915  1  -1.172963  0  -0.341566  -0.561749  0  2.283523  0
O  O170  1  0.06665628  0.22499037  0.14289821  1  -1.172752  0  -0.341456  -0.561603  0  2.283339  0
O  O171  1  0.93335524  0.27500670  0.64289753  1  -1.172955  0  -0.341463  -0.561677  0  2.283415  0
