# generated using pymatgen
data_Zn4H40C66N16O13
_symmetry_space_group_name_H-M   'P 1'
_cell_length_a   18.56203002
_cell_length_b   20.62486312
_cell_length_c   19.63905853
_cell_angle_alpha   106.59752638
_cell_angle_beta   109.72523622
_cell_angle_gamma   109.98628434
_symmetry_Int_Tables_number   1
_chemical_formula_structural   Zn4H40C66N16O13
_chemical_formula_sum   'Zn4 H40 C66 N16 O13'
_cell_volume   5928.57471233
_cell_formula_units_Z   1
loop_
 _symmetry_equiv_pos_site_id
 _symmetry_equiv_pos_as_xyz
  1  'x, y, z'
loop_
 _atom_site_type_symbol
 _atom_site_label
 _atom_site_symmetry_multiplicity
 _atom_site_fract_x
 _atom_site_fract_y
 _atom_site_fract_z
 _atom_site_occupancy
 _atom_site_pbe_bader_charge
 _atom_site_pbe_bader_spin_density
 _atom_site_pbe_cm5_charge
 _atom_site_pbe_ddec_charge
 _atom_site_pbe_ddec_spin_density
 _atom_site_pbe_ddec_sum_bond_order
 _atom_site_pbe_magmom
Zn  Zn0  1  0.09899928  0.49909185  0.10466167  1  1.193705  0  0.747409  0.680682  0  2.24664  0
Zn  Zn1  1  0.90992593  0.52193295  0.90390704  1  1.194305  0  0.748789  0.662311  0  2.356187  0
Zn  Zn2  1  0.88742485  0.37705074  0.96971782  1  1.210664  0  0.768286  0.745678  0  2.192604  0
Zn  Zn3  1  0.12337652  0.63607114  0.02466593  1  1.213041  0  0.768644  0.733128  0  2.240525  0
H  H4  1  0.12521404  0.35758614  0.14898563  1  0.104017  0  0.121613  0.11088  0  0.982542  0
H  H5  1  0.83165857  0.89082020  0.02479836  1  0.055358  0  0.101329  0.103808  0  0.999006  0
H  H6  1  0.82954311  0.00569019  0.00976568  1  0.056628  0  0.102366  0.105222  0  0.994127  0
H  H7  1  0.78404219  0.40013043  0.70755791  1  0.098188  0  0.128141  0.121937  0  0.973341  0
H  H8  1  0.19380861  0.42459238  0.03380948  1  0.115105  0  0.121787  0.116427  0  1.000456  0
H  H9  1  0.88933017  0.22319828  0.91536274  1  0.115664  0  0.1151  0.113573  0  1.019981  0
H  H10  1  0.24116487  0.61286268  0.29071304  1  0.092869  0  0.119846  0.11512  0  1.005886  0
H  H11  1  0.78133956  0.29493100  0.16018890  1  0.067287  0  0.101655  0.102091  0  0.981171  0
H  H12  1  0.83728845  0.23892066  0.16403579  1  0.084612  0  0.102529  0.108092  0  0.987274  0
H  H13  1  0.73269729  0.20065760  0.07772403  1  0.038758  0  0.11142  0.115611  0  0.96827  0
H  H14  1  0.84905183  0.77641524  0.92959951  1  0.058486  0  0.103861  0.109392  0  0.98974  0
H  H15  1  0.81759178  0.60022001  0.98340425  1  0.107377  0  0.118215  0.10617  0  1.043429  0
H  H16  1  0.80138014  0.72256652  0.97456361  1  0.060622  0  0.103626  0.105309  0  0.985732  0
H  H17  1  0.74549561  0.68856165  0.86656087  1  0.072641  0  0.112671  0.118483  0  0.966031  0
H  H18  1  0.09502299  0.52344483  0.32769267  1  0.614826  0  0.338743  0.37258  0  0.873808  0
H  H19  1  0.35274100  0.83326035  0.24243462  1  0.640189  0  0.317505  0.368812  0  0.926781  0
H  H20  1  0.69805296  0.39336062  0.04370120  1  0.6148  0  0.344106  0.375403  0  0.86477  0
H  H21  1  0.83234864  0.19742777  0.42509043  1  0.053562  0  0.097596  0.09362  0  0.985359  0
H  H22  1  0.78451813  0.25998792  0.42782501  1  0.036537  0  0.093239  0.085539  0  0.993722  0
H  H23  1  0.78934944  0.21469459  0.49372306  1  0.078839  0  0.104614  0.11319  0  0.998052  0
H  H24  1  0.13237409  0.45422393  0.40769507  1  0.601341  0  0.307852  0.332192  0  0.945216  0
H  H25  1  0.67438491  0.02260795  0.67149445  1  0.605938  0  0.348741  0.378893  0  0.854657  0
H  H26  1  0.11210203  0.77440100  0.13617762  1  0.12072  0  0.124831  0.121885  0  0.985416  0
H  H27  1  0.60019177  0.18758055  0.48289809  1  0.110236  0  0.097672  0.102062  0  1.022839  0
H  H28  1  0.48970233  0.11359554  0.40819751  1  0.067114  0  0.100542  0.099222  0  0.980922  0
H  H29  1  0.56155968  0.16680971  0.37802262  1  0.059298  0  0.10891  0.115154  0  0.972328  0
H  H30  1  0.49208598  0.97757859  0.30787990  1  0.606788  0  0.332204  0.359577  0  0.895808  0
H  H31  1  0.75402439  0.17159865  0.73980471  1  0.669867  0  0.316887  0.364872  0  0.937401  0
H  H32  1  0.25724368  0.55821995  0.86260412  1  0.091622  0  0.103527  0.10652  0  0.996971  0
H  H33  1  0.36772458  0.60705459  0.94469751  1  0.055324  0  0.100933  0.107284  0  1.000577  0
H  H34  1  0.32390876  0.66043601  0.90223761  1  0.064483  0  0.109039  0.116424  0  0.973834  0
H  H35  1  0.21912697  0.73322581  0.94679203  1  0.062352  0  0.0974  0.093639  0  1.00347  0
H  H36  1  0.11873850  0.72315210  0.87769532  1  0.062787  0  0.104569  0.110396  0  0.980252  0
H  H37  1  0.88096334  0.28619707  0.37857198  1  0.047404  0  0.101746  0.116617  0  1.024696  0
H  H38  1  0.21292989  0.75348892  0.86230304  1  0.034095  0  0.110345  0.114153  0  0.971026  0
H  H39  1  0.95947253  0.40940344  0.79952251  1  0.128341  0  0.121731  0.116522  0  1.005616  0
H  H40  1  0.17121702  0.49842341  0.60922257  1  0.09064  0  0.112623  0.137803  0  0.973884  0
H  H41  1  0.56682145  0.91255442  0.55605612  1  0.066627  0  0.108473  0.130332  0  0.992773  0
H  H42  1  0.10353729  0.14584026  0.18631074  1  0.0896  0  0.104859  0.108148  0  0.989552  0
H  H43  1  0.10627210  0.03084217  0.20059609  1  0.070027  0  0.104484  0.108093  0  0.989013  0
C  C44  1  0.07031914  0.33651108  0.09008898  1  0.44937  0  0.018781  -0.039489  0  3.951587  0
C  C45  1  0.02374491  0.46674618  0.21308771  1  1.072427  0  0.182956  0.365755  0  4.127959  0
C  C46  1  0.26428398  0.73064855  0.20732414  1  1.076687  0  0.19316  0.373699  0  4.095936  0
C  C47  1  0.00246929  0.47011107  0.82029770  1  0.433788  0  0.019596  -0.005016  0  3.949475  0
C  C48  1  0.77900772  0.44734931  0.01567207  1  1.083068  0  0.193565  0.370949  0  4.078593  0
C  C49  1  0.30138833  0.72041368  0.27704545  1  0.191779  0  -0.046994  -0.100064  0  4.243184  0
C  C50  1  0.75675443  0.50663921  0.01501863  1  0.147153  0  -0.048501  -0.113419  0  4.257274  0
C  C51  1  0.96498144  0.39816481  0.20878097  1  0.116387  0  -0.062478  -0.230028  0  4.251289  0
C  C52  1  0.98485141  0.75617085  0.04472730  1  0.085566  0  -0.041496  -0.085688  0  4.195382  0
C  C53  1  0.33423536  0.50595857  0.00093615  1  -0.282602  0  -0.024351  -0.028067  0  4.107825  0
C  C54  1  0.40156120  0.50400292  0.00659155  1  0.094963  0  -0.055867  -0.084571  0  4.344334  0
C  C55  1  0.05701171  0.50241802  0.79058851  1  0.139631  0  -0.037561  -0.070277  0  4.171676  0
C  C56  1  0.47643103  0.50515705  0.01414776  1  -0.142744  0  -0.034122  -0.020357  0  4.279767  0
C  C57  1  0.54631232  0.50786458  0.02101447  1  0.03219  0  -0.041836  -0.036612  0  4.287003  0
C  C58  1  0.62061410  0.51010044  0.02503961  1  -0.148945  0  -0.059086  -0.076204  0  4.368776  0
C  C59  1  0.79531564  0.28085105  0.78632488  1  1.055315  0  0.197566  0.377144  0  4.095201  0
C  C60  1  0.68725979  0.51151557  0.02415623  1  -0.111979  0  -0.042706  -0.065917  0  4.151547  0
C  C61  1  0.94451498  0.33130492  0.42975707  1  0.049694  0  -0.115007  -0.263481  0  4.008897  0
C  C62  1  0.00681784  0.37774408  0.41417332  1  0.120314  0  -0.029884  0.027702  0  4.180892  0
C  C63  1  0.09083000  0.43512078  0.47985338  1  0.451159  0  0.067981  0.248  0  4.08666  0
C  C64  1  0.10819587  0.45103460  0.55898875  1  0.018432  0  -0.098927  -0.233073  0  3.948869  0
C  C65  1  0.04398530  0.40922655  0.57533678  1  0.163349  0  -0.00974  0.058692  0  4.128209  0
C  C66  1  0.76909370  0.28920388  0.71405742  1  0.144857  0  -0.043968  -0.100681  0  4.235572  0
C  C67  1  0.96282146  0.34559628  0.50897697  1  0.41567  0  0.079215  0.193117  0  4.048842  0
C  C68  1  0.98799687  0.37477590  0.33716939  1  -0.242672  0  -0.064966  -0.14255  0  4.192577  0
C  C69  1  0.05631182  0.43526216  0.65514363  1  -0.431776  0  -0.055523  -0.110797  0  4.150808  0
C  C70  1  0.06034109  0.46506349  0.72075683  1  0.093448  0  -0.05276  -0.07396  0  4.173213  0
C  C71  1  0.24191270  0.57281429  0.99270630  1  1.088277  0  0.199311  0.308723  0  4.057362  0
C  C72  1  0.97459085  0.38268473  0.27517281  1  -0.189412  0  -0.063225  -0.084775  0  4.276646  0
C  C73  1  0.63078011  0.02843794  0.57043312  1  0.379768  0  0.074289  0.262383  0  4.086382  0
C  C74  1  0.63659343  0.07856245  0.53325737  1  0.142431  0  -0.0234  -0.051739  0  4.132524  0
C  C75  1  0.58407087  0.04424165  0.44821547  1  0.474477  0  0.064336  0.077488  0  4.076159  0
C  C76  1  0.52557690  0.96495842  0.40322859  1  0.493211  0  0.067431  0.141498  0  4.069797  0
C  C77  1  0.26282604  0.51424296  0.00110474  1  0.129913  0  -0.039982  -0.093535  0  4.209838  0
C  C78  1  0.51690772  0.91657855  0.44175347  1  0.139377  0  -0.012475  0.080416  0  4.163865  0
C  C79  1  0.57262525  0.94970705  0.52603185  1  0.065763  0  -0.11513  -0.29579  0  4.025205  0
C  C80  1  0.68894707  0.15873446  0.58417081  1  -0.213223  0  -0.053974  -0.098005  0  4.158624  0
C  C81  1  0.44835555  0.83987154  0.39417569  1  0.017388  0  -0.061764  -0.11985  0  4.140834  0
C  C82  1  0.38049581  0.77911960  0.34510098  1  -0.369545  0  -0.050586  -0.072247  0  4.193297  0
C  C83  1  0.79121098  0.36788200  0.74215594  1  0.487943  0  0.020647  -0.032253  0  4.009473  0
C  C84  1  0.72666205  0.22477441  0.63869136  1  -0.120547  0  -0.044696  -0.072957  0  4.160032  0
C  C85  1  0.04564630  0.02547659  0.15904121  1  -0.005954  0  -0.088929  -0.130118  0  3.976568  0
C  C86  1  0.97048003  0.95159440  0.10974770  1  0.061356  0  -0.00493  0.140115  0  4.124287  0
C  C87  1  0.89133167  0.94671403  0.05970073  1  -0.022312  0  -0.091549  -0.135833  0  3.986664  0
C  C88  1  0.24073389  0.64493266  0.25550081  1  0.470614  0  0.015948  -0.02588  0  3.987406  0
C  C89  1  0.89006475  0.01093086  0.05136711  1  -0.014697  0  -0.090866  -0.133211  0  3.987273  0
C  C90  1  0.96775587  0.08284319  0.09339851  1  0.090079  0  -0.00667  0.138421  0  4.128334  0
C  C91  1  0.04422199  0.08970497  0.15099764  1  -0.084371  0  -0.086006  -0.124947  0  3.970458  0
C  C92  1  0.97552978  0.88305927  0.10109627  1  0.094087  0  -0.061212  -0.14578  0  4.137051  0
C  C93  1  0.97222645  0.14479553  0.07452493  1  0.148776  0  -0.061665  -0.14008  0  4.153498  0
C  C94  1  0.98319308  0.19687983  0.05451610  1  -0.518765  0  -0.053187  -0.089156  0  4.170997  0
C  C95  1  0.20189499  0.47417111  0.02199989  1  0.437014  0  0.018857  -0.020464  0  3.954934  0
C  C96  1  0.98013885  0.82356084  0.07824371  1  -0.428521  0  -0.056001  -0.079631  0  4.212242  0
C  C97  1  0.09547620  0.58363484  0.83935872  1  1.087932  0  0.198799  0.318635  0  4.075112  0
C  C98  1  0.94987976  0.26731453  0.97045754  1  0.447914  0  0.006137  -0.050166  0  3.951173  0
C  C99  1  0.81330968  0.55010282  0.99282023  1  0.447517  0  0.017024  -0.013918  0  3.954379  0
C  C100  1  0.99947863  0.26067128  0.03788736  1  0.074763  0  -0.030592  0.042133  0  4.19185  0
C  C101  1  0.79436099  0.25320149  0.12412160  1  0.383255  0  -0.129244  -0.161252  0  3.888249  0
C  C102  1  0.80954132  0.71811169  0.92078078  1  0.390837  0  -0.130234  -0.167059  0  3.88829  0
C  C103  1  0.82356818  0.24065905  0.46474585  1  0.391723  0  -0.135607  -0.164963  0  3.935989  0
C  C104  1  0.55773502  0.14199767  0.41995258  1  0.319551  0  -0.13673  -0.172424  0  3.89387  0
C  C105  1  0.30895758  0.61216799  0.91755084  1  0.367985  0  -0.132776  -0.166349  0  3.86413  0
C  C106  1  0.17672886  0.71705707  0.88309383  1  0.403359  0  -0.132084  -0.16503  0  3.896058  0
C  C107  1  0.90415638  0.35443944  0.12423657  1  1.146627  0  0.199929  0.324734  0  4.11251  0
C  C108  1  0.05316778  0.74005949  0.07749075  1  0.465972  0  0.021967  -0.015048  0  3.956584  0
C  C109  1  0.92747129  0.69110986  0.96625698  1  1.053863  0  0.194888  0.295857  0  4.069821  0
N  N110  1  0.06211521  0.38350007  0.05659708  1  -0.811431  0  -0.276986  -0.187639  0  3.607934  0
N  N111  1  0.83042717  0.34847472  0.85100163  1  -0.824686  0  -0.283749  -0.301335  0  3.496136  0
N  N112  1  0.17634253  0.56754590  0.00913805  1  -0.793112  0  -0.284098  -0.27817  0  3.603358  0
N  N113  1  0.82720707  0.40301639  0.82321009  1  -0.774524  0  -0.269211  -0.186921  0  3.508984  0
N  N114  1  0.15150218  0.50704409  0.02741532  1  -0.786688  0  -0.274709  -0.199079  0  3.581767  0
N  N115  1  0.06624316  0.59832439  0.89241045  1  -0.815242  0  -0.297067  -0.359692  0  3.431273  0
N  N116  1  0.98714157  0.34146813  0.98239329  1  -0.774937  0  -0.277957  -0.242565  0  3.439528  0
N  N117  1  0.17444704  0.61350975  0.17998157  1  -0.827769  0  -0.280306  -0.180595  0  3.557662  0
N  N118  1  0.86313660  0.51851154  0.98094625  1  -0.787155  0  -0.28849  -0.190565  0  3.634471  0
N  N119  1  0.92618531  0.39403664  0.08511252  1  -0.819524  0  -0.293087  -0.292311  0  3.594406  0
N  N120  1  0.03768217  0.67308548  0.02357785  1  -0.826159  0  -0.287201  -0.207332  0  3.663674  0
N  N121  1  0.95977173  0.64241439  0.95429251  1  -0.781017  0  -0.277959  -0.285656  0  3.479111  0
N  N122  1  0.00168569  0.46471415  0.13984475  1  -0.805049  0  -0.289481  -0.316895  0  3.432534  0
N  N123  1  0.18886064  0.66736676  0.14999272  1  -0.812946  0  -0.27705  -0.30536  0  3.432355  0
N  N124  1  0.84174288  0.45470764  0.99480833  1  -0.801409  0  -0.280835  -0.294758  0  3.503696  0
N  N125  1  0.00664951  0.52675862  0.87935238  1  -0.859316  0  -0.310997  -0.240535  0  3.674883  0
O  O126  1  0.83279418  0.28394360  0.08035211  1  -1.089639  0  -0.181318  -0.171457  0  2.570353  0
O  O127  1  0.47316361  0.93429862  0.32099638  1  -1.126734  0  -0.344015  -0.431023  0  2.316652  0
O  O128  1  0.78626973  0.21632955  0.79418266  1  -1.191545  0  -0.33819  -0.451697  0  2.301057  0
O  O129  1  0.27780377  0.63021338  0.97509356  1  -1.096558  0  -0.187319  -0.188936  0  2.564568  0
O  O130  1  0.15121815  0.63904105  0.83127135  1  -1.077865  0  -0.17672  -0.166177  0  2.553477  0
O  O131  1  0.84941127  0.67063848  0.90568331  1  -1.098201  0  -0.18738  -0.177764  0  2.561531  0
O  O132  1  0.09678220  0.52806899  0.28003788  1  -1.155132  0  -0.340125  -0.447503  0  2.276883  0
O  O133  1  0.29534176  0.79318716  0.19503677  1  -1.164689  0  -0.35079  -0.465885  0  2.26274  0
O  O134  1  0.74390826  0.38869475  0.03237185  1  -1.137304  0  -0.336705  -0.441523  0  2.269632  0
O  O135  1  0.90577560  0.30437588  0.52931674  1  -1.076022  0  -0.188091  -0.153522  0  2.574466  0
O  O136  1  0.15461690  0.47841084  0.46650518  1  -1.140294  0  -0.372119  -0.451815  0  2.246569  0
O  O137  1  0.68420084  0.06270632  0.65356655  1  -1.135765  0  -0.343564  -0.454632  0  2.310174  0
O  O138  1  0.58713178  0.08552095  0.40370318  1  -1.100926  0  -0.208034  -0.194249  0  2.542088  0
