# generated using pymatgen
data_CdH26C26(N2O3)2
_symmetry_space_group_name_H-M   'P 1'
_cell_length_a   8.38169900
_cell_length_b   10.52967719
_cell_length_c   14.62300000
_cell_angle_alpha   100.48978847
_cell_angle_beta   100.97884788
_cell_angle_gamma   95.41269586
_symmetry_Int_Tables_number   1
_chemical_formula_structural   CdH26C26(N2O3)2
_chemical_formula_sum   'Cd2 H52 C52 N8 O12'
_cell_volume   1234.60642738
_cell_formula_units_Z   2
loop_
 _symmetry_equiv_pos_site_id
 _symmetry_equiv_pos_as_xyz
  1  'x, y, z'
loop_
 _atom_site_type_symbol
 _atom_site_label
 _atom_site_symmetry_multiplicity
 _atom_site_fract_x
 _atom_site_fract_y
 _atom_site_fract_z
 _atom_site_occupancy
 _atom_site_hle17_bader_spin_density
 _atom_site_hle17_ddec_charge
 _atom_site_hle17_ddec_spin_density
 _atom_site_hle17_ddec_sum_bond_order
 _atom_site_hle17_magmom
 _atom_site_hse06_10hf_bader_spin_density
 _atom_site_hse06_10hf_ddec_charge
 _atom_site_hse06_10hf_ddec_spin_density
 _atom_site_hse06_10hf_ddec_sum_bond_order
 _atom_site_hse06_10hf_magmom
 _atom_site_hse06_bader_spin_density
 _atom_site_hse06_ddec_charge
 _atom_site_hse06_ddec_spin_density
 _atom_site_hse06_ddec_sum_bond_order
 _atom_site_hse06_magmom
 _atom_site_pbe_bader_charge
 _atom_site_pbe_bader_spin_density
 _atom_site_pbe_cm5_charge
 _atom_site_pbe_ddec_charge
 _atom_site_pbe_ddec_spin_density
 _atom_site_pbe_ddec_sum_bond_order
 _atom_site_pbe_magmom
Cd  Cd0  1  0.66381191  0.89533541  0.54513305  1  0  1.113597  0  1.703992  0  0  0.917781  0  2.159466  0  0  0.976497  0  2.106135  0  1.268638  0  0.777998  0.873239  0  2.198104  0
Cd  Cd1  1  0.33618604  0.10466897  0.45486607  1  0  1.113636  0  1.70398  0  0  0.917819  0  2.159453  0  0  0.976536  0  2.106114  0  1.26865  0  0.778007  0.873275  0  2.198091  0
H  H2  1  0.33529687  0.65771514  0.76635551  1  0  0.280639  0  0.90741  0  0  0.269768  0  0.965821  0  0  0.274956  0  0.963046  0  0.453787  0  0.31605  0.265981  0  0.967951  0
H  H3  1  0.66470772  0.34228534  0.23364519  1  0  0.280647  0  0.907284  0  0  0.269698  0  0.965771  0  0  0.274883  0  0.962994  0  0.453761  0  0.31603  0.265911  0  0.967901  0
H  H4  1  0.96126484  0.12363431  0.30846378  1  0  0.309172  0  0.944426  0  0  0.287374  0  1.014682  0  0  0.295923  0  1.008033  0  0.526339  0  0.29995  0.281296  0  1.019391  0
H  H5  1  0.03874097  0.87636618  0.69153706  1  0  0.309093  0  0.944525  0  0  0.287334  0  1.014739  0  0  0.29588  0  1.008092  0  0.526297  0  0.299955  0.281256  0  1.019445  0
H  H6  1  0.78326031  0.08836326  0.74689444  1  0  0.089961  0  0.944718  0  0  0.098993  0  1.004803  0  0  0.101818  0  1.002814  0  0.093288  0  0.115484  0.096901  0  1.006276  0
H  H7  1  0.21674655  0.91163624  0.25310638  1  0  0.090035  0  0.944693  0  0  0.099021  0  1.004832  0  0  0.101847  0  1.002842  0  0.093369  0  0.115507  0.096929  0  1.006306  0
H  H8  1  0.76918700  0.09551863  0.91981876  1  0  0.109251  0  0.957653  0  0  0.115864  0  1.021523  0  0  0.119211  0  1.020077  0  0.130694  0  0.110418  0.113416  0  1.022725  0
H  H9  1  0.23081920  0.90447698  0.08017943  1  0  0.109264  0  0.95756  0  0  0.11588  0  1.021426  0  0  0.119247  0  1.019958  0  0.130669  0  0.110427  0.113432  0  1.022629  0
H  H10  1  0.58933799  0.92322985  0.95941907  1  0  0.134432  0  0.96243  0  0  0.139421  0  1.025982  0  0  0.143686  0  1.022008  0  0.1669  0  0.118219  0.1363  0  1.028899  0
H  H11  1  0.41067185  0.07676576  0.04058020  1  0  0.134377  0  0.962497  0  0  0.139404  0  1.026002  0  0  0.143648  0  1.022061  0  0.166866  0  0.118223  0.136283  0  1.028916  0
H  H12  1  0.45091847  0.75204284  0.65796273  1  0  0.101358  0  0.931166  0  0  0.111683  0  0.991842  0  0  0.114621  0  0.989303  0  0.120356  0  0.121161  0.109399  0  0.993847  0
H  H13  1  0.54908401  0.24795959  0.34203594  1  0  0.101439  0  0.931193  0  0  0.111815  0  0.991822  0  0  0.114758  0  0.98927  0  0.120262  0  0.1212  0.109528  0  0.993833  0
H  H14  1  0.33121153  0.47455346  0.85579551  1  0  0.094796  0  0.938346  0  0  0.110218  0  1.003161  0  0  0.111839  0  1.002984  0  0.05126  0  0.099308  0.109131  0  1.003326  0
H  H15  1  0.66877306  0.52545092  0.14420078  1  0  0.094792  0  0.938421  0  0  0.11022  0  1.003256  0  0  0.11184  0  1.003081  0  0.051192  0  0.099325  0.109135  0  1.003421  0
H  H16  1  0.16159118  0.55921527  0.85750382  1  0  0.097073  0  0.946626  0  0  0.114134  0  1.008083  0  0  0.115434  0  1.008721  0  0.047359  0  0.100024  0.113109  0  1.007843  0
H  H17  1  0.83840233  0.44079886  0.14249815  1  0  0.097062  0  0.946673  0  0  0.114109  0  1.008166  0  0  0.115409  0  1.008804  0  0.047725  0  0.100003  0.113086  0  1.007925  0
H  H18  1  0.39467986  0.51273167  0.03408460  1  0  0.061273  0  0.95442  0  0  0.080335  0  1.018567  0  0  0.080707  0  1.01932  0  0.015944  0  0.089132  0.080015  0  1.018098  0
H  H19  1  0.60531014  0.48726881  0.96591382  1  0  0.061298  0  0.954371  0  0  0.080329  0  1.018591  0  0  0.080705  0  1.019338  0  0.016057  0  0.089122  0.080005  0  1.018125  0
H  H20  1  0.22728554  0.60028896  0.03806632  1  0  0.055895  0  0.947353  0  0  0.073738  0  1.011937  0  0  0.074858  0  1.011249  0  -0.007047  0  0.087072  0.072836  0  1.012574  0
H  H21  1  0.77270949  0.39971250  0.96193279  1  0  0.05584  0  0.94744  0  0  0.073781  0  1.011928  0  0  0.074902  0  1.011238  0  -0.006991  0  0.08709  0.072877  0  1.012562  0
H  H22  1  0.03628345  0.39918525  0.94567192  1  0  0.054416  0  0.949491  0  0  0.076205  0  1.008167  0  0  0.076409  0  1.008974  0  0.012578  0  0.08509  0.075958  0  1.007721  0
H  H23  1  0.96370600  0.60081913  0.05432969  1  0  0.05447  0  0.949427  0  0  0.076253  0  1.008084  0  0  0.076457  0  1.008889  0  0.012723  0  0.085088  0.076006  0  1.007639  0
H  H24  1  0.20565504  0.31241542  0.94195389  1  0  0.07176  0  0.94106  0  0  0.092291  0  0.999223  0  0  0.092875  0  1.000032  0  0.036716  0  0.090614  0.091807  0  0.998738  0
H  H25  1  0.79433165  0.68758701  0.05804237  1  0  0.071775  0  0.941175  0  0  0.092327  0  0.999288  0  0  0.092911  0  1.000097  0  0.036569  0  0.090672  0.091843  0  0.998803  0
H  H26  1  0.11233055  0.44292247  0.12617437  1  0  0.048306  0  0.939122  0  0  0.069475  0  0.997743  0  0  0.070043  0  0.997965  0  -0.000269  0  0.081505  0.068952  0  0.997721  0
H  H27  1  0.88766172  0.55707704  0.87382486  1  0  0.048284  0  0.939125  0  0  0.069467  0  0.997767  0  0  0.070034  0  0.99799  0  -0.000245  0  0.081477  0.068945  0  0.997746  0
H  H28  1  0.27435689  0.34941050  0.11868557  1  0  0.055614  0  0.94859  0  0  0.075002  0  1.009133  0  0  0.075414  0  1.010488  0  0.014619  0  0.081945  0.074644  0  1.008265  0
H  H29  1  0.72564244  0.65059486  0.88131314  1  0  0.055583  0  0.948586  0  0  0.075003  0  1.009119  0  0  0.075414  0  1.010476  0  0.014756  0  0.081918  0.074643  0  1.008258  0
H  H30  1  0.91177274  0.24654255  0.03329705  1  0  0.055479  0  0.95481  0  0  0.075477  0  1.018087  0  0  0.075826  0  1.018441  0  0.007741  0  0.086634  0.075179  0  1.017884  0
H  H31  1  0.08822827  0.75345111  0.96670305  1  0  0.055423  0  0.954878  0  0  0.075455  0  1.018127  0  0  0.075804  0  1.018481  0  0.007825  0  0.086613  0.075156  0  1.017924  0
H  H32  1  0.07473127  0.15325961  0.02966185  1  0  0.081866  0  0.938587  0  0  0.098382  0  1.001296  0  0  0.099709  0  1.001452  0  0.062962  0  0.094101  0.097445  0  1.001214  0
H  H33  1  0.92527713  0.84674185  0.97033735  1  0  0.081865  0  0.938586  0  0  0.098413  0  1.001274  0  0  0.099739  0  1.001428  0  0.06303  0  0.094092  0.097474  0  1.001193  0
H  H34  1  0.14154683  0.19499504  0.20919435  1  0  0.095473  0  0.956729  0  0  0.110474  0  1.019156  0  0  0.111252  0  1.021473  0  0.056595  0  0.097515  0.109885  0  1.017667  0
H  H35  1  0.85846179  0.80500057  0.79080411  1  0  0.095457  0  0.956773  0  0  0.110521  0  1.019121  0  0  0.111307  0  1.021421  0  0.056425  0  0.097512  0.109903  0  1.017653  0
H  H36  1  0.98381488  0.29130309  0.21343833  1  0  0.080896  0  0.965189  0  0  0.094011  0  1.035851  0  0  0.095188  0  1.036299  0  0.044186  0  0.091314  0.093056  0  1.035689  0
H  H37  1  0.01619237  0.70869155  0.78656121  1  0  0.080883  0  0.965212  0  0  0.093974  0  1.035936  0  0  0.095151  0  1.036388  0  0.04442  0  0.091309  0.09302  0  1.035767  0
H  H38  1  0.67526710  0.86187124  0.12217972  1  0  0.129617  0  0.979339  0  0  0.133506  0  1.046893  0  0  0.138201  0  1.042177  0  0.138405  0  0.113314  0.13008  0  1.050381  0
H  H39  1  0.32473279  0.13813022  0.87782128  1  0  0.129634  0  0.97929  0  0  0.133508  0  1.046871  0  0  0.138207  0  1.042152  0  0.138406  0  0.113319  0.130083  0  1.050359  0
H  H40  1  0.49346983  0.69945448  0.17145172  1  0  0.103245  0  0.955048  0  0  0.113427  0  1.014915  0  0  0.116556  0  1.013674  0  0.108686  0  0.107171  0.111093  0  1.015991  0
H  H41  1  0.50652812  0.30054991  0.82855013  1  0  0.103194  0  0.955082  0  0  0.113402  0  1.014929  0  0  0.116531  0  1.013687  0  0.108719  0  0.107158  0.111067  0  1.016003  0
H  H42  1  0.49866362  0.71436848  0.34722491  1  0  0.085043  0  0.939781  0  0  0.095728  0  0.99956  0  0  0.097849  0  0.998498  0  0.097011  0  0.116407  0.094002  0  1.000618  0
H  H43  1  0.50133660  0.28563493  0.65277638  1  0  0.085026  0  0.939794  0  0  0.09574  0  0.99954  0  0  0.097843  0  0.998499  0  0.096984  0  0.116399  0.094013  0  1.000598  0
H  H44  1  0.85513216  0.03750771  0.41950434  1  0  0.1045  0  0.934089  0  0  0.113614  0  0.994718  0  0  0.116359  0  0.992497  0  0.11852  0  0.123335  0.111368  0  0.996819  0
H  H45  1  0.14487624  0.96249375  0.58049690  1  0  0.104435  0  0.934151  0  0  0.113548  0  0.994777  0  0  0.116293  0  0.992553  0  0.118594  0  0.123309  0.111301  0  0.996879  0
H  H46  1  0.12913590  0.65808158  0.63623342  1  0  0.089513  0  0.956133  0  0  0.098252  0  1.023124  0  0  0.102057  0  1.019813  0  0.082811  0  0.099834  0.095548  0  1.025476  0
H  H47  1  0.87085864  0.34191695  0.36376319  1  0  0.089476  0  0.956174  0  0  0.098216  0  1.02317  0  0  0.102022  0  1.019857  0  0.082646  0  0.099797  0.095513  0  1.025517  0
H  H48  1  0.25846022  0.45948547  0.66994744  1  0  0.079713  0  0.956857  0  0  0.091415  0  1.016564  0  0  0.094477  0  1.015608  0  0.075307  0  0.095807  0.089187  0  1.017496  0
H  H49  1  0.74153238  0.54051599  0.33005139  1  0  0.079651  0  0.956904  0  0  0.091374  0  1.016586  0  0  0.09443  0  1.015638  0  0.075207  0  0.095772  0.089147  0  1.017521  0
H  H50  1  0.08123374  0.24727349  0.64259542  1  0  0.093876  0  0.986206  0  0  0.09968  0  1.056054  0  0  0.102136  0  1.055574  0  0.095749  0  0.098347  0.098071  0  1.05615  0
H  H51  1  0.91875764  0.75272797  0.35741217  1  0  0.093741  0  0.986405  0  0  0.099607  0  1.056166  0  0  0.102066  0  1.055685  0  0.095716  0  0.098323  0.097999  0  1.056262  0
H  H52  1  0.65823016  0.42373591  0.53980014  1  0  0.124496  0  0.94271  0  0  0.130812  0  1.00953  0  0  0.135822  0  1.004397  0  0.112544  0  0.10801  0.127192  0  1.013372  0
H  H53  1  0.34176957  0.57626458  0.46019661  1  0  0.124549  0  0.942654  0  0  0.130837  0  1.009506  0  0  0.135849  0  1.00437  0  0.11223  0  0.108042  0.127218  0  1.013344  0
C  C54  1  0.70468172  0.01602113  0.76861263  1  0  0.093037  0  3.721685  0  0  0.058228  0  3.977026  0  0  0.063793  0  3.996537  0  0.451276  0  0.033221  0.054697  0  3.963512  0
C  C55  1  0.29532392  0.98397838  0.23138737  1  0  0.09302  0  3.72181  0  0  0.058254  0  3.977116  0  0  0.063817  0  3.996632  0  0.451048  0  0.033263  0.054721  0  3.963605  0
C  C56  1  0.69628142  0.01909983  0.86298608  1  0  -0.078895  0  3.727241  0  0  -0.088998  0  3.979412  0  0  -0.094235  0  3.999978  0  0.013075  0  -0.073109  -0.085697  0  3.965724  0
C  C57  1  0.30372041  0.98089871  0.13701407  1  0  -0.078856  0  3.727295  0  0  -0.088958  0  3.979453  0  0  -0.094207  0  4.000001  0  0.013212  0  -0.073104  -0.085655  0  3.965765  0
C  C58  1  0.59533013  0.92252523  0.88598231  1  0  -0.084372  0  3.627573  0  0  -0.112317  0  3.878698  0  0  -0.110966  0  3.89416  0  0.029081  0  -0.063168  -0.112924  0  3.868512  0
C  C59  1  0.40467348  0.07746940  0.11401752  1  0  -0.084305  0  3.627531  0  0  -0.112296  0  3.878687  0  0  -0.110928  0  3.894163  0  0.029263  0  -0.063142  -0.112903  0  3.8685  0
C  C60  1  0.50465936  0.82289484  0.81216095  1  0  0.207016  0  3.797471  0  0  0.204706  0  4.050426  0  0  0.208518  0  4.072079  0  0.269905  0  0.10243  0.201595  0  4.036204  0
C  C61  1  0.49534959  0.17710272  0.18783916  1  0  0.206946  0  3.797337  0  0  0.204629  0  4.050299  0  0  0.20844  0  4.071943  0  0.269806  0  0.102314  0.201519  0  4.036076  0
C  C62  1  0.51833254  0.82680973  0.71851882  1  0  0.016139  0  3.683587  0  0  -0.021988  0  3.93925  0  0  -0.017916  0  3.95725  0  0.54391  0  0.038338  -0.024609  0  3.927206  0
C  C63  1  0.48167188  0.17318978  0.28148174  1  0  0.016056  0  3.683591  0  0  -0.022141  0  3.939258  0  0  -0.018069  0  3.957262  0  0.543911  0  0.03831  -0.024762  0  3.927212  0
C  C64  1  0.39452186  0.68003304  0.91085274  1  0  0.589408  0  3.763746  0  0  0.546776  0  4.059709  0  0  0.574401  0  4.059595  0  1.384519  0  0.244875  0.528164  0  4.059175  0
C  C65  1  0.60547835  0.31997037  0.08914787  1  0  0.589493  0  3.76368  0  0  0.546815  0  4.059685  0  0  0.574439  0  4.059564  0  1.384143  0  0.244874  0.528209  0  4.05915  0
C  C66  1  0.28364035  0.55315630  0.89939725  1  0  -0.264556  0  3.712511  0  0  -0.307481  0  3.968657  0  0  -0.312051  0  3.978188  0  -0.058689  0  -0.161578  -0.30432  0  3.962052  0
C  C67  1  0.71635119  0.44684613  0.10060091  1  0  -0.264528  0  3.712693  0  0  -0.307496  0  3.968936  0  0  -0.312068  0  3.978474  0  -0.058627  0  -0.161555  -0.304344  0  3.962335  0
C  C68  1  0.27124770  0.51949916  0.99473515  1  0  -0.084708  0  3.72968  0  0  -0.129256  0  3.995854  0  0  -0.1291  0  4.009272  0  0.028577  0  -0.167688  -0.129191  0  3.986596  0
C  C69  1  0.72874490  0.48050230  0.00526300  1  0  -0.084625  0  3.729758  0  0  -0.129241  0  3.995951  0  0  -0.129088  0  4.00938  0  0.028542  0  -0.167689  -0.129163  0  3.986678  0
C  C70  1  0.16039653  0.39273060  0.98489463  1  0  -0.109304  0  3.699629  0  0  -0.148924  0  3.95843  0  0  -0.149958  0  3.973467  0  -0.021755  0  -0.16983  -0.148013  0  3.947927  0
C  C71  1  0.83959363  0.60727086  0.01510394  1  0  -0.109477  0  3.699763  0  0  -0.149046  0  3.95855  0  0  -0.150079  0  3.973585  0  -0.021854  0  -0.1699  -0.148133  0  3.948044  0
C  C72  1  0.15075577  0.36014550  0.08116311  1  0  -0.097395  0  3.70067  0  0  -0.134522  0  3.960195  0  0  -0.135547  0  3.975092  0  -0.01131  0  -0.168099  -0.133656  0  3.949823  0
C  C73  1  0.84924169  0.63985595  0.91883557  1  0  -0.097314  0  3.700612  0  0  -0.13454  0  3.960266  0  0  -0.135565  0  3.975163  0  -0.011504  0  -0.168078  -0.133682  0  3.949901  0
C  C74  1  0.03431571  0.23643615  0.07245050  1  0  -0.095228  0  3.716767  0  0  -0.138173  0  3.978036  0  0  -0.138483  0  3.991578  0  -0.008145  0  -0.171047  -0.137752  0  3.968618  0
C  C75  1  0.96568839  0.76356141  0.92754840  1  0  -0.095199  0  3.716716  0  0  -0.13818  0  3.978084  0  0  -0.138488  0  3.991628  0  -0.008291  0  -0.171003  -0.137754  0  3.968655  0
C  C76  1  0.02104595  0.20768116  0.16896172  1  0  -0.2559  0  3.71351  0  0  -0.294931  0  3.964522  0  0  -0.299639  0  3.974718  0  -0.051383  0  -0.167264  -0.29167  0  3.957612  0
C  C77  1  0.97896284  0.79231543  0.83103825  1  0  -0.255719  0  3.713455  0  0  -0.294763  0  3.96448  0  0  -0.299478  0  3.974685  0  -0.051445  0  -0.167152  -0.291474  0  3.957575  0
C  C78  1  0.90041661  0.08783309  0.16213934  1  0  0.590663  0  3.768437  0  0  0.547085  0  4.063044  0  0  0.575001  0  4.063522  0  1.377083  0  0.241307  0.528196  0  4.062181  0
C  C79  1  0.09959169  0.91216057  0.83786018  1  0  0.590593  0  3.768235  0  0  0.546976  0  4.062957  0  0  0.574899  0  4.063431  0  1.377365  0  0.241209  0.528088  0  4.062086  0
C  C80  1  0.78147588  0.96296253  0.26695939  1  0  0.221579  0  3.782963  0  0  0.220039  0  4.028673  0  0  0.225011  0  4.050056  0  0.402354  0  0.107213  0.216401  0  4.014466  0
C  C81  1  0.21852976  0.03703698  0.73304129  1  0  0.221409  0  3.782889  0  0  0.219901  0  4.028609  0  0  0.22487  0  4.049991  0  0.402441  0  0.10721  0.216263  0  4.014402  0
C  C82  1  0.67808814  0.86493727  0.19697360  1  0  -0.109366  0  3.670129  0  0  -0.139055  0  3.924243  0  0  -0.138633  0  3.940966  0  0.018667  0  -0.075025  -0.139185  0  3.913201  0
C  C83  1  0.32191645  0.13506321  0.80302779  1  0  -0.109309  0  3.670073  0  0  -0.139005  0  3.924196  0  0  -0.138581  0  3.940911  0  0.01868  0  -0.075033  -0.139136  0  3.913155  0
C  C84  1  0.57638354  0.77415315  0.22548047  1  0  -0.109789  0  3.783301  0  0  -0.12005  0  4.039345  0  0  -0.12548  0  4.061309  0  -0.101343  0  -0.087341  -0.116457  0  4.024665  0
C  C85  1  0.42361757  0.22584831  0.77452135  1  0  -0.109759  0  3.783333  0  0  -0.12005  0  4.039386  0  0  -0.125478  0  4.061348  0  -0.101536  0  -0.087354  -0.116454  0  4.024703  0
C  C86  1  0.57729171  0.78208331  0.32145750  1  0  0.090737  0  3.73454  0  0  0.054255  0  3.993044  0  0  0.059465  0  4.0134  0  0.474018  0  0.030332  0.050452  0  3.979478  0
C  C87  1  0.42271215  0.21792010  0.67854556  1  0  0.090756  0  3.734668  0  0  0.054238  0  3.993202  0  0  0.05946  0  4.013565  0  0.473998  0  0.030352  0.050435  0  3.979636  0
C  C88  1  0.77625876  0.96386011  0.36264173  1  0  0.045728  0  3.643916  0  0  0.00896  0  3.896477  0  0  0.014525  0  3.911798  0  0.510938  0  0.049761  0.0049  0  3.886659  0
C  C89  1  0.22375037  0.03613842  0.63735921  1  0  0.045963  0  3.644039  0  0  0.009252  0  3.896469  0  0  0.014823  0  3.911784  0  0.510842  0  0.049899  0.005193  0  3.886654  0
C  C90  1  0.80969417  0.67250927  0.57247704  1  0  0.626102  0  3.93269  0  0  0.57678  0  4.222426  0  0  0.61022  0  4.218588  0  1.540216  0  0.190516  0.554037  0  4.223989  0
C  C91  1  0.19030069  0.32749121  0.42752123  1  0  0.626082  0  3.932766  0  0  0.576778  0  4.222457  0  0  0.610218  0  4.218616  0  1.540368  0  0.190455  0.554036  0  4.224023  0
C  C92  1  0.88572392  0.55407435  0.59156271  1  0  -0.06536  0  3.757903  0  0  -0.037005  0  3.985693  0  0  -0.046953  0  4.010316  0  -0.023852  0  -0.019206  -0.03073  0  3.969617  0
C  C93  1  0.11426851  0.44592613  0.40843803  1  0  -0.065393  0  3.757945  0  0  -0.037001  0  3.985695  0  0  -0.046952  0  4.010319  0  -0.023999  0  -0.01917  -0.030727  0  3.969616  0
C  C94  1  0.05511991  0.56378507  0.62687768  1  0  -0.076519  0  3.757316  0  0  -0.104017  0  4.011695  0  0  -0.101291  0  4.030228  0  -0.065811  0  -0.089326  -0.105029  0  3.998663  0
C  C95  1  0.94487098  0.43621346  0.37312264  1  0  -0.076429  0  3.757224  0  0  -0.103945  0  4.011606  0  0  -0.101216  0  4.030136  0  -0.065681  0  -0.089327  -0.104955  0  3.998576  0
C  C96  1  0.12599553  0.45402294  0.64551328  1  0  -0.092084  0  3.794176  0  0  -0.103126  0  4.053125  0  0  -0.108556  0  4.074565  0  -0.140072  0  -0.098165  -0.09966  0  4.038138  0
C  C97  1  0.87399464  0.54597851  0.35448666  1  0  -0.092203  0  3.794137  0  0  -0.103274  0  4.053127  0  0  -0.108701  0  4.074565  0  -0.139943  0  -0.098195  -0.099812  0  4.038141  0
C  C98  1  0.02836068  0.33392344  0.62856558  1  0  -0.042663  0  3.704218  0  0  -0.070348  0  3.951522  0  0  -0.066851  0  3.970283  0  0.00091  0  -0.080921  -0.071713  0  3.937911  0
C  C99  1  0.97163467  0.66607997  0.37144134  1  0  -0.042383  0  3.704287  0  0  -0.070061  0  3.951538  0  0  -0.066564  0  3.970296  0  0.001304  0  -0.080775  -0.071427  0  3.937927  0
C  C100  1  0.86019259  0.32164957  0.58896464  1  0  -0.072076  0  3.743449  0  0  -0.044225  0  3.974771  0  0  -0.054428  0  3.998136  0  -0.041348  0  -0.021471  -0.037761  0  3.959465  0
C  C101  1  0.13980333  0.67834994  0.41103703  1  0  -0.072068  0  3.743694  0  0  -0.044292  0  3.975114  0  0  -0.054493  0  3.998475  0  -0.041745  0  -0.021551  -0.037827  0  3.959807  0
C  C102  1  0.78889090  0.43219527  0.57110194  1  0  -0.069634  0  3.666939  0  0  -0.103016  0  3.906681  0  0  -0.10006  0  3.92465  0  0.00186  0  -0.074993  -0.105093  0  3.895491  0
C  C103  1  0.21110728  0.56780327  0.42889371  1  0  -0.069662  0  3.666854  0  0  -0.103026  0  3.906637  0  0  -0.100066  0  3.924601  0  0.00223  0  -0.075001  -0.105102  0  3.895446  0
C  C104  1  0.76029145  0.18841272  0.56121462  1  0  0.647188  0  3.930803  0  0  0.594151  0  4.228154  0  0  0.629879  0  4.220007  0  1.569725  0  0.201063  0.569679  0  4.232903  0
C  C105  1  0.23970641  0.81158386  0.43878552  1  0  0.646975  0  3.931154  0  0  0.593972  0  4.228495  0  0  0.629698  0  4.220349  0  1.569707  0  0.200941  0.569501  0  4.23324  0
N  N106  1  0.61549679  0.92115010  0.69786121  1  0  -0.314662  0  3.319076  0  0  -0.234298  0  3.587347  0  0  -0.254249  0  3.609631  0  -1.248478  0  -0.333766  -0.220481  0  3.57161  0
N  N107  1  0.38450884  0.07884941  0.30213948  1  0  -0.314712  0  3.319118  0  0  -0.234327  0  3.587373  0  0  -0.254283  0  3.609666  0  -1.248457  0  -0.333814  -0.22051  0  3.571642  0
N  N108  1  0.40272685  0.71823074  0.82629169  1  0  -0.4533  0  3.354263  0  0  -0.404742  0  3.597259  0  0  -0.425597  0  3.607667  0  -1.262252  0  -0.402949  -0.390214  0  3.589879  0
N  N109  1  0.59727862  0.28176779  0.17370749  1  0  -0.453293  0  3.354147  0  0  -0.404586  0  3.597126  0  0  -0.425452  0  3.607573  0  -1.262215  0  -0.402848  -0.39006  0  3.589741  0
N  N110  1  0.88653794  0.06149895  0.24913534  1  0  -0.471722  0  3.348997  0  0  -0.416695  0  3.589659  0  0  -0.440579  0  3.600412  0  -1.293968  0  -0.403679  -0.400155  0  3.581967  0
N  N111  1  0.11346997  0.93849958  0.75086615  1  0  -0.471515  0  3.348977  0  0  -0.416595  0  3.589733  0  0  -0.440478  0  3.600485  0  -1.294157  0  -0.403676  -0.400061  0  3.582043  0
N  N112  1  0.67608893  0.87679694  0.38831971  1  0  -0.325607  0  3.343513  0  0  -0.242836  0  3.613136  0  0  -0.263274  0  3.634223  0  -1.224788  0  -0.337836  -0.228637  0  3.598632  0
N  N113  1  0.32391477  0.12320549  0.61168252  1  0  -0.325727  0  3.343744  0  0  -0.242948  0  3.613349  0  0  -0.263388  0  3.634433  0  -1.224668  0  -0.337878  -0.228746  0  3.598837  0
O  O114  1  0.47234425  0.74207483  0.98895310  1  0  -0.518508  0  1.929202  0  0  -0.465136  0  2.14174  0  0  -0.486268  0  2.138603  0  -1.132594  0  -0.268319  -0.450414  0  2.143436  0
O  O115  1  0.52765686  0.25792663  0.01104871  1  0  -0.518572  0  1.929086  0  0  -0.465197  0  2.141676  0  0  -0.486319  0  2.138528  0  -1.132549  0  -0.26836  -0.450479  0  2.14337  0
O  O116  1  0.82120577  0.02202260  0.08523770  1  0  -0.535685  0  1.929861  0  0  -0.483347  0  2.144634  0  0  -0.504385  0  2.140574  0  -1.151995  0  -0.279994  -0.468974  0  2.147229  0
O  O117  1  0.17881193  0.97796912  0.91476670  1  0  -0.535845  0  1.929703  0  0  -0.483424  0  2.144462  0  0  -0.504482  0  2.140422  0  -1.152034  0  -0.280018  -0.469047  0  2.147054  0
O  O118  1  0.90175592  0.78328789  0.59315075  1  0  -0.66589  0  1.992595  0  0  -0.601715  0  2.235612  0  0  -0.629702  0  2.226814  0  -1.194683  0  -0.338481  -0.580963  0  2.241869  0
O  O119  1  0.09823789  0.21671357  0.40685027  1  0  -0.665876  0  1.992685  0  0  -0.601707  0  2.235729  0  0  -0.629698  0  2.22693  0  -1.194751  0  -0.338451  -0.58094  0  2.241951  0
O  O120  1  0.65748747  0.66089422  0.53699876  1  0  -0.619151  0  1.932796  0  0  -0.562677  0  2.168024  0  0  -0.590222  0  2.15952  0  -1.157344  0  -0.327428  -0.542562  0  2.172673  0
O  O121  1  0.34250999  0.33910723  0.46299035  1  0  -0.619147  0  1.932852  0  0  -0.562679  0  2.168057  0  0  -0.59022  0  2.159537  0  -1.157348  0  -0.327394  -0.542572  0  2.172721  0
O  O122  1  0.62221174  0.17468089  0.50459174  1  0  -0.675118  0  2.062099  0  0  -0.614204  0  2.335302  0  0  -0.642764  0  2.322608  0  -1.202575  0  -0.335185  -0.593072  0  2.342474  0
O  O123  1  0.37778230  0.82531473  0.49541264  1  0  -0.675012  0  2.062089  0  0  -0.614098  0  2.335254  0  0  -0.64269  0  2.322641  0  -1.202565  0  -0.335114  -0.592969  0  2.342426  0
O  O124  1  0.82450055  0.09638309  0.59467292  1  0  -0.641364  0  1.996815  0  0  -0.575  0  2.247974  0  0  -0.603376  0  2.236302  0  -1.155399  0  -0.328964  -0.554324  0  2.256395  0
O  O125  1  0.17550007  0.90361545  0.40532504  1  0  -0.641294  0  1.996908  0  0  -0.574949  0  2.248078  0  0  -0.603316  0  2.236386  0  -1.155358  0  -0.328921  -0.554272  0  2.256495  0
