# generated using pymatgen
data_LiH9C5INO2
_symmetry_space_group_name_H-M   'P 1'
_cell_length_a   5.05595233
_cell_length_b   9.94576698
_cell_length_c   15.93920207
_cell_angle_alpha   89.99981316
_cell_angle_beta   90.00019929
_cell_angle_gamma   89.99949169
_symmetry_Int_Tables_number   1
_chemical_formula_structural   LiH9C5INO2
_chemical_formula_sum   'Li4 H36 C20 I4 N4 O8'
_cell_volume   801.50793639
_cell_formula_units_Z   4
loop_
 _symmetry_equiv_pos_site_id
 _symmetry_equiv_pos_as_xyz
  1  'x, y, z'
loop_
 _atom_site_type_symbol
 _atom_site_label
 _atom_site_symmetry_multiplicity
 _atom_site_fract_x
 _atom_site_fract_y
 _atom_site_fract_z
 _atom_site_occupancy
 _atom_site_hle17_bader_spin_density
 _atom_site_hle17_ddec_charge
 _atom_site_hle17_ddec_spin_density
 _atom_site_hle17_ddec_sum_bond_order
 _atom_site_hle17_magmom
 _atom_site_hse06_10hf_bader_spin_density
 _atom_site_hse06_10hf_ddec_charge
 _atom_site_hse06_10hf_ddec_spin_density
 _atom_site_hse06_10hf_ddec_sum_bond_order
 _atom_site_hse06_10hf_magmom
 _atom_site_hse06_bader_spin_density
 _atom_site_hse06_ddec_charge
 _atom_site_hse06_ddec_spin_density
 _atom_site_hse06_ddec_sum_bond_order
 _atom_site_hse06_magmom
 _atom_site_pbe_bader_spin_density
 _atom_site_pbe_cm5_charge
 _atom_site_pbe_ddec_charge
 _atom_site_pbe_ddec_spin_density
 _atom_site_pbe_ddec_sum_bond_order
 _atom_site_pbe_magmom
Li  Li0  1  0.52579464  0.75592799  0.94356056  1  0  0.847318  0  0.398872  0  0  0.799207  0  0.514532  0  0  0.810304  0  0.496064  0  0  0.427726  0.791277  0  0.527815  0
Li  Li1  1  0.97422426  0.24407133  0.44356139  1  0  0.847333  0  0.398849  0  0  0.799208  0  0.514499  0  0  0.810303  0  0.49603  0  0  0.427692  0.791271  0  0.527792  0
Li  Li2  1  0.02576939  0.74406810  0.05643684  1  0  0.847309  0  0.398847  0  0  0.799215  0  0.514458  0  0  0.810304  0  0.495993  0  0  0.427714  0.791284  0  0.52774  0
Li  Li3  1  0.47422797  0.25593047  0.55643627  1  0  0.847322  0  0.398842  0  0  0.799216  0  0.514473  0  0  0.810306  0  0.496004  0  0  0.427698  0.791283  0  0.527761  0
H  H4  1  0.77726239  0.23241162  0.79493585  1  0  0.071419  0  0.945355  0  0  0.079622  0  1.019457  0  0  0.081365  0  1.018339  0  0  0.098036  0.078056  0  1.020661  0
H  H5  1  0.72273512  0.76758646  0.29493785  1  0  0.071393  0  0.945416  0  0  0.079605  0  1.019508  0  0  0.081352  0  1.018387  0  0  0.098038  0.078039  0  1.020708  0
H  H6  1  0.27725614  0.26759208  0.20506159  1  0  0.071409  0  0.945374  0  0  0.079626  0  1.019457  0  0  0.08137  0  1.01834  0  0  0.098036  0.07806  0  1.020663  0
H  H7  1  0.22273887  0.73240874  0.70506353  1  0  0.07135  0  0.945419  0  0  0.079583  0  1.019487  0  0  0.081341  0  1.018356  0  0  0.098024  0.078018  0  1.020687  0
H  H8  1  0.12292440  0.25987910  0.77728024  1  0  0.074197  0  0.927637  0  0  0.086023  0  0.995332  0  0  0.087354  0  0.994984  0  0  0.102329  0.084965  0  0.99573  0
H  H9  1  0.37707140  0.74012033  0.27728059  1  0  0.074203  0  0.927563  0  0  0.086036  0  0.995269  0  0  0.087369  0  0.994917  0  0  0.102305  0.084977  0  0.995663  0
H  H10  1  0.62292430  0.24012127  0.22271891  1  0  0.074205  0  0.927547  0  0  0.086025  0  0.995251  0  0  0.087359  0  0.994897  0  0  0.102311  0.084966  0  0.995651  0
H  H11  1  0.87706649  0.75987820  0.72271845  1  0  0.074266  0  0.927498  0  0  0.086037  0  0.995266  0  0  0.087368  0  0.99492  0  0  0.102301  0.084978  0  0.995663  0
H  H12  1  0.09544037  0.30506484  0.92555549  1  0  0.087282  0  0.961224  0  0  0.101128  0  1.026953  0  0  0.102736  0  1.026839  0  0  0.087599  0.099791  0  1.027327  0
H  H13  1  0.40455901  0.69493281  0.42555784  1  0  0.087239  0  0.961236  0  0  0.101089  0  1.026955  0  0  0.102699  0  1.026841  0  0  0.087565  0.099754  0  1.027329  0
H  H14  1  0.59543747  0.19493566  0.07444363  1  0  0.087255  0  0.961264  0  0  0.101121  0  1.026961  0  0  0.102729  0  1.026846  0  0  0.087587  0.099784  0  1.027338  0
H  H15  1  0.90455369  0.80506659  0.57444124  1  0  0.087243  0  0.961227  0  0  0.101094  0  1.026944  0  0  0.102704  0  1.026829  0  0  0.087556  0.099759  0  1.027315  0
H  H16  1  0.86576534  0.17212308  0.94326710  1  0  0.079271  0  0.939497  0  0  0.097794  0  0.998317  0  0  0.098567  0  0.999306  0  0  0.092988  0.097271  0  0.997566  0
H  H17  1  0.63423773  0.82787323  0.44326825  1  0  0.079256  0  0.939486  0  0  0.097809  0  0.998277  0  0  0.098585  0  0.999261  0  0  0.092996  0.097285  0  0.997528  0
H  H18  1  0.36576040  0.32787922  0.05673169  1  0  0.079236  0  0.939561  0  0  0.097792  0  0.998332  0  0  0.098566  0  0.999321  0  0  0.092985  0.097268  0  0.997587  0
H  H19  1  0.13423696  0.67212237  0.55673178  1  0  0.079288  0  0.939529  0  0  0.09784  0  0.998315  0  0  0.098614  0  0.999303  0  0  0.093006  0.097316  0  0.997564  0
H  H20  1  0.35218314  0.94124573  0.82334472  1  0  0.080022  0  0.954595  0  0  0.082735  0  1.02629  0  0  0.086102  0  1.023505  0  0  0.112897  0.07999  0  1.028769  0
H  H21  1  0.14782700  0.05876050  0.32334808  1  0  0.080098  0  0.954479  0  0  0.082801  0  1.026186  0  0  0.086171  0  1.0234  0  0  0.112927  0.080067  0  1.028672  0
H  H22  1  0.85216592  0.55875794  0.17665179  1  0  0.080098  0  0.954574  0  0  0.082791  0  1.026275  0  0  0.086162  0  1.023488  0  0  0.112908  0.080046  0  1.028751  0
H  H23  1  0.64783031  0.44124077  0.67665235  1  0  0.08007  0  0.954526  0  0  0.082774  0  1.026231  0  0  0.086144  0  1.023445  0  0  0.112906  0.080047  0  1.028721  0
H  H24  1  0.11524594  0.04706107  0.73033708  1  0  0.268606  0  0.912568  0  0  0.248827  0  0.979453  0  0  0.257554  0  0.973297  0  0  0.270933  0.242569  0  0.983908  0
H  H25  1  0.38474737  0.95293961  0.23033951  1  0  0.268585  0  0.91255  0  0  0.248845  0  0.979446  0  0  0.257573  0  0.97329  0  0  0.270945  0.242587  0  0.983899  0
H  H26  1  0.61524462  0.45294135  0.26966081  1  0  0.268613  0  0.912571  0  0  0.248865  0  0.97946  0  0  0.257592  0  0.973305  0  0  0.270954  0.242605  0  0.983917  0
H  H27  1  0.88475261  0.54705787  0.76966205  1  0  0.268582  0  0.912603  0  0  0.248825  0  0.979498  0  0  0.257552  0  0.973342  0  0  0.270928  0.242568  0  0.983952  0
H  H28  1  0.83599704  0.00636762  0.78288595  1  0  0.283015  0  0.883832  0  0  0.264059  0  0.950057  0  0  0.272541  0  0.943136  0  0  0.29647  0.258058  0  0.95493  0
H  H29  1  0.66400429  0.99362852  0.28288554  1  0  0.282916  0  0.883896  0  0  0.264025  0  0.950117  0  0  0.272508  0  0.943198  0  0  0.296455  0.258024  0  0.954989  0
H  H30  1  0.33599491  0.49363280  0.21711281  1  0  0.282887  0  0.883909  0  0  0.263998  0  0.950116  0  0  0.272482  0  0.943196  0  0  0.296453  0.257996  0  0.954988  0
H  H31  1  0.16400419  0.50636795  0.71711515  1  0  0.282986  0  0.883856  0  0  0.264055  0  0.950084  0  0  0.272538  0  0.943164  0  0  0.296461  0.258056  0  0.954956  0
H  H32  1  0.29013604  0.06460920  0.97841984  1  0  0.09595  0  0.952095  0  0  0.10921  0  1.016562  0  0  0.111261  0  1.0159  0  0  0.099609  0.10765  0  1.017165  0
H  H33  1  0.20986590  0.93538818  0.47842023  1  0  0.095949  0  0.952134  0  0  0.109236  0  1.016574  0  0  0.111288  0  1.015912  0  0  0.099615  0.107672  0  1.017184  0
H  H34  1  0.79012640  0.43539042  0.02158012  1  0  0.095934  0  0.952174  0  0  0.109174  0  1.016663  0  0  0.111226  0  1.016002  0  0  0.099575  0.107613  0  1.017276  0
H  H35  1  0.70986814  0.56460909  0.52158114  1  0  0.095937  0  0.952148  0  0  0.109209  0  1.016609  0  0  0.111261  0  1.015948  0  0  0.099605  0.107651  0  1.017216  0
H  H36  1  0.44956477  0.14677970  0.89298081  1  0  0.078452  0  0.944697  0  0  0.094667  0  1.008403  0  0  0.095732  0  1.00878  0  0  0.091886  0.093713  0  1.008538  0
H  H37  1  0.05043624  0.85322315  0.39297931  1  0  0.078431  0  0.944703  0  0  0.094659  0  1.008413  0  0  0.095724  0  1.00879  0  0  0.091893  0.093706  0  1.008545  0
H  H38  1  0.94956144  0.35322121  0.10702058  1  0  0.078451  0  0.944708  0  0  0.094661  0  1.008415  0  0  0.095725  0  1.008792  0  0  0.091899  0.093708  0  1.008553  0
H  H39  1  0.55043205  0.64677785  0.60702000  1  0  0.078425  0  0.944724  0  0  0.094637  0  1.008442  0  0  0.095702  0  1.008818  0  0  0.091874  0.093687  0  1.008575  0
C  C40  1  0.97713213  0.20055536  0.81251592  1  0  0.041369  0  3.511714  0  0  -0.017767  0  3.771314  0  0  -0.013862  0  3.780845  0  0  -0.06582  -0.020158  0  3.764656  0
C  C41  1  0.52286359  0.79944364  0.31251638  1  0  0.041364  0  3.511673  0  0  -0.017728  0  3.77129  0  0  -0.013825  0  3.780821  0  0  -0.06583  -0.020121  0  3.764636  0
C  C42  1  0.47712910  0.29944743  0.18748300  1  0  0.041304  0  3.51157  0  0  -0.017826  0  3.771254  0  0  -0.013922  0  3.780787  0  0  -0.065842  -0.020206  0  3.76458  0
C  C43  1  0.02286375  0.70055448  0.68748227  1  0  0.041299  0  3.51154  0  0  -0.017781  0  3.771153  0  0  -0.013889  0  3.78068  0  0  -0.065847  -0.020185  0  3.764525  0
C  C44  1  0.03768546  0.20364298  0.90597929  1  0  -0.138819  0  3.666112  0  0  -0.179919  0  3.923138  0  0  -0.182057  0  3.936453  0  0  -0.16797  -0.17829  0  3.913865  0
C  C45  1  0.46231371  0.79635478  0.40598088  1  0  -0.138773  0  3.665991  0  0  -0.179873  0  3.922994  0  0  -0.182015  0  3.93631  0  0  -0.167923  -0.178249  0  3.913721  0
C  C46  1  0.53768496  0.29635980  0.09401725  1  0  -0.13875  0  3.66609  0  0  -0.179808  0  3.92296  0  0  -0.181945  0  3.936277  0  0  -0.167884  -0.178193  0  3.913711  0
C  C47  1  0.96230641  0.70364236  0.59401638  1  0  -0.138765  0  3.665947  0  0  -0.179827  0  3.922873  0  0  -0.181969  0  3.936191  0  0  -0.167866  -0.178195  0  3.913591  0
C  C48  1  0.18114292  0.98768287  0.85443773  1  0  -0.002387  0  3.498853  0  0  -0.02043  0  3.733163  0  0  -0.021645  0  3.743829  0  0  0.009204  -0.019519  0  3.725979  0
C  C49  1  0.31885965  0.01231616  0.35443949  1  0  -0.002457  0  3.498789  0  0  -0.020432  0  3.733178  0  0  -0.021652  0  3.743846  0  0  0.009181  -0.019582  0  3.72608  0
C  C50  1  0.68113804  0.51231553  0.14556047  1  0  -0.002548  0  3.499005  0  0  -0.020495  0  3.733321  0  0  -0.021715  0  3.743991  0  0  0.009176  -0.019587  0  3.726143  0
C  C51  1  0.81885983  0.48768534  0.64556113  1  0  -0.002395  0  3.498876  0  0  -0.020381  0  3.733207  0  0  -0.021601  0  3.743876  0  0  0.00918  -0.019569  0  3.726173  0
C  C52  1  0.02039695  0.87917766  0.89934715  1  0  0.703452  0  3.86647  0  0  0.656458  0  4.167148  0  0  0.688864  0  4.158229  0  0  0.233246  0.634303  0  4.172736  0
C  C53  1  0.47962391  0.12081711  0.39934259  1  0  0.703536  0  3.866169  0  0  0.656488  0  4.166923  0  0  0.688895  0  4.158  0  0  0.233219  0.634347  0  4.172512  0
C  C54  1  0.52036595  0.62081544  0.10066028  1  0  0.703597  0  3.866187  0  0  0.656512  0  4.166985  0  0  0.688917  0  4.158062  0  0  0.233206  0.634357  0  4.17257  0
C  C55  1  0.97962747  0.37918266  0.60066009  1  0  0.703621  0  3.866085  0  0  0.656579  0  4.166836  0  0  0.688984  0  4.157913  0  0  0.233293  0.634447  0  4.172431  0
C  C56  1  0.26281312  0.10178404  0.91427605  1  0  -0.133963  0  3.617363  0  0  -0.177077  0  3.868553  0  0  -0.178092  0  3.880285  0  0  -0.155106  -0.176246  0  3.860648  0
C  C57  1  0.23718812  0.89821568  0.41427654  1  0  -0.133962  0  3.617404  0  0  -0.177126  0  3.868616  0  0  -0.17814  0  3.880347  0  0  -0.155132  -0.176274  0  3.86071  0
C  C58  1  0.76281471  0.39821571  0.08572451  1  0  -0.133943  0  3.617551  0  0  -0.177061  0  3.868726  0  0  -0.178077  0  3.880459  0  0  -0.15509  -0.176209  0  3.86078  0
C  C59  1  0.73718052  0.60178347  0.58572423  1  0  -0.133964  0  3.617491  0  0  -0.177115  0  3.868722  0  0  -0.17813  0  3.880454  0  0  -0.155108  -0.176248  0  3.8608  0
I  I60  1  0.49756230  0.50516632  0.85649057  1  0  -0.643481  0  0.734646  0  0  -0.595154  0  0.980296  0  0  -0.60965  0  0.960769  0  0  -0.233028  -0.583698  0  0.994691  0
I  I61  1  0.00242645  0.49483772  0.35649413  1  0  -0.643493  0  0.734612  0  0  -0.595171  0  0.980259  0  0  -0.609669  0  0.960732  0  0  -0.233036  -0.58372  0  0.994657  0
I  I62  1  0.99757273  0.99483568  0.14350547  1  0  -0.643479  0  0.734625  0  0  -0.595165  0  0.980269  0  0  -0.609662  0  0.960739  0  0  -0.233048  -0.583713  0  0.994663  0
I  I63  1  0.50242314  0.00516320  0.64350488  1  0  -0.643481  0  0.734638  0  0  -0.595173  0  0.980284  0  0  -0.609669  0  0.960755  0  0  -0.233045  -0.583715  0  0.994681  0
N  N64  1  0.01657832  0.05543355  0.78819436  1  0  -0.289133  0  3.31919  0  0  -0.222356  0  3.510637  0  0  -0.236698  0  3.51879  0  0  -0.477562  -0.212449  0  3.504966  0
N  N65  1  0.48341958  0.94456482  0.28819567  1  0  -0.288967  0  3.319117  0  0  -0.22243  0  3.510761  0  0  -0.236774  0  3.518919  0  0  -0.477548  -0.212507  0  3.505092  0
N  N66  1  0.51657652  0.44456429  0.21180467  1  0  -0.288922  0  3.319167  0  0  -0.222351  0  3.51077  0  0  -0.236695  0  3.518927  0  0  -0.477575  -0.212442  0  3.505095  0
N  N67  1  0.98342207  0.55543523  0.71180538  1  0  -0.289083  0  3.319195  0  0  -0.222438  0  3.510782  0  0  -0.236781  0  3.518939  0  0  -0.477568  -0.21251  0  3.505129  0
O  O68  1  0.77417579  0.87308998  0.88632497  1  0  -0.696016  0  1.927349  0  0  -0.648762  0  2.16241  0  0  -0.67091  0  2.15041  0  0  -0.374642  -0.633725  0  2.170577  0
O  O69  1  0.72583655  0.12690058  0.38632137  1  0  -0.696091  0  1.927283  0  0  -0.648801  0  2.162369  0  0  -0.670947  0  2.150366  0  0  -0.374668  -0.633763  0  2.170536  0
O  O70  1  0.27417694  0.62690197  0.11368086  1  0  -0.695899  0  1.927617  0  0  -0.64864  0  2.162743  0  0  -0.67078  0  2.150742  0  0  -0.374527  -0.633612  0  2.17091  0
O  O71  1  0.22582104  0.37309430  0.61368166  1  0  -0.695994  0  1.927434  0  0  -0.648739  0  2.162545  0  0  -0.670878  0  2.15054  0  0  -0.374606  -0.633705  0  2.170709  0
O  O72  1  0.15332040  0.80472445  0.94876383  1  0  -0.806526  0  2.011127  0  0  -0.758244  0  2.255987  0  0  -0.779443  0  2.240154  0  0  -0.44879  -0.743534  0  2.266888  0
O  O73  1  0.34670891  0.19528514  0.44876085  1  0  -0.806556  0  2.010815  0  0  -0.758242  0  2.255692  0  0  -0.779443  0  2.239859  0  0  -0.448711  -0.743527  0  2.266588  0
O  O74  1  0.65329548  0.69529218  0.05123936  1  0  -0.806757  0  2.010503  0  0  -0.758427  0  2.255393  0  0  -0.779632  0  2.239559  0  0  -0.448824  -0.743715  0  2.266289  0
O  O75  1  0.84670136  0.30470919  0.55124106  1  0  -0.806738  0  2.010626  0  0  -0.75842  0  2.255505  0  0  -0.779624  0  2.23967  0  0  -0.448796  -0.7437  0  2.266398  0
