# generated using pymatgen
data_CuH9C10IN
_symmetry_space_group_name_H-M   'P 1'
_cell_length_a   4.06876212
_cell_length_b   9.70420427
_cell_length_c   24.53566273
_cell_angle_alpha   89.99927361
_cell_angle_beta   90.00019018
_cell_angle_gamma   98.40140465
_symmetry_Int_Tables_number   1
_chemical_formula_structural   CuH9C10IN
_chemical_formula_sum   'Cu4 H36 C40 I4 N4'
_cell_volume   958.37243441
_cell_formula_units_Z   4
loop_
 _symmetry_equiv_pos_site_id
 _symmetry_equiv_pos_as_xyz
  1  'x, y, z'
loop_
 _atom_site_type_symbol
 _atom_site_label
 _atom_site_symmetry_multiplicity
 _atom_site_fract_x
 _atom_site_fract_y
 _atom_site_fract_z
 _atom_site_occupancy
 _atom_site_hle17_bader_spin_density
 _atom_site_hle17_ddec_charge
 _atom_site_hle17_ddec_spin_density
 _atom_site_hle17_ddec_sum_bond_order
 _atom_site_hle17_magmom
 _atom_site_hse06_10hf_bader_spin_density
 _atom_site_hse06_10hf_ddec_charge
 _atom_site_hse06_10hf_ddec_spin_density
 _atom_site_hse06_10hf_ddec_sum_bond_order
 _atom_site_hse06_10hf_magmom
 _atom_site_hse06_bader_spin_density
 _atom_site_hse06_ddec_charge
 _atom_site_hse06_ddec_spin_density
 _atom_site_hse06_ddec_sum_bond_order
 _atom_site_hse06_magmom
 _atom_site_pbe_bader_spin_density
 _atom_site_pbe_cm5_charge
 _atom_site_pbe_ddec_charge
 _atom_site_pbe_ddec_spin_density
 _atom_site_pbe_ddec_sum_bond_order
 _atom_site_pbe_magmom
Cu  Cu0  1  0.84636534  0.08463872  0.13685143  1  0  0.34124  0  1.976293  0  0  0.249393  0  2.444079  0  0  0.264052  0  2.393257  0  0  0.303963  0.239233  0  2.479857  0
Cu  Cu1  1  0.65364141  0.41536665  0.63685620  1  0  0.341263  0  1.97628  0  0  0.249472  0  2.444092  0  0  0.264123  0  2.393256  0  0  0.304  0.23931  0  2.479914  0
Cu  Cu2  1  0.15363495  0.91535905  0.86314420  1  0  0.341253  0  1.976278  0  0  0.249452  0  2.444052  0  0  0.2641  0  2.393225  0  0  0.303992  0.239296  0  2.47986  0
Cu  Cu3  1  0.34635340  0.58463732  0.36314758  1  0  0.341292  0  1.976214  0  0  0.249482  0  2.444003  0  0  0.264138  0  2.393164  0  0  0.304014  0.239322  0  2.479808  0
H  H4  1  0.34792621  0.82909798  0.24578230  1  0  0.119817  0  0.958185  0  0  0.139081  0  1.02234  0  0  0.140677  0  1.022912  0  0  0.088107  0.137917  0  1.021989  0
H  H5  1  0.15205341  0.67090100  0.74578992  1  0  0.119864  0  0.958169  0  0  0.139181  0  1.022226  0  0  0.14077  0  1.022804  0  0  0.088153  0.138003  0  1.021881  0
H  H6  1  0.65205532  0.17090277  0.75421211  1  0  0.119852  0  0.958169  0  0  0.139117  0  1.022294  0  0  0.140715  0  1.022863  0  0  0.088115  0.137945  0  1.021947  0
H  H7  1  0.84789418  0.32909326  0.25422079  1  0  0.119963  0  0.957977  0  0  0.139167  0  1.02221  0  0  0.140768  0  1.022776  0  0  0.088093  0.138005  0  1.021855  0
H  H8  1  0.74394006  0.91358943  0.26479045  1  0  0.116059  0  0.968058  0  0  0.13705  0  1.032193  0  0  0.138612  0  1.032504  0  0  0.085156  0.135566  0  1.032745  0
H  H9  1  0.75603160  0.58641966  0.76479936  1  0  0.116231  0  0.968054  0  0  0.137167  0  1.032209  0  0  0.138734  0  1.032515  0  0  0.085149  0.135682  0  1.032752  0
H  H10  1  0.25604029  0.08641546  0.73520315  1  0  0.116115  0  0.968129  0  0  0.137101  0  1.032235  0  0  0.138673  0  1.032538  0  0  0.085139  0.135619  0  1.032781  0
H  H11  1  0.24389915  0.41358382  0.23520809  1  0  0.115949  0  0.968079  0  0  0.136945  0  1.032218  0  0  0.138502  0  1.032537  0  0  0.085147  0.13546  0  1.032767  0
H  H12  1  0.51437903  0.99108443  0.21389692  1  0  0.104305  0  0.996626  0  0  0.11854  0  1.074458  0  0  0.122655  0  1.069876  0  0  0.076561  0.115953  0  1.076884  0
H  H13  1  0.98558772  0.50891168  0.71390839  1  0  0.104312  0  0.996622  0  0  0.118533  0  1.074447  0  0  0.122652  0  1.069856  0  0  0.076559  0.115944  0  1.076886  0
H  H14  1  0.48560218  0.00891527  0.78609545  1  0  0.104289  0  0.996667  0  0  0.11849  0  1.074512  0  0  0.122609  0  1.069927  0  0  0.076542  0.115904  0  1.076944  0
H  H15  1  0.01435280  0.49108356  0.28610232  1  0  0.104268  0  0.996672  0  0  0.118493  0  1.074507  0  0  0.122609  0  1.069924  0  0  0.076548  0.115908  0  1.076938  0
H  H16  1  0.66571164  0.62232207  0.23225688  1  0  0.103629  0  0.962432  0  0  0.116924  0  1.021678  0  0  0.120062  0  1.02104  0  0  0.099744  0.114642  0  1.022484  0
H  H17  1  0.83426051  0.87767454  0.73226071  1  0  0.103786  0  0.962231  0  0  0.11708  0  1.021469  0  0  0.120238  0  1.020807  0  0  0.099794  0.114794  0  1.022277  0
H  H18  1  0.33427172  0.37767661  0.76774161  1  0  0.103749  0  0.962381  0  0  0.117053  0  1.021609  0  0  0.12018  0  1.020983  0  0  0.099781  0.11477  0  1.022419  0
H  H19  1  0.16571673  0.12232825  0.26774511  1  0  0.103655  0  0.962504  0  0  0.11693  0  1.021777  0  0  0.120097  0  1.021103  0  0  0.099747  0.114647  0  1.022585  0
H  H20  1  0.93720171  0.49173582  0.16073812  1  0  0.094874  0  0.969535  0  0  0.107631  0  1.029939  0  0  0.110379  0  1.028016  0  0  0.093133  0.105091  0  1.032431  0
H  H21  1  0.56281446  0.00826679  0.66074039  1  0  0.094834  0  0.969538  0  0  0.107551  0  1.029996  0  0  0.110311  0  1.028059  0  0  0.0931  0.105029  0  1.032461  0
H  H22  1  0.06279826  0.50826091  0.83926077  1  0  0.09485  0  0.969481  0  0  0.107576  0  1.029919  0  0  0.110344  0  1.027973  0  0  0.093133  0.105046  0  1.032396  0
H  H23  1  0.43721333  0.99174055  0.33926054  1  0  0.094843  0  0.969534  0  0  0.10761  0  1.029932  0  0  0.110348  0  1.028021  0  0  0.093128  0.105078  0  1.032419  0
H  H24  1  0.20362458  0.49338491  0.06931629  1  0  0.091075  0  0.971039  0  0  0.099243  0  1.040034  0  0  0.102399  0  1.038457  0  0  0.091041  0.096973  0  1.041276  0
H  H25  1  0.29638893  0.00662539  0.56931626  1  0  0.091062  0  0.971002  0  0  0.099228  0  1.039996  0  0  0.10238  0  1.038423  0  0  0.091024  0.096964  0  1.04123  0
H  H26  1  0.79636179  0.50660756  0.93068219  1  0  0.091139  0  0.970989  0  0  0.099291  0  1.039992  0  0  0.102441  0  1.038419  0  0  0.091045  0.097025  0  1.041226  0
H  H27  1  0.70365921  0.99338418  0.43068264  1  0  0.091032  0  0.970895  0  0  0.099208  0  1.039903  0  0  0.102357  0  1.038339  0  0  0.091015  0.096949  0  1.041134  0
H  H28  1  0.40440834  0.62433150  0.98493262  1  0  0.088191  0  0.963427  0  0  0.098051  0  1.026606  0  0  0.10089  0  1.026068  0  0  0.093354  0.096245  0  1.026739  0
H  H29  1  0.09563575  0.87567909  0.48493155  1  0  0.088184  0  0.963444  0  0  0.098029  0  1.02664  0  0  0.100854  0  1.026116  0  0  0.093385  0.096226  0  1.026774  0
H  H30  1  0.59559678  0.37565799  0.01506668  1  0  0.088126  0  0.963339  0  0  0.098  0  1.026525  0  0  0.100823  0  1.026004  0  0  0.093336  0.096191  0  1.026659  0
H  H31  1  0.90442375  0.12432744  0.51506816  1  0  0.088224  0  0.963494  0  0  0.098057  0  1.026699  0  0  0.100891  0  1.026168  0  0  0.093337  0.096251  0  1.026828  0
H  H32  1  0.34923217  0.87373486  0.97604614  1  0  0.075525  0  0.986752  0  0  0.083405  0  1.058744  0  0  0.087065  0  1.055317  0  0  0.085962  0.080785  0  1.06125  0
H  H33  1  0.15081925  0.62627607  0.47604431  1  0  0.075382  0  0.986766  0  0  0.083304  0  1.058745  0  0  0.086955  0  1.055323  0  0  0.085929  0.080684  0  1.061237  0
H  H34  1  0.65078742  0.12625371  0.02395153  1  0  0.075521  0  0.986677  0  0  0.083445  0  1.058651  0  0  0.087105  0  1.055224  0  0  0.086012  0.080828  0  1.061157  0
H  H35  1  0.84922612  0.37373243  0.52395540  1  0  0.075485  0  0.986642  0  0  0.083391  0  1.058636  0  0  0.087052  0  1.055211  0  0  0.085956  0.08077  0  1.061134  0
H  H36  1  0.08837674  0.99631493  0.05017796  1  0  0.089851  0  0.992367  0  0  0.09953  0  1.06256  0  0  0.103288  0  1.059391  0  0  0.090156  0.096564  0  1.065265  0
H  H37  1  0.41167733  0.50369808  0.55018045  1  0  0.089857  0  0.992581  0  0  0.099555  0  1.062701  0  0  0.103318  0  1.059524  0  0  0.09011  0.09661  0  1.065379  0
H  H38  1  0.91163705  0.00367879  0.94981686  1  0  0.089841  0  0.992441  0  0  0.099509  0  1.062574  0  0  0.103291  0  1.059376  0  0  0.090112  0.09653  0  1.065293  0
H  H39  1  0.58835571  0.49631033  0.44982048  1  0  0.089835  0  0.992355  0  0  0.09954  0  1.062511  0  0  0.103285  0  1.059352  0  0  0.090127  0.096572  0  1.06522  0
C  C40  1  0.73117962  0.81446507  0.18678831  1  0  0.325116  0  3.70127  0  0  0.332374  0  3.937247  0  0  0.345526  0  3.95425  0  0  0.122183  0.323296  0  3.925647  0
C  C41  1  0.76881765  0.68552798  0.68679470  1  0  0.325485  0  3.700836  0  0  0.332724  0  3.936957  0  0  0.345866  0  3.953975  0  0  0.122394  0.323646  0  3.925342  0
C  C42  1  0.26881724  0.18552956  0.81320609  1  0  0.325421  0  3.70066  0  0  0.332557  0  3.936871  0  0  0.345697  0  3.953897  0  0  0.122315  0.323471  0  3.925286  0
C  C43  1  0.23116452  0.31447485  0.31321193  1  0  0.325098  0  3.70107  0  0  0.332453  0  3.936971  0  0  0.345605  0  3.953979  0  0  0.122258  0.323368  0  3.925371  0
C  C44  1  0.57432162  0.89185576  0.22987597  1  0  -0.37821  0  3.700344  0  0  -0.458541  0  3.931288  0  0  -0.463046  0  3.936131  0  0  -0.249732  -0.454894  0  3.927429  0
C  C45  1  0.92565458  0.60814615  0.72988446  1  0  -0.378532  0  3.700693  0  0  -0.458795  0  3.931662  0  0  -0.46329  0  3.936511  0  0  -0.249759  -0.455143  0  3.927838  0
C  C46  1  0.42566484  0.10814502  0.77011762  1  0  -0.378369  0  3.70055  0  0  -0.45859  0  3.931504  0  0  -0.463104  0  3.936344  0  0  -0.249702  -0.454943  0  3.927669  0
C  C47  1  0.07429365  0.39185019  0.27012421  1  0  -0.378136  0  3.700385  0  0  -0.458415  0  3.931298  0  0  -0.462922  0  3.936145  0  0  -0.249622  -0.454776  0  3.927454  0
C  C48  1  0.76207295  0.67243072  0.19462258  1  0  -0.182638  0  3.721668  0  0  -0.198647  0  3.968269  0  0  -0.2088  0  3.988871  0  0  -0.095894  -0.192286  0  3.955424  0
C  C49  1  0.73790882  0.82757547  0.69462824  1  0  -0.183071  0  3.721443  0  0  -0.199046  0  3.968071  0  0  -0.209213  0  3.988671  0  0  -0.096043  -0.192685  0  3.955222  0
C  C50  1  0.23790739  0.32757417  0.80537427  1  0  -0.182926  0  3.721664  0  0  -0.198892  0  3.968312  0  0  -0.209034  0  3.988927  0  0  -0.09597  -0.192528  0  3.955473  0
C  C51  1  0.26207796  0.17242636  0.30537513  1  0  -0.182722  0  3.721202  0  0  -0.198732  0  3.967802  0  0  -0.208905  0  3.988386  0  0  -0.095944  -0.192372  0  3.954963  0
C  C52  1  0.91197251  0.60126522  0.15557311  1  0  -0.034788  0  3.713752  0  0  -0.062927  0  3.96507  0  0  -0.055556  0  3.979897  0  0  -0.072444  -0.067855  0  3.956412  0
C  C53  1  0.58803165  0.89873614  0.65557711  1  0  -0.034691  0  3.713535  0  0  -0.062795  0  3.96489  0  0  -0.055439  0  3.979721  0  0  -0.072419  -0.067731  0  3.956209  0
C  C54  1  0.08802961  0.39873049  0.84442333  1  0  -0.034807  0  3.713741  0  0  -0.062878  0  3.965076  0  0  -0.055524  0  3.979893  0  0  -0.072499  -0.0678  0  3.956407  0
C  C55  1  0.41198875  0.10127114  0.34442626  1  0  -0.034719  0  3.713711  0  0  -0.062878  0  3.965038  0  0  -0.055507  0  3.979887  0  0  -0.072447  -0.0678  0  3.956367  0
C  C56  1  0.03052227  0.67068593  0.10717090  1  0  0.012244  0  3.790949  0  0  0.03145  0  4.016695  0  0  0.026388  0  4.041306  0  0  -0.00754  0.034519  0  3.999906  0
C  C57  1  0.46946386  0.82931852  0.60716976  1  0  0.01236  0  3.790763  0  0  0.03158  0  4.016528  0  0  0.026522  0  4.041143  0  0  -0.007534  0.03465  0  3.999741  0
C  C58  1  0.96946871  0.32930554  0.89282881  1  0  0.012323  0  3.790723  0  0  0.031425  0  4.016584  0  0  0.026363  0  4.0412  0  0  -0.007598  0.034488  0  3.999825  0
C  C59  1  0.53055558  0.17068563  0.39282995  1  0  0.012081  0  3.791102  0  0  0.031345  0  4.016815  0  0  0.026282  0  4.041418  0  0  -0.007588  0.034424  0  4.000044  0
C  C60  1  0.17960747  0.60332459  0.06443577  1  0  -0.096848  0  3.725925  0  0  -0.117186  0  3.97357  0  0  -0.118136  0  3.994676  0  0  -0.087042  -0.116026  0  3.959269  0
C  C61  1  0.32041676  0.89667839  0.56443909  1  0  -0.096978  0  3.726287  0  0  -0.117297  0  3.973891  0  0  -0.118249  0  3.994997  0  0  -0.087018  -0.116136  0  3.959593  0
C  C62  1  0.82038693  0.39667002  0.93556231  1  0  -0.097084  0  3.725778  0  0  -0.117373  0  3.973448  0  0  -0.118322  0  3.994549  0  0  -0.087055  -0.11621  0  3.95915  0
C  C63  1  0.67962272  0.10332695  0.43556347  1  0  -0.096731  0  3.726074  0  0  -0.117073  0  3.973654  0  0  -0.118025  0  3.994775  0  0  -0.086996  -0.115928  0  3.959349  0
C  C64  1  0.29014312  0.67556721  0.01799016  1  0  -0.063921  0  3.76125  0  0  -0.077198  0  4.008794  0  0  -0.081023  0  4.031546  0  0  -0.091227  -0.07503  0  3.993657  0
C  C65  1  0.20988572  0.82444559  0.51798971  1  0  -0.063819  0  3.761169  0  0  -0.077078  0  4.0087  0  0  -0.080889  0  4.031448  0  0  -0.091299  -0.074921  0  3.993577  0
C  C66  1  0.70986479  0.32442335  0.98200751  1  0  -0.063764  0  3.760986  0  0  -0.077032  0  4.008501  0  0  -0.080843  0  4.031251  0  0  -0.091202  -0.074868  0  3.993371  0
C  C67  1  0.79015503  0.17556392  0.48200999  1  0  -0.064014  0  3.761355  0  0  -0.077265  0  4.008891  0  0  -0.081086  0  4.031642  0  0  -0.091205  -0.075097  0  3.993754  0
C  C68  1  0.25796672  0.81791492  0.01292003  1  0  -0.041158  0  3.759187  0  0  -0.053634  0  4.003201  0  0  -0.053616  0  4.02477  0  0  -0.088671  -0.053321  0  3.988716  0
C  C69  1  0.24208790  0.68209408  0.51292317  1  0  -0.041075  0  3.759534  0  0  -0.053585  0  4.00357  0  0  -0.05356  0  4.025137  0  0  -0.088591  -0.053261  0  3.989079  0
C  C70  1  0.74205351  0.18207573  0.98707763  1  0  -0.041164  0  3.759128  0  0  -0.053699  0  4.003128  0  0  -0.053683  0  4.024702  0  0  -0.088697  -0.053385  0  3.988646  0
C  C71  1  0.75794943  0.31791229  0.48707654  1  0  -0.040989  0  3.75964  0  0  -0.053491  0  4.003654  0  0  -0.053474  0  4.025226  0  0  -0.088614  -0.053176  0  3.989152  0
C  C72  1  0.11341526  0.88621885  0.05383048  1  0  -0.159041  0  3.739123  0  0  -0.177626  0  3.987062  0  0  -0.182954  0  4.007375  0  0  -0.097692  -0.174162  0  3.973852  0
C  C73  1  0.38661262  0.61378865  0.55382955  1  0  -0.159042  0  3.739342  0  0  -0.177613  0  3.987367  0  0  -0.182946  0  4.007679  0  0  -0.097659  -0.17417  0  3.97414  0
C  C74  1  0.88659329  0.11377379  0.94616638  1  0  -0.159023  0  3.738822  0  0  -0.177593  0  3.986843  0  0  -0.182935  0  4.007137  0  0  -0.09764  -0.174121  0  3.973653  0
C  C75  1  0.61341446  0.38620829  0.44617220  1  0  -0.159165  0  3.739423  0  0  -0.177759  0  3.987449  0  0  -0.183084  0  4.007771  0  0  -0.097745  -0.174285  0  3.974249  0
C  C76  1  0.99504682  0.81433901  0.10159892  1  0  0.206285  0  3.745515  0  0  0.203655  0  3.975917  0  0  0.210404  0  3.998713  0  0  0.103304  0.199356  0  3.960589  0
C  C77  1  0.50497507  0.68566732  0.60160598  1  0  0.206018  0  3.745454  0  0  0.203387  0  3.976043  0  0  0.21013  0  3.998843  0  0  0.103177  0.199079  0  3.960733  0
C  C78  1  0.00495807  0.18565776  0.89839467  1  0  0.206148  0  3.74566  0  0  0.203611  0  3.976053  0  0  0.210355  0  3.998856  0  0  0.103279  0.1993  0  3.960758  0
C  C79  1  0.49503826  0.31434095  0.39839780  1  0  0.20626  0  3.745479  0  0  0.203589  0  3.976012  0  0  0.210355  0  3.998781  0  0  0.103277  0.199243  0  3.96074  0
I  I80  1  0.40822171  0.24223752  0.13594733  1  0  -0.441633  0  1.653763  0  0  -0.371836  0  2.1144  0  0  -0.393385  0  2.070746  0  0  -0.177235  -0.355317  0  2.147599  0
I  I81  1  0.09178221  0.25776956  0.63595000  1  0  -0.441665  0  1.653772  0  0  -0.371879  0  2.114433  0  0  -0.393416  0  2.070764  0  0  -0.177238  -0.355367  0  2.147668  0
I  I82  1  0.59177182  0.75776228  0.86405359  1  0  -0.441663  0  1.653794  0  0  -0.371875  0  2.114411  0  0  -0.393419  0  2.070763  0  0  -0.177237  -0.355362  0  2.147634  0
I  I83  1  0.90821539  0.74223547  0.36405215  1  0  -0.441694  0  1.653723  0  0  -0.371928  0  2.114395  0  0  -0.393462  0  2.070714  0  0  -0.177281  -0.355418  0  2.14763  0
N  N84  1  0.84725914  0.88386735  0.14184828  1  0  -0.369945  0  3.296221  0  0  -0.298705  0  3.576515  0  0  -0.315853  0  3.585167  0  0  -0.36519  -0.287215  0  3.57037  0
N  N85  1  0.65272829  0.61613639  0.64185251  1  0  -0.369778  0  3.296362  0  0  -0.298715  0  3.576922  0  0  -0.315858  0  3.58557  0  0  -0.365216  -0.287218  0  3.570782  0
N  N86  1  0.15272326  0.11612821  0.85814776  1  0  -0.369846  0  3.296233  0  0  -0.2987  0  3.576709  0  0  -0.315844  0  3.58536  0  0  -0.365191  -0.287195  0  3.570581  0
N  N87  1  0.34725539  0.38386333  0.35815087  1  0  -0.369811  0  3.296672  0  0  -0.298682  0  3.577079  0  0  -0.315834  0  3.585718  0  0  -0.365206  -0.287167  0  3.570943  0
