# generated using pymatgen
data_NdH13C7S2O13
_symmetry_space_group_name_H-M   'P 1'
_cell_length_a   7.82282362
_cell_length_b   10.30565223
_cell_length_c   10.64651742
_cell_angle_alpha   115.90480357
_cell_angle_beta   93.04785734
_cell_angle_gamma   105.64411543
_symmetry_Int_Tables_number   1
_chemical_formula_structural   NdH13C7S2O13
_chemical_formula_sum   'Nd2 H26 C14 S4 O26'
_cell_volume   728.84329162
_cell_formula_units_Z   2
loop_
 _symmetry_equiv_pos_site_id
 _symmetry_equiv_pos_as_xyz
  1  'x, y, z'
loop_
 _atom_site_type_symbol
 _atom_site_label
 _atom_site_symmetry_multiplicity
 _atom_site_fract_x
 _atom_site_fract_y
 _atom_site_fract_z
 _atom_site_occupancy
 _atom_site_hle17_bader_spin_density
 _atom_site_hle17_ddec_charge
 _atom_site_hle17_ddec_spin_density
 _atom_site_hle17_ddec_sum_bond_order
 _atom_site_hle17_magmom
 _atom_site_hse06_10hf_bader_spin_density
 _atom_site_hse06_10hf_ddec_charge
 _atom_site_hse06_10hf_ddec_spin_density
 _atom_site_hse06_10hf_ddec_sum_bond_order
 _atom_site_hse06_10hf_magmom
 _atom_site_hse06_bader_spin_density
 _atom_site_hse06_ddec_charge
 _atom_site_hse06_ddec_spin_density
 _atom_site_hse06_ddec_sum_bond_order
 _atom_site_hse06_magmom
 _atom_site_pbe_bader_spin_density
 _atom_site_pbe_cm5_charge
 _atom_site_pbe_ddec_charge
 _atom_site_pbe_ddec_spin_density
 _atom_site_pbe_ddec_sum_bond_order
 _atom_site_pbe_magmom
Nd  Nd0  1  0.56137201  0.68494506  0.78416191  1  0  2.408627  0  1.533867  0  0  2.305824  0  1.896074  0  0  2.34171  0  1.852978  0  0  1.485487  2.278673  0  1.927301  0
Nd  Nd1  1  0.43862695  0.31505303  0.21583510  1  0  2.408687  0  1.533907  0  0  2.305892  0  1.896118  0  0  2.341775  0  1.853022  0  0  1.485479  2.278758  0  1.927359  0
H  H2  1  0.25167991  0.02367735  0.31605352  1  0  0.127515  0  0.964625  0  0  0.131722  0  1.03381  0  0  0.136413  0  1.029003  0  0  0.11612  0.12823  0  1.037382  0
H  H3  1  0.74831651  0.97632415  0.68394576  1  0  0.127554  0  0.964645  0  0  0.131744  0  1.033842  0  0  0.136436  0  1.029033  0  0  0.116127  0.12825  0  1.037412  0
H  H4  1  0.16185639  0.74770773  0.53306795  1  0  0.121498  0  0.942398  0  0  0.128102  0  1.009066  0  0  0.13231  0  1.005212  0  0  0.114574  0.124708  0  1.012461  0
H  H5  1  0.83814216  0.25229264  0.46693094  1  0  0.121467  0  0.942376  0  0  0.128071  0  1.009051  0  0  0.132279  0  1.005195  0  0  0.114563  0.12468  0  1.012448  0
H  H6  1  0.41836032  0.23659313  0.77116088  1  0  0.133312  0  0.931893  0  0  0.140324  0  0.994118  0  0  0.144652  0  0.990048  0  0  0.122357  0.136936  0  0.997454  0
H  H7  1  0.58164167  0.76340953  0.22883913  1  0  0.133378  0  0.931863  0  0  0.140359  0  0.994125  0  0  0.144688  0  0.990055  0  0  0.122368  0.13697  0  0.997463  0
H  H8  1  0.96435052  0.70394146  0.72443380  1  0  0.43912  0  0.850074  0  0  0.412213  0  0.905817  0  0  0.421439  0  0.892285  0  0  0.308252  0.40567  0  0.915421  0
H  H9  1  0.03564803  0.29605891  0.27556697  1  0  0.439122  0  0.850081  0  0  0.412235  0  0.905789  0  0  0.421458  0  0.892263  0  0  0.308264  0.405698  0  0.915386  0
H  H10  1  0.87933012  0.54279302  0.71321480  1  0  0.432853  0  0.864986  0  0  0.402014  0  0.928009  0  0  0.411925  0  0.913433  0  0  0.303482  0.394946  0  0.938427  0
H  H11  1  0.12067058  0.45720964  0.28678515  1  0  0.432844  0  0.865  0  0  0.402  0  0.92803  0  0  0.411911  0  0.913455  0  0  0.303481  0.394934  0  0.938447  0
H  H12  1  0.79028622  0.65724048  0.02526278  1  0  0.453726  0  0.835141  0  0  0.424549  0  0.894537  0  0  0.434534  0  0.879773  0  0  0.303786  0.417441  0  0.905067  0
H  H13  1  0.20971274  0.34275762  0.97473611  1  0  0.453712  0  0.835165  0  0  0.424539  0  0.894556  0  0  0.434522  0  0.879794  0  0  0.303784  0.417434  0  0.905082  0
H  H14  1  0.70744890  0.49419568  0.89106517  1  0  0.442225  0  0.850089  0  0  0.412179  0  0.91201  0  0  0.422031  0  0.897352  0  0  0.304859  0.405044  0  0.922665  0
H  H15  1  0.29254834  0.50580127  0.10893411  1  0  0.442252  0  0.850051  0  0  0.412204  0  0.911984  0  0  0.422057  0  0.897323  0  0  0.304876  0.405068  0  0.922638  0
H  H16  1  0.18723230  0.55131551  0.84719811  1  0  0.431022  0  0.870723  0  0  0.400858  0  0.932421  0  0  0.410936  0  0.917485  0  0  0.301465  0.393673  0  0.943087  0
H  H17  1  0.81276878  0.44868145  0.15280227  1  0  0.431052  0  0.87069  0  0  0.400872  0  0.932419  0  0  0.41095  0  0.917483  0  0  0.301458  0.393685  0  0.943091  0
H  H18  1  0.30198252  0.67621965  0.99936853  1  0  0.459299  0  0.823475  0  0  0.431293  0  0.880332  0  0  0.441129  0  0.865811  0  0  0.31128  0.424337  0  0.890615  0
H  H19  1  0.69801513  0.32377502  0.00062980  1  0  0.459286  0  0.823492  0  0  0.43127  0  0.880359  0  0  0.441103  0  0.865844  0  0  0.311285  0.424315  0  0.890639  0
H  H20  1  0.23974716  0.49511105  0.50564556  1  0  0.438323  0  0.853641  0  0  0.41023  0  0.913198  0  0  0.420502  0  0.897945  0  0  0.303519  0.402826  0  0.924227  0
H  H21  1  0.76025480  0.50488819  0.49435488  1  0  0.438296  0  0.853671  0  0  0.410216  0  0.913217  0  0  0.42048  0  0.897971  0  0  0.303511  0.402812  0  0.924243  0
H  H22  1  0.15352326  0.49431898  0.63388133  1  0  0.424458  0  0.870198  0  0  0.400028  0  0.924321  0  0  0.409033  0  0.910964  0  0  0.304246  0.393701  0  0.933694  0
H  H23  1  0.84647826  0.50567912  0.36611954  1  0  0.424486  0  0.870122  0  0  0.400059  0  0.924279  0  0  0.40906  0  0.910922  0  0  0.304277  0.393731  0  0.933652  0
H  H24  1  0.95033989  0.93204964  0.85202598  1  0  0.435093  0  0.865017  0  0  0.406098  0  0.924659  0  0  0.416206  0  0.909795  0  0  0.30418  0.398876  0  0.935295  0
H  H25  1  0.04966122  0.06795074  0.14797584  1  0  0.435084  0  0.865021  0  0  0.406091  0  0.924661  0  0  0.416195  0  0.9098  0  0  0.304162  0.398873  0  0.93529  0
H  H26  1  0.83477817  0.01349417  0.95865984  1  0  0.434861  0  0.848997  0  0  0.407772  0  0.909429  0  0  0.417586  0  0.894742  0  0  0.312739  0.400796  0  0.91991  0
H  H27  1  0.16522378  0.98650507  0.04134341  1  0  0.434738  0  0.849182  0  0  0.407677  0  0.909546  0  0  0.417491  0  0.89486  0  0  0.31269  0.400703  0  0.920018  0
C  C28  1  0.42089387  0.29738007  0.54721279  1  0  0.723018  0  3.872745  0  0  0.676097  0  4.161529  0  0  0.711033  0  4.151231  0  0  0.238701  0.652419  0  4.167657  0
C  C29  1  0.57910812  0.70262600  0.45279993  1  0  0.722781  0  3.873247  0  0  0.675975  0  4.161814  0  0  0.710908  0  4.151521  0  0  0.238646  0.652296  0  4.167941  0
C  C30  1  0.34430213  0.14517216  0.54375032  1  0  -0.065521  0  3.706445  0  0  -0.037189  0  3.940328  0  0  -0.048406  0  3.963227  0  0  -0.007255  -0.030108  0  3.924999  0
C  C31  1  0.65569727  0.85482708  0.45624531  1  0  -0.06546  0  3.706524  0  0  -0.037096  0  3.940273  0  0  -0.048308  0  3.963165  0  0  -0.007229  -0.030016  0  3.924941  0
C  C32  1  0.26248010  0.01444793  0.41415886  1  0  -0.035926  0  3.659551  0  0  -0.076473  0  3.905563  0  0  -0.071136  0  3.922866  0  0  -0.063137  -0.079279  0  3.893771  0
C  C33  1  0.73751887  0.98555358  0.58584429  1  0  -0.03598  0  3.65943  0  0  -0.076555  0  3.905435  0  0  -0.071211  0  3.922722  0  0  -0.063159  -0.079357  0  3.893635  0
C  C34  1  0.19516288  0.87324139  0.41201908  1  0  -0.122539  0  3.73598  0  0  -0.092046  0  3.99146  0  0  -0.102765  0  4.015051  0  0  -0.015453  -0.085423  0  3.975934  0
C  C35  1  0.80483698  0.12676241  0.58797944  1  0  -0.122569  0  3.736054  0  0  -0.092037  0  3.991487  0  0  -0.102756  0  4.015077  0  0  -0.015473  -0.085412  0  3.975956  0
C  C36  1  0.20978445  0.85883743  0.53602329  1  0  -0.038114  0  3.687679  0  0  -0.081061  0  3.940423  0  0  -0.075684  0  3.957943  0  0  -0.069667  -0.084629  0  3.929464  0
C  C37  1  0.79021666  0.14116295  0.46397947  1  0  -0.038022  0  3.687636  0  0  -0.080987  0  3.940359  0  0  -0.075609  0  3.957877  0  0  -0.069628  -0.084555  0  3.929407  0
C  C38  1  0.29098600  0.99194955  0.66481845  1  0  -0.123557  0  3.714505  0  0  -0.093518  0  3.968626  0  0  -0.104103  0  3.990765  0  0  -0.011678  -0.08688  0  3.954072  0
C  C39  1  0.70901555  0.00805197  0.33518200  1  0  -0.123528  0  3.714426  0  0  -0.093462  0  3.968505  0  0  -0.104045  0  3.990643  0  0  -0.011667  -0.08683  0  3.953959  0
C  C40  1  0.35640816  0.13431487  0.67030770  1  0  -0.015837  0  3.659607  0  0  -0.062378  0  3.917005  0  0  -0.055288  0  3.931971  0  0  -0.061377  -0.066845  0  3.907464  0
C  C41  1  0.64359636  0.86568438  0.32969472  1  0  -0.015941  0  3.65981  0  0  -0.0625  0  3.91722  0  0  -0.055411  0  3.932182  0  0  -0.061427  -0.066971  0  3.907694  0
S  S42  1  0.32212350  0.97772752  0.82410841  1  0  1.392259  0  5.54835  0  0  1.289859  0  6.064811  0  0  1.33855  0  6.039631  0  0  0.563251  1.256424  0  6.080938  0
S  S43  1  0.67788352  0.02226150  0.17588414  1  0  1.392179  0  5.548462  0  0  1.289852  0  6.06484  0  0  1.338541  0  6.039657  0  0  0.56318  1.256433  0  6.08096  0
S  S44  1  0.09255638  0.71196214  0.24328384  1  0  1.330563  0  5.587936  0  0  1.218992  0  6.113784  0  0  1.26718  0  6.090844  0  0  0.534808  1.185894  0  6.128217  0
S  S45  1  0.90744048  0.28804050  0.75671595  1  0  1.330417  0  5.588066  0  0  1.21881  0  6.113938  0  0  1.266997  0  6.090999  0  0  0.534735  1.185714  0  6.128371  0
O  O46  1  0.49748435  0.41220569  0.66767834  1  0  -0.732602  0  2.032004  0  0  -0.684402  0  2.283382  0  0  -0.70882  0  2.271455  0  0  -0.399314  -0.666891  0  2.291213  0
O  O47  1  0.50250862  0.58779010  0.33231276  1  0  -0.732654  0  2.031814  0  0  -0.684478  0  2.283082  0  0  -0.708904  0  2.271164  0  0  -0.399338  -0.666965  0  2.290914  0
O  O48  1  0.40409253  0.30201192  0.43043866  1  0  -0.750198  0  2.086656  0  0  -0.701826  0  2.346314  0  0  -0.726032  0  2.333748  0  0  -0.40886  -0.684645  0  2.354446  0
O  O49  1  0.59590519  0.69798960  0.56955410  1  0  -0.749959  0  2.087279  0  0  -0.701606  0  2.346808  0  0  -0.725808  0  2.334242  0  0  -0.408743  -0.684428  0  2.35494  0
O  O50  1  0.38268024  0.13356865  0.94095049  1  0  -0.7207  0  2.051077  0  0  -0.667639  0  2.317359  0  0  -0.689188  0  2.302667  0  0  -0.357056  -0.652529  0  2.327221  0
O  O51  1  0.61732607  0.86644200  0.05905400  1  0  -0.720472  0  2.051585  0  0  -0.667441  0  2.317857  0  0  -0.688998  0  2.30318  0  0  -0.356877  -0.652307  0  2.327664  0
O  O52  1  0.45672874  0.90021492  0.81072277  1  0  -0.747074  0  2.078939  0  0  -0.701815  0  2.35959  0  0  -0.723535  0  2.344318  0  0  -0.388479  -0.686266  0  2.369798  0
O  O53  1  0.54326640  0.09978657  0.18927458  1  0  -0.747262  0  2.078555  0  0  -0.701999  0  2.359151  0  0  -0.723722  0  2.343882  0  0  -0.388578  -0.686447  0  2.369355  0
O  O54  1  0.14429143  0.88553378  0.83214581  1  0  -0.708705  0  2.012814  0  0  -0.638455  0  2.241771  0  0  -0.660516  0  2.224577  0  0  -0.318743  -0.622831  0  2.253338  0
O  O55  1  0.85571145  0.11447458  0.16785571  1  0  -0.708657  0  2.012807  0  0  -0.638489  0  2.241814  0  0  -0.66054  0  2.224611  0  0  -0.318731  -0.622889  0  2.253399  0
O  O56  1  0.95684069  0.75012709  0.17944208  1  0  -0.641542  0  1.969781  0  0  -0.586034  0  2.210911  0  0  -0.607992  0  2.197428  0  0  -0.319105  -0.570529  0  2.219758  0
O  O57  1  0.04316127  0.24987215  0.82055742  1  0  -0.641502  0  1.969679  0  0  -0.586002  0  2.210817  0  0  -0.607961  0  2.197336  0  0  -0.319103  -0.570496  0  2.219658  0
O  O58  1  0.01205022  0.58211423  0.27335047  1  0  -0.714247  0  2.04594  0  0  -0.639108  0  2.278794  0  0  -0.661594  0  2.262438  0  0  -0.326811  -0.623283  0  2.28969  0
O  O59  1  0.98794576  0.41788612  0.72665019  1  0  -0.714207  0  2.046076  0  0  -0.639076  0  2.27894  0  0  -0.661566  0  2.262589  0  0  -0.326806  -0.62326  0  2.289842  0
O  O60  1  0.23824677  0.68546842  0.16334179  1  0  -0.672421  0  2.007661  0  0  -0.608734  0  2.250086  0  0  -0.631418  0  2.235428  0  0  -0.317707  -0.592666  0  2.259745  0
O  O61  1  0.76175390  0.31453082  0.83665953  1  0  -0.672356  0  2.007716  0  0  -0.60863  0  2.250114  0  0  -0.631307  0  2.235452  0  0  -0.317662  -0.592564  0  2.25977  0
O  O62  1  0.84936943  0.61847109  0.69040163  1  0  -0.890846  0  1.896603  0  0  -0.842517  0  2.074033  0  0  -0.860534  0  2.043649  0  0  -0.602161  -0.829588  0  2.095401  0
O  O63  1  0.15062827  0.38153041  0.30959865  1  0  -0.890857  0  1.896594  0  0  -0.84252  0  2.074007  0  0  -0.860539  0  2.043631  0  0  -0.602171  -0.829586  0  2.095369  0
O  O64  1  0.70238309  0.59882994  0.93395609  1  0  -0.934125  0  1.850635  0  0  -0.89283  0  2.038603  0  0  -0.908749  0  2.005317  0  0  -0.654374  -0.881493  0  2.062287  0
O  O65  1  0.29761415  0.40116700  0.06604412  1  0  -0.934147  0  1.85059  0  0  -0.892849  0  2.03855  0  0  -0.908769  0  2.005265  0  0  -0.654413  -0.881506  0  2.062231  0
O  O66  1  0.30475123  0.63235732  0.89719556  1  0  -0.925461  0  1.851208  0  0  -0.884022  0  2.041549  0  0  -0.900269  0  2.008974  0  0  -0.660214  -0.87249  0  2.06457  0
O  O67  1  0.69525367  0.36763624  0.10280447  1  0  -0.925487  0  1.851212  0  0  -0.884039  0  2.041591  0  0  -0.900287  0  2.009016  0  0  -0.660212  -0.872498  0  2.064611  0
O  O68  1  0.24841224  0.55802981  0.60896691  1  0  -0.88614  0  1.848058  0  0  -0.847816  0  2.025817  0  0  -0.864507  0  1.996195  0  0  -0.619883  -0.835718  0  2.046988  0
O  O69  1  0.75158888  0.44197057  0.39103303  1  0  -0.886157  0  1.848008  0  0  -0.847868  0  2.02577  0  0  -0.864541  0  1.996175  0  0  -0.61992  -0.835764  0  2.046947  0
O  O70  1  0.82520626  0.92954807  0.86427395  1  0  -0.90223  0  1.881164  0  0  -0.860316  0  2.067708  0  0  -0.876659  0  2.035581  0  0  -0.631821  -0.848562  0  2.090486  0
O  O71  1  0.17479525  0.07045003  0.13573068  1  0  -0.902105  0  1.881352  0  0  -0.860205  0  2.067909  0  0  -0.876544  0  2.035779  0  0  -0.631758  -0.848447  0  2.090684  0
