# generated using pymatgen
data_HgH7C14O2F5
_symmetry_space_group_name_H-M   'P 1'
_cell_length_a   6.32279601
_cell_length_b   7.36459635
_cell_length_c   14.50486015
_cell_angle_alpha   84.62181982
_cell_angle_beta   81.72376512
_cell_angle_gamma   86.86819478
_symmetry_Int_Tables_number   1
_chemical_formula_structural   HgH7C14O2F5
_chemical_formula_sum   'Hg2 H14 C28 O4 F10'
_cell_volume   664.85960134
_cell_formula_units_Z   2
loop_
 _symmetry_equiv_pos_site_id
 _symmetry_equiv_pos_as_xyz
  1  'x, y, z'
loop_
 _atom_site_type_symbol
 _atom_site_label
 _atom_site_symmetry_multiplicity
 _atom_site_fract_x
 _atom_site_fract_y
 _atom_site_fract_z
 _atom_site_occupancy
 _atom_site_hle17_bader_spin_density
 _atom_site_hle17_ddec_charge
 _atom_site_hle17_ddec_spin_density
 _atom_site_hle17_ddec_sum_bond_order
 _atom_site_hle17_magmom
 _atom_site_hse06_10hf_bader_spin_density
 _atom_site_hse06_10hf_ddec_charge
 _atom_site_hse06_10hf_ddec_spin_density
 _atom_site_hse06_10hf_ddec_sum_bond_order
 _atom_site_hse06_10hf_magmom
 _atom_site_hse06_bader_spin_density
 _atom_site_hse06_ddec_charge
 _atom_site_hse06_ddec_spin_density
 _atom_site_hse06_ddec_sum_bond_order
 _atom_site_hse06_magmom
 _atom_site_pbe_bader_spin_density
 _atom_site_pbe_cm5_charge
 _atom_site_pbe_ddec_charge
 _atom_site_pbe_ddec_spin_density
 _atom_site_pbe_ddec_sum_bond_order
 _atom_site_pbe_magmom
Hg  Hg0  1  0.12874179  0.79041427  0.42241476  1  0  0.770968  0  1.745584  0  0  0.645881  0  2.154591  0  0  0.686472  0  2.125744  0  0  0.553193  0.617889  0  2.174412  0
Hg  Hg1  1  0.87129384  0.20958074  0.57759633  1  0  0.771063  0  1.745519  0  0  0.645974  0  2.154509  0  0  0.686564  0  2.125658  0  0  0.553208  0.617973  0  2.174322  0
H  H2  1  0.60822931  0.64375752  0.38674917  1  0  0.093669  0  0.945437  0  0  0.109173  0  0.999912  0  0  0.110948  0  0.999321  0  0  0.093142  0.107812  0  1.00045  0
H  H3  1  0.39182167  0.35627297  0.61324398  1  0  0.093667  0  0.945303  0  0  0.109158  0  0.999842  0  0  0.110943  0  0.999226  0  0  0.093169  0.107799  0  1.000388  0
H  H4  1  0.88228126  0.63186866  0.25023982  1  0  0.099815  0  0.981995  0  0  0.106338  0  1.052176  0  0  0.108981  0  1.051127  0  0  0.090571  0.104323  0  1.053167  0
H  H5  1  0.11773370  0.36814771  0.74974049  1  0  0.099893  0  0.981898  0  0  0.106348  0  1.052133  0  0  0.108989  0  1.051088  0  0  0.090569  0.104329  0  1.053113  0
H  H6  1  0.44558414  0.90387006  0.07482825  1  0  0.086071  0  0.954417  0  0  0.097527  0  1.015641  0  0  0.100492  0  1.013965  0  0  0.093358  0.095375  0  1.01696  0
H  H7  1  0.55436547  0.09611862  0.92517418  1  0  0.08608  0  0.954362  0  0  0.097591  0  1.015543  0  0  0.100558  0  1.013863  0  0  0.093373  0.095433  0  1.01687  0
H  H8  1  0.16664174  0.91644528  0.21139365  1  0  0.086768  0  0.971362  0  0  0.095005  0  1.039186  0  0  0.097373  0  1.037722  0  0  0.088062  0.093151  0  1.040497  0
H  H9  1  0.83334014  0.08353970  0.78861931  1  0  0.086926  0  0.97121  0  0  0.095116  0  1.039102  0  0  0.097488  0  1.037632  0  0  0.088071  0.093261  0  1.040415  0
H  H10  1  0.01587893  0.75528047  0.08700220  1  0  0.111086  0  0.951955  0  0  0.130935  0  1.016418  0  0  0.13252  0  1.015751  0  0  0.086758  0.129734  0  1.016982  0
H  H11  1  0.98408887  0.24477503  0.91297089  1  0  0.111071  0  0.951828  0  0  0.130911  0  1.016295  0  0  0.1325  0  1.015623  0  0  0.086727  0.129711  0  1.016861  0
H  H12  1  0.83726397  0.87704043  0.01663909  1  0  0.104858  0  0.953557  0  0  0.123665  0  1.020303  0  0  0.125041  0  1.019928  0  0  0.085021  0.122673  0  1.020543  0
H  H13  1  0.16264811  0.12295864  0.98334315  1  0  0.105072  0  0.953468  0  0  0.12379  0  1.020296  0  0  0.125165  0  1.019921  0  0  0.085164  0.1228  0  1.020531  0
H  H14  1  0.84049359  0.63607098  0.03190048  1  0  0.113807  0  0.943076  0  0  0.132422  0  1.008122  0  0  0.134464  0  1.006479  0  0  0.086596  0.130923  0  1.009297  0
H  H15  1  0.15949205  0.36392883  0.96808943  1  0  0.113782  0  0.943113  0  0  0.13243  0  1.008122  0  0  0.134463  0  1.006488  0  0  0.086629  0.130928  0  1.009303  0
C  C16  1  0.36627252  0.78165071  0.30937836  1  0  -0.216621  0  3.803531  0  0  -0.168798  0  4.080525  0  0  -0.186947  0  4.119439  0  0  -0.125434  -0.156883  0  4.054329  0
C  C17  1  0.63374349  0.21835089  0.69062676  1  0  -0.216685  0  3.803381  0  0  -0.168844  0  4.080339  0  0  -0.186997  0  4.119254  0  0  -0.125464  -0.156916  0  4.054118  0
C  C18  1  0.56906142  0.70201205  0.31903703  1  0  -0.082879  0  3.850916  0  0  -0.101845  0  4.094918  0  0  -0.102963  0  4.124887  0  0  -0.114763  -0.100845  0  4.074408  0
C  C19  1  0.43096658  0.29800184  0.68095705  1  0  -0.082632  0  3.850553  0  0  -0.101647  0  4.094535  0  0  -0.102762  0  4.12451  0  0  -0.11469  -0.100651  0  4.074013  0
C  C20  1  0.72630302  0.69575170  0.24093036  1  0  -0.137339  0  3.720782  0  0  -0.154407  0  3.966006  0  0  -0.159565  0  3.990332  0  0  -0.106005  -0.150964  0  3.949726  0
C  C21  1  0.27370280  0.30425782  0.75905640  1  0  -0.137572  0  3.720688  0  0  -0.154629  0  3.965897  0  0  -0.15979  0  3.990227  0  0  -0.106082  -0.151172  0  3.949598  0
C  C22  1  0.68574091  0.76804423  0.15191510  1  0  0.139968  0  3.758273  0  0  0.165436  0  3.993558  0  0  0.166522  0  4.018712  0  0  -0.018945  0.164637  0  3.976587  0
C  C23  1  0.31423666  0.23195687  0.84807458  1  0  0.140055  0  3.758509  0  0  0.165707  0  3.993518  0  0  0.166795  0  4.018663  0  0  -0.018808  0.164907  0  3.976544  0
C  C24  1  0.48160355  0.84653023  0.14335473  1  0  -0.130512  0  3.738733  0  0  -0.148978  0  3.984957  0  0  -0.15309  0  4.007002  0  0  -0.104126  -0.146233  0  3.970084  0
C  C25  1  0.51836667  0.15346136  0.85664623  1  0  -0.130515  0  3.738738  0  0  -0.149104  0  3.984946  0  0  -0.153214  0  4.006985  0  0  -0.104196  -0.146362  0  3.970078  0
C  C26  1  0.32301122  0.85353655  0.22077115  1  0  -0.09142  0  3.867936  0  0  -0.113631  0  4.121948  0  0  -0.114381  0  4.151174  0  0  -0.116463  -0.112898  0  4.102102  0
C  C27  1  0.67697366  0.14645113  0.77923596  1  0  -0.091643  0  3.868013  0  0  -0.113816  0  4.121974  0  0  -0.114568  0  4.151202  0  0  -0.116506  -0.113093  0  4.102145  0
C  C28  1  0.85399021  0.75929565  0.06776485  1  0  -0.342635  0  3.741927  0  0  -0.428803  0  3.989014  0  0  -0.430354  0  3.997275  0  0  -0.247528  -0.427384  0  3.983149  0
C  C29  1  0.14597060  0.24071754  0.93221908  1  0  -0.342884  0  3.741956  0  0  -0.429045  0  3.989076  0  0  -0.430605  0  3.997359  0  0  -0.247752  -0.427631  0  3.983222  0
C  C30  1  0.85936807  0.69312060  0.60036282  1  0  0.662446  0  3.901769  0  0  0.611636  0  4.203157  0  0  0.647856  0  4.193454  0  0  0.199453  0.58704  0  4.209084  0
C  C31  1  0.14066328  0.30686620  0.39965103  1  0  0.662249  0  3.902099  0  0  0.611436  0  4.203563  0  0  0.647658  0  4.193864  0  0  0.19934  0.586843  0  4.209487  0
C  C32  1  0.66565420  0.71487581  0.67309405  1  0  -0.233858  0  3.735423  0  0  -0.243736  0  4.010557  0  0  -0.254346  0  4.028851  0  0  -0.033872  -0.236867  0  3.998591  0
C  C33  1  0.33436374  0.28512035  0.32691191  1  0  -0.233634  0  3.735423  0  0  -0.243631  0  4.010529  0  0  -0.254246  0  4.028824  0  0  -0.033736  -0.236764  0  3.998571  0
C  C34  1  0.47157196  0.79709904  0.65096034  1  0  0.240547  0  3.762962  0  0  0.205029  0  4.064967  0  0  0.21682  0  4.0738  0  0  0.101546  0.196826  0  4.059407  0
C  C35  1  0.52845888  0.20292182  0.34904424  1  0  0.240467  0  3.763154  0  0  0.205075  0  4.065178  0  0  0.216876  0  4.074023  0  0  0.101492  0.196865  0  4.059614  0
C  C36  1  0.29705987  0.82614640  0.71888503  1  0  0.121358  0  3.788563  0  0  0.079243  0  4.102832  0  0  0.084301  0  4.111599  0  0  0.084237  0.075314  0  4.097517  0
C  C37  1  0.70295722  0.17386338  0.28111685  1  0  0.12168  0  3.788136  0  0  0.079369  0  4.10267  0  0  0.084382  0  4.111468  0  0  0.084454  0.075459  0  4.097332  0
C  C38  1  0.31035130  0.77064507  0.81217799  1  0  0.160548  0  3.821441  0  0  0.120127  0  4.134658  0  0  0.130436  0  4.141846  0  0  0.098839  0.113008  0  4.130286  0
C  C39  1  0.68964465  0.22934402  0.18782284  1  0  0.160496  0  3.821142  0  0  0.120101  0  4.134446  0  0  0.130464  0  4.141588  0  0  0.098733  0.112971  0  4.130077  0
C  C40  1  0.49870373  0.68548982  0.83667504  1  0  0.103703  0  3.816446  0  0  0.065559  0  4.129805  0  0  0.070693  0  4.137811  0  0  0.08335  0.061635  0  4.124839  0
C  C41  1  0.50127365  0.31446220  0.16332470  1  0  0.10391  0  3.815738  0  0  0.065765  0  4.129053  0  0  0.07088  0  4.137045  0  0  0.083386  0.061843  0  4.124095  0
C  C42  1  0.67240288  0.65878454  0.76787724  1  0  0.247568  0  3.753998  0  0  0.205131  0  4.063813  0  0  0.217519  0  4.072003  0  0  0.102642  0.19661  0  4.058496  0
C  C43  1  0.32758473  0.34118401  0.23212722  1  0  0.247144  0  3.753843  0  0  0.20486  0  4.063522  0  0  0.217249  0  4.071711  0  0  0.10256  0.196342  0  4.058212  0
O  O44  1  0.86700470  0.81998147  0.53069874  1  0  -0.581789  0  2.097062  0  0  -0.512395  0  2.375212  0  0  -0.541744  0  2.360683  0  0  -0.310826  -0.492025  0  2.384413  0
O  O45  1  0.13304142  0.17999861  0.46931312  1  0  -0.581886  0  2.096929  0  0  -0.512496  0  2.375111  0  0  -0.541842  0  2.360575  0  0  -0.310913  -0.492129  0  2.38432  0
O  O46  1  0.99579134  0.56730842  0.60910096  1  0  -0.592025  0  1.977046  0  0  -0.55437  0  2.222865  0  0  -0.577273  0  2.212066  0  0  -0.312914  -0.538281  0  2.229638  0
O  O47  1  0.00422937  0.43267019  0.39092293  1  0  -0.591754  0  1.977139  0  0  -0.554192  0  2.223157  0  0  -0.577094  0  2.212363  0  0  -0.312779  -0.538102  0  2.229928  0
F  F48  1  0.44428741  0.85049809  0.56182913  1  0  -0.158974  0  1.296688  0  0  -0.105819  0  1.473714  0  0  -0.11497  0  1.462494  0  0  -0.077573  -0.09921  0  1.481394  0
F  F49  1  0.55577579  0.14959689  0.43818000  1  0  -0.159241  0  1.296945  0  0  -0.105934  0  1.473803  0  0  -0.115085  0  1.462578  0  0  -0.07764  -0.099321  0  1.481484  0
F  F50  1  0.11492739  0.91032188  0.69520348  1  0  -0.154859  0  1.308146  0  0  -0.096047  0  1.484557  0  0  -0.10546  0  1.475918  0  0  -0.07307  -0.089263  0  1.490591  0
F  F51  1  0.88510580  0.08971261  0.30479612  1  0  -0.15485  0  1.307783  0  0  -0.096078  0  1.484376  0  0  -0.105481  0  1.475751  0  0  -0.073139  -0.089298  0  1.490398  0
F  F52  1  0.14364512  0.80087371  0.87841375  1  0  -0.135721  0  1.267031  0  0  -0.077633  0  1.425807  0  0  -0.086173  0  1.416523  0  0  -0.06243  -0.071469  0  1.432122  0
F  F53  1  0.85636358  0.19914283  0.12158902  1  0  -0.135692  0  1.266975  0  0  -0.077602  0  1.425758  0  0  -0.086154  0  1.416455  0  0  -0.062337  -0.071436  0  1.432076  0
F  F54  1  0.51313111  0.63510975  0.92739246  1  0  -0.128331  0  1.258149  0  0  -0.088403  0  1.431155  0  0  -0.096023  0  1.422027  0  0  -0.073911  -0.082875  0  1.437457  0
F  F55  1  0.48682802  0.36479972  0.07260438  1  0  -0.128421  0  1.257663  0  0  -0.088499  0  1.430665  0  0  -0.096115  0  1.421537  0  0  -0.07397  -0.082966  0  1.436966  0
F  F56  1  0.85228130  0.58244576  0.79746762  1  0  -0.156235  0  1.273761  0  0  -0.098214  0  1.438922  0  0  -0.107124  0  1.429437  0  0  -0.06889  -0.091729  0  1.445369  0
F  F57  1  0.14770257  0.41753238  0.20254211  1  0  -0.156125  0  1.27376  0  0  -0.098138  0  1.438861  0  0  -0.107048  0  1.429374  0  0  -0.068882  -0.091647  0  1.445307  0
