# generated using pymatgen
data_Ga3P4H13C9NO12F
_symmetry_space_group_name_H-M   'P 1'
_cell_length_a   8.34424302
_cell_length_b   11.76242671
_cell_length_c   11.75297900
_cell_angle_alpha   71.68210659
_cell_angle_beta   70.63595197
_cell_angle_gamma   77.17344477
_symmetry_Int_Tables_number   1
_chemical_formula_structural   Ga3P4H13C9NO12F
_chemical_formula_sum   'Ga6 P8 H26 C18 N2 O24 F2'
_cell_volume   1024.16281799
_cell_formula_units_Z   2
loop_
 _symmetry_equiv_pos_site_id
 _symmetry_equiv_pos_as_xyz
  1  'x, y, z'
loop_
 _atom_site_type_symbol
 _atom_site_label
 _atom_site_symmetry_multiplicity
 _atom_site_fract_x
 _atom_site_fract_y
 _atom_site_fract_z
 _atom_site_occupancy
 _atom_site_hle17_bader_spin_density
 _atom_site_hle17_ddec_charge
 _atom_site_hle17_ddec_spin_density
 _atom_site_hle17_ddec_sum_bond_order
 _atom_site_hle17_magmom
 _atom_site_hse06_10hf_bader_spin_density
 _atom_site_hse06_10hf_ddec_charge
 _atom_site_hse06_10hf_ddec_spin_density
 _atom_site_hse06_10hf_ddec_sum_bond_order
 _atom_site_hse06_10hf_magmom
 _atom_site_hse06_bader_spin_density
 _atom_site_hse06_ddec_charge
 _atom_site_hse06_ddec_spin_density
 _atom_site_hse06_ddec_sum_bond_order
 _atom_site_hse06_magmom
 _atom_site_pbe_bader_spin_density
 _atom_site_pbe_cm5_charge
 _atom_site_pbe_ddec_charge
 _atom_site_pbe_ddec_spin_density
 _atom_site_pbe_ddec_sum_bond_order
 _atom_site_pbe_magmom
Ga  Ga0  1  0.87385986  0.52959727  0.69526688  1  0  1.725814  0  2.267953  0  0  1.565884  0  2.719669  0  0  1.620436  0  2.658288  0  0  0.641758  1.527424  0  2.762161  0
Ga  Ga1  1  0.12614098  0.47040283  0.30473367  1  0  1.725831  0  2.267924  0  0  1.565906  0  2.719634  0  0  1.62046  0  2.658253  0  0  0.641772  1.527451  0  2.762127  0
Ga  Ga2  1  0.65687348  0.83907311  0.48919918  1  0  1.724145  0  2.331959  0  0  1.550009  0  2.800628  0  0  1.604231  0  2.738037  0  0  0.675497  1.512044  0  2.843768  0
Ga  Ga3  1  0.34312609  0.16092700  0.51080082  1  0  1.724193  0  2.331933  0  0  1.55006  0  2.8006  0  0  1.604282  0  2.738005  0  0  0.675527  1.512095  0  2.843735  0
Ga  Ga4  1  0.54547744  0.71440563  0.87932238  1  0  1.649761  0  2.304007  0  0  1.489984  0  2.734539  0  0  1.543653  0  2.682458  0  0  0.609767  1.452633  0  2.769791  0
Ga  Ga5  1  0.45452196  0.28559538  0.12067737  1  0  1.64976  0  2.303994  0  0  1.489983  0  2.734523  0  0  1.543654  0  2.682441  0  0  0.609777  1.452639  0  2.76977  0
P  P6  1  0.75749583  0.45686160  0.98905122  1  0  1.571842  0  4.744283  0  0  1.410797  0  5.25822  0  0  1.462645  0  5.215743  0  0  0.400336  1.374599  0  5.287161  0
P  P7  1  0.24250484  0.54313942  0.01094909  1  0  1.571855  0  4.744356  0  0  1.410804  0  5.258301  0  0  1.462651  0  5.215821  0  0  0.400333  1.3746  0  5.287246  0
P  P8  1  0.74940332  0.56466685  0.45809446  1  0  1.595367  0  4.734395  0  0  1.430626  0  5.254223  0  0  1.482155  0  5.212146  0  0  0.416052  1.394587  0  5.282809  0
P  P9  1  0.25059752  0.43533326  0.54190524  1  0  1.59531  0  4.734423  0  0  1.430582  0  5.254241  0  0  1.482114  0  5.212161  0  0  0.416063  1.394544  0  5.282824  0
P  P10  1  0.88062296  0.79600603  0.67447022  1  0  1.549905  0  4.778406  0  0  1.39101  0  5.287231  0  0  1.441361  0  5.24716  0  0  0.386941  1.35589  0  5.314576  0
P  P11  1  0.11937788  0.20399408  0.32552948  1  0  1.549854  0  4.778488  0  0  1.390959  0  5.287326  0  0  1.44131  0  5.247258  0  0  0.386916  1.355838  0  5.314673  0
P  P12  1  0.33459682  0.91079381  0.68974584  1  0  1.558095  0  4.738867  0  0  1.396397  0  5.248049  0  0  1.447153  0  5.208157  0  0  0.400964  1.36108  0  5.275196  0
P  P13  1  0.66540401  0.08920629  0.31025386  1  0  1.558103  0  4.738882  0  0  1.396404  0  5.248056  0  0  1.447161  0  5.208164  0  0  0.400979  1.361089  0  5.275197  0
H  H14  1  0.21154517  0.81254790  0.03576399  1  0  0.089376  0  0.932494  0  0  0.100012  0  0.990544  0  0  0.102564  0  0.987929  0  0  0.127665  0.098101  0  0.992463  0
H  H15  1  0.78845440  0.18745220  0.96423601  1  0  0.089368  0  0.9325  0  0  0.100002  0  0.990553  0  0  0.102555  0  0.987938  0  0  0.127661  0.09809  0  0.992472  0
H  H16  1  0.71906181  0.78424674  0.02317287  1  0  0.092252  0  0.932078  0  0  0.102861  0  0.990534  0  0  0.105237  0  0.988234  0  0  0.127067  0.101015  0  0.992359  0
H  H17  1  0.28093809  0.21575156  0.97682762  1  0  0.092277  0  0.932051  0  0  0.102867  0  0.990526  0  0  0.105244  0  0.988226  0  0  0.127077  0.101021  0  0.992351  0
H  H18  1  0.33364622  0.94847569  0.29515618  1  0  0.102489  0  0.933823  0  0  0.114116  0  0.99294  0  0  0.116561  0  0.990655  0  0  0.115132  0.112416  0  0.994317  0
H  H19  1  0.66635462  0.05152442  0.70484267  1  0  0.102483  0  0.933821  0  0  0.114103  0  0.99295  0  0  0.116548  0  0.990665  0  0  0.115127  0.112403  0  0.994327  0
H  H20  1  0.64163513  0.88271511  0.19968854  1  0  0.122335  0  0.962247  0  0  0.130027  0  1.020917  0  0  0.133579  0  1.019511  0  0  0.113278  0.127401  0  1.022189  0
H  H21  1  0.35836443  0.11728499  0.80030890  1  0  0.122381  0  0.962372  0  0  0.130073  0  1.021025  0  0  0.133626  0  1.019619  0  0  0.113306  0.127447  0  1.022298  0
H  H22  1  0.11045502  0.90948590  0.21345322  1  0  0.107925  0  0.9476  0  0  0.120641  0  1.001031  0  0  0.123288  0  1.001101  0  0  0.111601  0.11869  0  1.001235  0
H  H23  1  0.88954582  0.09051421  0.78654648  1  0  0.107951  0  0.947592  0  0  0.120667  0  1.001019  0  0  0.123314  0  1.001089  0  0  0.111608  0.118715  0  1.001224  0
H  H24  1  0.06227105  0.86330081  0.83266615  1  0  0.131657  0  0.918755  0  0  0.148375  0  0.969707  0  0  0.150539  0  0.969464  0  0  0.112377  0.146803  0  0.969962  0
H  H25  1  0.93772979  0.13669929  0.16733355  1  0  0.131662  0  0.918759  0  0  0.148377  0  0.96971  0  0  0.150542  0  0.969466  0  0  0.112375  0.146804  0  0.969966  0
H  H26  1  0.18185516  0.74541716  0.76391389  1  0  0.14936  0  0.936705  0  0  0.163534  0  0.990624  0  0  0.165569  0  0.990879  0  0  0.120248  0.161966  0  0.990678  0
H  H27  1  0.81814584  0.25458204  0.23608691  1  0  0.14937  0  0.936725  0  0  0.163542  0  0.990639  0  0  0.165578  0  0.990892  0  0  0.120254  0.161975  0  0.990692  0
H  H28  1  0.13184707  0.88274231  0.55252174  1  0  0.142983  0  0.917376  0  0  0.159411  0  0.966899  0  0  0.161489  0  0.967056  0  0  0.117096  0.157956  0  0.966769  0
H  H29  1  0.86815267  0.11725689  0.44747850  1  0  0.142978  0  0.917356  0  0  0.159414  0  0.966879  0  0  0.161492  0  0.967036  0  0  0.117102  0.157958  0  0.966748  0
H  H30  1  0.98433293  0.98045333  0.63698056  1  0  0.129823  0  0.933972  0  0  0.143598  0  0.991645  0  0  0.145304  0  0.992284  0  0  0.112138  0.142331  0  0.991343  0
H  H31  1  0.01566807  0.01954587  0.36301854  1  0  0.129803  0  0.933969  0  0  0.143583  0  0.991643  0  0  0.145291  0  0.992282  0  0  0.112135  0.142317  0  0.991341  0
H  H32  1  0.56479589  0.53809616  0.35523202  1  0  0.143992  0  0.90871  0  0  0.161264  0  0.954704  0  0  0.163339  0  0.955115  0  0  0.119541  0.159704  0  0.95463  0
H  H33  1  0.43520350  0.46190485  0.64476773  1  0  0.143969  0  0.908732  0  0  0.16125  0  0.954713  0  0  0.163325  0  0.955124  0  0  0.119533  0.159689  0  0.954636  0
H  H34  1  0.63596222  0.39953178  0.45105130  1  0  0.144562  0  0.912247  0  0  0.161629  0  0.959125  0  0  0.163522  0  0.959696  0  0  0.117458  0.160165  0  0.958969  0
H  H35  1  0.36403702  0.60047014  0.54894906  1  0  0.144625  0  0.912152  0  0  0.161649  0  0.959087  0  0  0.163539  0  0.959658  0  0  0.117464  0.160185  0  0.958933  0
H  H36  1  0.88950750  0.46267465  0.13718288  1  0  0.132838  0  0.926485  0  0  0.148853  0  0.979235  0  0  0.151154  0  0.979046  0  0  0.113355  0.147034  0  0.979802  0
H  H37  1  0.11049350  0.53732455  0.86281707  1  0  0.132825  0  0.926477  0  0  0.148836  0  0.979235  0  0  0.151135  0  0.979045  0  0  0.11336  0.147018  0  0.9798  0
H  H38  1  0.01350542  0.36096396  0.04756942  1  0  0.128675  0  0.936921  0  0  0.142714  0  0.995141  0  0  0.144985  0  0.994949  0  0  0.108202  0.141126  0  0.995325  0
H  H39  1  0.98649398  0.63903705  0.95243033  1  0  0.12865  0  0.936921  0  0  0.142691  0  0.995143  0  0  0.144958  0  0.994955  0  0  0.108202  0.141103  0  0.995329  0
C  C40  1  0.30112514  0.83098252  0.07513546  1  0  0.150754  0  3.68615  0  0  0.113373  0  3.938766  0  0  0.121586  0  3.956805  0  0  0.069387  0.108117  0  3.926463  0
C  C41  1  0.69887570  0.16901759  0.92486424  1  0  0.150814  0  3.686165  0  0  0.113425  0  3.938786  0  0  0.121638  0  3.956824  0  0  0.069416  0.108168  0  3.92648  0
C  C42  1  0.58677756  0.81449785  0.06868011  1  0  0.142859  0  3.668655  0  0  0.108825  0  3.916833  0  0  0.116387  0  3.935495  0  0  0.066491  0.103995  0  3.904302  0
C  C43  1  0.41322234  0.18550045  0.93132122  1  0  0.142841  0  3.668655  0  0  0.108819  0  3.916828  0  0  0.116381  0  3.935489  0  0  0.066481  0.103988  0  3.904294  0
C  C44  1  0.36998815  0.90452281  0.21962415  1  0  0.027926  0  3.674813  0  0  0.005951  0  3.925274  0  0  0.010927  0  3.943561  0  0  -0.05143  0.003137  0  3.912405  0
C  C45  1  0.63001235  0.09547910  0.78037421  1  0  0.02798  0  3.674797  0  0  0.006015  0  3.925248  0  0  0.010991  0  3.943535  0  0  -0.051408  0.003198  0  3.91238  0
C  C46  1  0.54274046  0.86853241  0.16613347  1  0  -0.114362  0  3.700136  0  0  -0.126577  0  3.951884  0  0  -0.134733  0  3.973768  0  0  -0.076846  -0.121446  0  3.937276  0
C  C47  1  0.45725817  0.13146590  0.83386732  1  0  -0.114436  0  3.700259  0  0  -0.126654  0  3.951999  0  0  -0.13481  0  3.973882  0  0  -0.076885  -0.121524  0  3.937391  0
C  C48  1  0.24713301  0.88465834  0.17382575  1  0  -0.132896  0  3.731674  0  0  -0.142199  0  3.979264  0  0  -0.151166  0  4.002296  0  0  -0.07899  -0.136471  0  3.963833  0
C  C49  1  0.75286783  0.11534176  0.82617395  1  0  -0.132966  0  3.731713  0  0  -0.142269  0  3.979303  0  0  -0.151236  0  4.002333  0  0  -0.07901  -0.136543  0  3.963873  0
C  C50  1  0.14095451  0.84322013  0.74389888  1  0  -0.395512  0  3.699144  0  0  -0.417208  0  3.950111  0  0  -0.425435  0  3.95911  0  0  -0.155472  -0.41128  0  3.943663  0
C  C51  1  0.85904632  0.15677998  0.25610167  1  0  -0.39557  0  3.699204  0  0  -0.417246  0  3.950159  0  0  -0.425472  0  3.959157  0  0  -0.155495  -0.411321  0  3.943715  0
C  C52  1  0.04424245  0.88630966  0.64508319  1  0  -0.386132  0  3.688065  0  0  -0.404787  0  3.935097  0  0  -0.414219  0  3.946317  0  0  -0.156902  -0.398293  0  3.927583  0
C  C53  1  0.95575855  0.11368954  0.35491761  1  0  -0.386082  0  3.688032  0  0  -0.404774  0  3.935108  0  0  -0.414213  0  3.946339  0  0  -0.156911  -0.398282  0  3.927595  0
C  C54  1  0.58424143  0.49460757  0.44818550  1  0  -0.38658  0  3.659482  0  0  -0.407781  0  3.912338  0  0  -0.416623  0  3.922143  0  0  -0.150335  -0.401514  0  3.905499  0
C  C55  1  0.41575653  0.50539435  0.55181431  1  0  -0.386611  0  3.659439  0  0  -0.407799  0  3.912313  0  0  -0.41664  0  3.922116  0  0  -0.150348  -0.40153  0  3.905471  0
C  C56  1  0.94156662  0.45205858  0.04136950  1  0  -0.390692  0  3.684467  0  0  -0.412198  0  3.937466  0  0  -0.420957  0  3.947228  0  0  -0.157951  -0.406084  0  3.930965  0
C  C57  1  0.05843422  0.54794153  0.95863106  1  0  -0.390542  0  3.684411  0  0  -0.412046  0  3.9374  0  0  -0.42079  0  3.947152  0  0  -0.1579  -0.405934  0  3.9309  0
N  N58  1  0.46781514  0.79694278  0.02380521  1  0  -0.331092  0  3.311362  0  0  -0.25057  0  3.562301  0  0  -0.27115  0  3.582839  0  0  -0.281316  -0.236866  0  3.548172  0
N  N59  1  0.53218570  0.20305732  0.97619449  1  0  -0.331114  0  3.311373  0  0  -0.250582  0  3.562299  0  0  -0.271161  0  3.582834  0  0  -0.281334  -0.236877  0  3.548164  0
O  O60  1  0.43941669  0.86725445  0.78208842  1  0  -0.86142  0  2.086205  0  0  -0.785961  0  2.372925  0  0  -0.813231  0  2.353623  0  0  -0.313263  -0.766865  0  2.385605  0
O  O61  1  0.56058288  0.13274566  0.21791158  1  0  -0.861424  0  2.086185  0  0  -0.785971  0  2.372913  0  0  -0.81324  0  2.35361  0  0  -0.313275  -0.766882  0  2.385593  0
O  O62  1  0.65051009  0.58059094  0.98989426  1  0  -0.887762  0  2.068584  0  0  -0.807705  0  2.349259  0  0  -0.834192  0  2.327209  0  0  -0.324948  -0.78906  0  2.363909  0
O  O63  1  0.34949075  0.41940916  0.01010544  1  0  -0.887775  0  2.068615  0  0  -0.807707  0  2.349279  0  0  -0.834198  0  2.327232  0  0  -0.324937  -0.789062  0  2.363929  0
O  O64  1  0.79263628  0.49369981  0.58171413  1  0  -0.87776  0  2.01307  0  0  -0.79044  0  2.292789  0  0  -0.817422  0  2.266867  0  0  -0.312718  -0.771538  0  2.310378  0
O  O65  1  0.20736329  0.50630030  0.41828587  1  0  -0.877731  0  2.013075  0  0  -0.790431  0  2.292816  0  0  -0.817416  0  2.266895  0  0  -0.312735  -0.771533  0  2.310408  0
O  O66  1  0.82261573  0.43287535  0.85740419  1  0  -0.871557  0  2.016545  0  0  -0.78455  0  2.301387  0  0  -0.811273  0  2.275087  0  0  -0.319124  -0.765789  0  2.319195  0
O  O67  1  0.17738383  0.56712476  0.14259666  1  0  -0.871597  0  2.016554  0  0  -0.784595  0  2.301403  0  0  -0.811316  0  2.275099  0  0  -0.31915  -0.765836  0  2.31922  0
O  O68  1  0.66683338  0.35020556  0.08197765  1  0  -0.873195  0  2.066189  0  0  -0.790625  0  2.351039  0  0  -0.818794  0  2.329576  0  0  -0.323991  -0.770815  0  2.365189  0
O  O69  1  0.33316618  0.64979455  0.91802320  1  0  -0.873189  0  2.0662  0  0  -0.790625  0  2.351068  0  0  -0.81879  0  2.329596  0  0  -0.32397  -0.770799  0  2.36521  0
O  O70  1  0.76214972  0.79075701  0.80644689  1  0  -0.860946  0  2.029561  0  0  -0.786738  0  2.308959  0  0  -0.813591  0  2.290522  0  0  -0.322584  -0.76789  0  2.321056  0
O  O71  1  0.23784985  0.20924310  0.19355310  1  0  -0.860895  0  2.029582  0  0  -0.786687  0  2.308982  0  0  -0.813542  0  2.290546  0  0  -0.322557  -0.767834  0  2.321064  0
O  O72  1  0.97495510  0.67124329  0.65433180  1  0  -0.879534  0  2.00883  0  0  -0.797712  0  2.28893  0  0  -0.824053  0  2.264517  0  0  -0.321157  -0.779217  0  2.305337  0
O  O73  1  0.02504446  0.32875682  0.34566819  1  0  -0.879523  0  2.008803  0  0  -0.797703  0  2.288906  0  0  -0.824043  0  2.264491  0  0  -0.321148  -0.779208  0  2.305313  0
O  O74  1  0.66666756  0.69659814  0.45653869  1  0  -0.893435  0  2.066457  0  0  -0.798532  0  2.366703  0  0  -0.826057  0  2.337745  0  0  -0.318208  -0.779056  0  2.385983  0
O  O75  1  0.33333201  0.30340197  0.54346131  1  0  -0.89343  0  2.066471  0  0  -0.798524  0  2.366711  0  0  -0.826053  0  2.337759  0  0  -0.318206  -0.779051  0  2.385994  0
O  O76  1  0.90356370  0.56543447  0.34278565  1  0  -0.866487  0  2.00468  0  0  -0.785951  0  2.283405  0  0  -0.813493  0  2.258986  0  0  -0.32436  -0.766533  0  2.299885  0
O  O77  1  0.09643603  0.43456474  0.65721459  1  0  -0.866479  0  2.004666  0  0  -0.785951  0  2.283402  0  0  -0.813492  0  2.258982  0  0  -0.324375  -0.766533  0  2.299881  0
O  O78  1  0.28209053  0.05046159  0.66637405  1  0  -0.86247  0  1.972741  0  0  -0.769303  0  2.248291  0  0  -0.796999  0  2.223397  0  0  -0.317319  -0.750049  0  2.2653  0
O  O79  1  0.71791047  0.94953761  0.33362675  1  0  -0.862469  0  1.972742  0  0  -0.769296  0  2.248289  0  0  -0.796991  0  2.223389  0  0  -0.317316  -0.750043  0  2.265297  0
O  O80  1  0.79454099  0.86560196  0.56855466  1  0  -0.894961  0  2.079206  0  0  -0.80692  0  2.383173  0  0  -0.833134  0  2.355056  0  0  -0.316449  -0.788652  0  2.402286  0
O  O81  1  0.20545874  0.13439725  0.43144559  1  0  -0.894968  0  2.079224  0  0  -0.806908  0  2.383158  0  0  -0.833117  0  2.355034  0  0  -0.31645  -0.788642  0  2.40227  0
O  O82  1  0.42734341  0.88003654  0.56186765  1  0  -0.89016  0  2.036712  0  0  -0.800018  0  2.325463  0  0  -0.827234  0  2.299564  0  0  -0.315107  -0.780881  0  2.342545  0
O  O83  1  0.57265616  0.11996356  0.43813235  1  0  -0.890145  0  2.036678  0  0  -0.800013  0  2.32545  0  0  -0.82723  0  2.29955  0  0  -0.315123  -0.780876  0  2.342528  0
F  F84  1  0.63979152  0.63908040  0.73573192  1  0  -0.657852  0  0.90972  0  0  -0.594165  0  1.107834  0  0  -0.613966  0  1.083815  0  0  -0.243905  -0.579962  0  1.124156  0
F  F85  1  0.36020804  0.36091971  0.26426893  1  0  -0.657868  0  0.909721  0  0  -0.594181  0  1.107835  0  0  -0.613984  0  1.083813  0  0  -0.243912  -0.579979  0  1.124155  0
