# generated using pymatgen
data_KH12C15NO5
_symmetry_space_group_name_H-M   'P 1'
_cell_length_a   7.02654603
_cell_length_b   13.19449661
_cell_length_c   14.95610776
_cell_angle_alpha   89.99961502
_cell_angle_beta   89.99960370
_cell_angle_gamma   90.00012294
_symmetry_Int_Tables_number   1
_chemical_formula_structural   KH12C15NO5
_chemical_formula_sum   'K4 H48 C60 N4 O20'
_cell_volume   1386.60674023
_cell_formula_units_Z   4
loop_
 _symmetry_equiv_pos_site_id
 _symmetry_equiv_pos_as_xyz
  1  'x, y, z'
loop_
 _atom_site_type_symbol
 _atom_site_label
 _atom_site_symmetry_multiplicity
 _atom_site_fract_x
 _atom_site_fract_y
 _atom_site_fract_z
 _atom_site_occupancy
 _atom_site_hle17_bader_spin_density
 _atom_site_hle17_ddec_charge
 _atom_site_hle17_ddec_spin_density
 _atom_site_hle17_ddec_sum_bond_order
 _atom_site_hle17_magmom
 _atom_site_hse06_10hf_bader_spin_density
 _atom_site_hse06_10hf_ddec_charge
 _atom_site_hse06_10hf_ddec_spin_density
 _atom_site_hse06_10hf_ddec_sum_bond_order
 _atom_site_hse06_10hf_magmom
 _atom_site_hse06_bader_spin_density
 _atom_site_hse06_ddec_charge
 _atom_site_hse06_ddec_spin_density
 _atom_site_hse06_ddec_sum_bond_order
 _atom_site_hse06_magmom
 _atom_site_pbe_bader_spin_density
 _atom_site_pbe_cm5_charge
 _atom_site_pbe_ddec_charge
 _atom_site_pbe_ddec_spin_density
 _atom_site_pbe_ddec_sum_bond_order
 _atom_site_pbe_magmom
K  K0  1  0.78796300  0.69720167  0.41921266  1  0  0.920556  0  0.498241  0  0  0.877336  0  0.681025  0  0  0.89278  0  0.656382  0  0  0.81537  0.865711  0  0.698733  0
K  K1  1  0.71203367  0.30279968  0.91921436  1  0  0.920559  0  0.498266  0  0  0.877324  0  0.681057  0  0  0.892768  0  0.656413  0  0  0.815368  0.865703  0  0.698765  0
K  K2  1  0.21203001  0.19719794  0.08078813  1  0  0.920561  0  0.498285  0  0  0.877324  0  0.681083  0  0  0.892753  0  0.656459  0  0  0.815373  0.865705  0  0.698787  0
K  K3  1  0.28796389  0.80279857  0.58078796  1  0  0.920551  0  0.498276  0  0  0.877325  0  0.681069  0  0  0.892773  0  0.656415  0  0  0.8154  0.865717  0  0.69877  0
H  H4  1  0.67111832  0.17760185  0.75920525  1  0  0.091138  0  0.969498  0  0  0.09926  0  1.035726  0  0  0.102266  0  1.033668  0  0  0.108437  0.097071  0  1.037153  0
H  H5  1  0.82889632  0.82239540  0.25920535  1  0  0.091129  0  0.969484  0  0  0.099332  0  1.035641  0  0  0.10234  0  1.03358  0  0  0.108469  0.097132  0  1.037077  0
H  H6  1  0.32888016  0.67760488  0.74079313  1  0  0.091169  0  0.969497  0  0  0.099307  0  1.035698  0  0  0.102313  0  1.033643  0  0  0.108469  0.097107  0  1.03714  0
H  H7  1  0.17110002  0.32238966  0.24079203  1  0  0.091166  0  0.969541  0  0  0.099316  0  1.035761  0  0  0.102329  0  1.03368  0  0  0.108483  0.097134  0  1.037184  0
H  H8  1  0.68702102  0.00535606  0.69129301  1  0  0.105535  0  0.93677  0  0  0.116371  0  0.993469  0  0  0.119937  0  0.991837  0  0  0.111407  0.113673  0  0.994985  0
H  H9  1  0.81298749  0.99464247  0.19129481  1  0  0.105571  0  0.936786  0  0  0.116407  0  0.993467  0  0  0.119987  0  0.991817  0  0  0.111413  0.113711  0  0.994981  0
H  H10  1  0.31297678  0.50535932  0.80870505  1  0  0.105527  0  0.936802  0  0  0.1164  0  0.993463  0  0  0.119937  0  0.991865  0  0  0.111419  0.113704  0  0.99498  0
H  H11  1  0.18699673  0.49463698  0.30870020  1  0  0.105569  0  0.936809  0  0  0.116411  0  0.993489  0  0  0.119975  0  0.991858  0  0  0.111394  0.113713  0  0.995006  0
H  H12  1  0.69882511  0.98614895  0.52637552  1  0  0.104124  0  0.961063  0  0  0.116096  0  1.020441  0  0  0.1195  0  1.017393  0  0  0.115688  0.113606  0  1.022698  0
H  H13  1  0.80117583  0.01385236  0.02637716  1  0  0.104053  0  0.96112  0  0  0.116045  0  1.020481  0  0  0.119449  0  1.017434  0  0  0.115691  0.113556  0  1.022743  0
H  H14  1  0.30117601  0.48614840  0.97362170  1  0  0.104067  0  0.96106  0  0  0.116056  0  1.020419  0  0  0.119459  0  1.01737  0  0  0.115688  0.113566  0  1.022674  0
H  H15  1  0.19880791  0.51384664  0.47361603  1  0  0.104114  0  0.960876  0  0  0.116092  0  1.020253  0  0  0.119496  0  1.017201  0  0  0.115686  0.113601  0  1.02251  0
H  H16  1  0.71284123  0.06246973  0.37650836  1  0  0.109838  0  0.954736  0  0  0.118549  0  1.020112  0  0  0.121984  0  1.017532  0  0  0.108073  0.115977  0  1.022094  0
H  H17  1  0.78715321  0.93753422  0.87651141  1  0  0.10987  0  0.954781  0  0  0.118572  0  1.020145  0  0  0.122007  0  1.017563  0  0  0.108095  0.116002  0  1.022131  0
H  H18  1  0.28716833  0.56246602  0.12348788  1  0  0.109882  0  0.954708  0  0  0.11857  0  1.020117  0  0  0.122005  0  1.017531  0  0  0.108081  0.116001  0  1.022097  0
H  H19  1  0.21282921  0.43752941  0.62348544  1  0  0.109862  0  0.954749  0  0  0.118558  0  1.020133  0  0  0.121999  0  1.01754  0  0  0.108105  0.115987  0  1.022117  0
H  H20  1  0.70641091  0.21547176  0.27925000  1  0  0.108068  0  0.943184  0  0  0.121389  0  0.996368  0  0  0.124386  0  0.995725  0  0  0.110819  0.119232  0  0.996961  0
H  H21  1  0.79358067  0.78453595  0.77924924  1  0  0.108038  0  0.943117  0  0  0.121402  0  0.996277  0  0  0.124398  0  0.995632  0  0  0.110866  0.119251  0  0.996855  0
H  H22  1  0.29360494  0.71546429  0.22074935  1  0  0.10802  0  0.943195  0  0  0.121284  0  0.996436  0  0  0.124283  0  0.995796  0  0  0.110785  0.119136  0  0.997006  0
H  H23  1  0.20640969  0.28453267  0.72074850  1  0  0.108037  0  0.943072  0  0  0.121358  0  0.996266  0  0  0.12436  0  0.995625  0  0  0.110828  0.119205  0  0.996848  0
H  H24  1  0.70401980  0.38909388  0.34969495  1  0  0.10429  0  0.94569  0  0  0.115902  0  1.005568  0  0  0.118876  0  1.003244  0  0  0.11423  0.113707  0  1.00732  0
H  H25  1  0.79598214  0.61091178  0.84969455  1  0  0.104112  0  0.945778  0  0  0.115833  0  1.005573  0  0  0.118806  0  1.003251  0  0  0.114191  0.113644  0  1.007314  0
H  H26  1  0.29599530  0.88908922  0.15030537  1  0  0.104147  0  0.945832  0  0  0.115879  0  1.005591  0  0  0.118853  0  1.003267  0  0  0.114216  0.113684  0  1.007338  0
H  H27  1  0.20401893  0.11090828  0.65030556  1  0  0.104335  0  0.945688  0  0  0.115988  0  1.005525  0  0  0.118961  0  1.003201  0  0  0.114266  0.113792  0  1.007278  0
H  H28  1  0.63223105  0.53396267  0.72237650  1  0  0.081476  0  0.928588  0  0  0.093291  0  0.9876  0  0  0.095527  0  0.985983  0  0  0.123867  0.091669  0  0.98887  0
H  H29  1  0.86776847  0.46603563  0.22237590  1  0  0.081493  0  0.92857  0  0  0.09329  0  0.987599  0  0  0.095522  0  0.985985  0  0  0.123871  0.091667  0  0.988861  0
H  H30  1  0.36776829  0.03396672  0.77762474  1  0  0.081417  0  0.928595  0  0  0.093237  0  0.987614  0  0  0.095469  0  0.985997  0  0  0.123835  0.091611  0  0.988876  0
H  H31  1  0.13223128  0.96603209  0.27762664  1  0  0.081436  0  0.928576  0  0  0.09327  0  0.987574  0  0  0.095506  0  0.985958  0  0  0.123827  0.09164  0  0.988837  0
H  H32  1  0.97822045  0.52280523  0.71077000  1  0  0.111859  0  0.941416  0  0  0.134505  0  1.00093  0  0  0.136097  0  1.000612  0  0  0.095571  0.133285  0  1.001255  0
H  H33  1  0.52178209  0.47720149  0.21076580  1  0  0.111928  0  0.941417  0  0  0.134558  0  1.000934  0  0  0.136148  0  1.000617  0  0  0.095582  0.133339  0  1.001257  0
H  H34  1  0.02178027  0.02279970  0.78923599  1  0  0.111848  0  0.941396  0  0  0.134476  0  1.00093  0  0  0.136067  0  1.000612  0  0  0.095533  0.133256  0  1.001254  0
H  H35  1  0.47821629  0.97719826  0.28923467  1  0  0.111857  0  0.941457  0  0  0.134502  0  1.000957  0  0  0.136097  0  1.000638  0  0  0.09554  0.13328  0  1.001284  0
H  H36  1  0.91068407  0.65157560  0.69625258  1  0  0.109947  0  0.963331  0  0  0.1338  0  1.02315  0  0  0.134602  0  1.023959  0  0  0.099126  0.133191  0  1.022595  0
H  H37  1  0.58930729  0.34842896  0.19624892  1  0  0.110048  0  0.963329  0  0  0.133882  0  1.02311  0  0  0.134685  0  1.023922  0  0  0.09921  0.133279  0  1.022548  0
H  H38  1  0.08930862  0.15157231  0.80375197  1  0  0.110051  0  0.963375  0  0  0.13387  0  1.023177  0  0  0.134672  0  1.02399  0  0  0.099194  0.133267  0  1.022613  0
H  H39  1  0.41069200  0.84842554  0.30375298  1  0  0.11003  0  0.963353  0  0  0.133835  0  1.023178  0  0  0.134638  0  1.02399  0  0  0.099172  0.133227  0  1.022618  0
H  H40  1  0.97676117  0.57831742  0.60194674  1  0  0.107553  0  0.95591  0  0  0.12739  0  1.022223  0  0  0.129493  0  1.020993  0  0  0.099408  0.125843  0  1.023127  0
H  H41  1  0.52324294  0.42169164  0.10194353  1  0  0.107516  0  0.955985  0  0  0.127338  0  1.022309  0  0  0.12944  0  1.021079  0  0  0.099379  0.125792  0  1.023218  0
H  H42  1  0.02324404  0.07831106  0.89805825  1  0  0.107532  0  0.95601  0  0  0.127372  0  1.022315  0  0  0.129476  0  1.021084  0  0  0.099365  0.125825  0  1.023226  0
H  H43  1  0.47675948  0.92168682  0.39805727  1  0  0.107515  0  0.95599  0  0  0.127355  0  1.022294  0  0  0.129459  0  1.021066  0  0  0.099366  0.125806  0  1.023205  0
H  H44  1  0.31496696  0.71146047  0.39197235  1  0  0.415099  0  0.899968  0  0  0.386181  0  0.962363  0  0  0.397076  0  0.946104  0  0  0.280412  0.378476  0  0.973851  0
H  H45  1  0.18502811  0.28853671  0.89197088  1  0  0.415087  0  0.899993  0  0  0.386186  0  0.962358  0  0  0.397076  0  0.946108  0  0  0.280428  0.378482  0  0.973841  0
H  H46  1  0.68502895  0.21146315  0.10802969  1  0  0.415085  0  0.900001  0  0  0.386172  0  0.962386  0  0  0.397064  0  0.946133  0  0  0.280412  0.378471  0  0.973868  0
H  H47  1  0.81497081  0.78853904  0.60803085  1  0  0.415078  0  0.899995  0  0  0.386171  0  0.962369  0  0  0.397064  0  0.946114  0  0  0.280407  0.37847  0  0.973849  0
H  H48  1  0.40585313  0.62593146  0.45023561  1  0  0.39713  0  0.907925  0  0  0.369841  0  0.972834  0  0  0.379162  0  0.95894  0  0  0.283472  0.363213  0  0.982716  0
H  H49  1  0.09414110  0.37406603  0.95023326  1  0  0.397104  0  0.907915  0  0  0.369837  0  0.972812  0  0  0.379159  0  0.958918  0  0  0.283487  0.363212  0  0.98269  0
H  H50  1  0.59414244  0.12593448  0.04976627  1  0  0.397109  0  0.907902  0  0  0.369841  0  0.972805  0  0  0.379164  0  0.95891  0  0  0.283492  0.363219  0  0.98268  0
H  H51  1  0.90585674  0.87406740  0.54976730  1  0  0.397103  0  0.907916  0  0  0.369833  0  0.972819  0  0  0.379155  0  0.958925  0  0  0.28348  0.363207  0  0.982698  0
C  C52  1  0.66949118  0.35751507  0.67346784  1  0  0.524006  0  3.795078  0  0  0.478192  0  4.080442  0  0  0.5087  0  4.080006  0  0  0.251001  0.457677  0  4.080191  0
C  C53  1  0.83051901  0.64248436  0.17346098  1  0  0.524233  0  3.794795  0  0  0.478391  0  4.080191  0  0  0.508902  0  4.079755  0  0  0.251136  0.457874  0  4.079934  0
C  C54  1  0.33051228  0.85751593  0.82653348  1  0  0.524108  0  3.794977  0  0  0.478301  0  4.080317  0  0  0.50881  0  4.079884  0  0  0.251073  0.457784  0  4.080066  0
C  C55  1  0.16948232  0.14248023  0.32653813  1  0  0.524397  0  3.794708  0  0  0.478517  0  4.080111  0  0  0.509028  0  4.079673  0  0  0.25114  0.457994  0  4.079858  0
C  C56  1  0.68096064  0.25583799  0.63319963  1  0  -0.120869  0  3.809331  0  0  -0.105467  0  4.048816  0  0  -0.117513  0  4.07513  0  0  -0.016875  -0.097848  0  4.031372  0
C  C57  1  0.81905725  0.74416250  0.13320089  1  0  -0.121057  0  3.809494  0  0  -0.105579  0  4.049025  0  0  -0.117634  0  4.075348  0  0  -0.016942  -0.097955  0  4.031574  0
C  C58  1  0.31904812  0.75583777  0.86679829  1  0  -0.120933  0  3.809372  0  0  -0.105469  0  4.048876  0  0  -0.11752  0  4.0752  0  0  -0.016921  -0.09784  0  4.031424  0
C  C59  1  0.18094021  0.24415732  0.36679896  1  0  -0.121104  0  3.809489  0  0  -0.105569  0  4.048996  0  0  -0.117624  0  4.075319  0  0  -0.01692  -0.097933  0  4.031535  0
C  C60  1  0.69064316  0.24547873  0.53905215  1  0  0.033282  0  3.786409  0  0  0.034222  0  4.009876  0  0  0.037625  0  4.035235  0  0  0.002187  0.032255  0  3.992908  0
C  C61  1  0.80937183  0.75452172  0.03905271  1  0  0.033461  0  3.786126  0  0  0.034221  0  4.009824  0  0  0.037621  0  4.035181  0  0  0.002257  0.03225  0  3.99286  0
C  C62  1  0.30936983  0.74547930  0.96094649  1  0  0.033351  0  3.786212  0  0  0.034129  0  4.009939  0  0  0.037527  0  4.035298  0  0  0.002272  0.03216  0  3.992974  0
C  C63  1  0.19062282  0.25451735  0.46094573  1  0  0.033423  0  3.786031  0  0  0.034136  0  4.009768  0  0  0.037543  0  4.035124  0  0  0.002267  0.032164  0  3.992802  0
C  C64  1  0.69727003  0.33188315  0.48301458  1  0  -0.114928  0  3.795657  0  0  -0.100898  0  4.037917  0  0  -0.112301  0  4.062303  0  0  -0.015641  -0.093687  0  4.021757  0
C  C65  1  0.80274563  0.66811771  0.98301181  1  0  -0.115095  0  3.79576  0  0  -0.100997  0  4.03819  0  0  -0.112384  0  4.062534  0  0  -0.015631  -0.093783  0  4.022035  0
C  C66  1  0.30274770  0.83188255  0.01698608  1  0  -0.114948  0  3.795625  0  0  -0.100882  0  4.038112  0  0  -0.112262  0  4.062464  0  0  -0.015661  -0.09368  0  4.021959  0
C  C67  1  0.19725139  0.16811445  0.51698796  1  0  -0.11502  0  3.795553  0  0  -0.100839  0  4.037857  0  0  -0.112232  0  4.062231  0  0  -0.015627  -0.093637  0  4.021704  0
C  C68  1  0.70767050  0.43343140  0.52289496  1  0  0.52746  0  3.793031  0  0  0.482316  0  4.073616  0  0  0.512792  0  4.073133  0  0  0.252609  0.461778  0  4.073449  0
C  C69  1  0.79234757  0.56657750  0.02289669  1  0  0.527725  0  3.792221  0  0  0.482404  0  4.07312  0  0  0.512887  0  4.072623  0  0  0.252597  0.461863  0  4.072961  0
C  C70  1  0.29234465  0.93342501  0.97710391  1  0  0.527641  0  3.792307  0  0  0.482298  0  4.073238  0  0  0.512762  0  4.07277  0  0  0.252551  0.461764  0  4.073074  0
C  C71  1  0.20765489  0.06656848  0.47710688  1  0  0.52771  0  3.792293  0  0  0.482398  0  4.073108  0  0  0.512854  0  4.072661  0  0  0.252533  0.461865  0  4.072943  0
C  C72  1  0.67912276  0.16966170  0.68686826  1  0  -0.031205  0  3.696595  0  0  -0.058734  0  3.948063  0  0  -0.054828  0  3.96709  0  0  -0.063393  -0.060872  0  3.93501  0
C  C73  1  0.82089435  0.83033762  0.18686900  1  0  -0.031096  0  3.696626  0  0  -0.05869  0  3.94806  0  0  -0.054783  0  3.967091  0  0  -0.06335  -0.060815  0  3.934998  0
C  C74  1  0.32087996  0.66966341  0.81312950  1  0  -0.031184  0  3.696576  0  0  -0.0587  0  3.948001  0  0  -0.054787  0  3.967012  0  0  -0.063346  -0.060827  0  3.934954  0
C  C75  1  0.17910202  0.33033057  0.31312832  1  0  -0.031072  0  3.696571  0  0  -0.058667  0  3.948036  0  0  -0.054751  0  3.967061  0  0  -0.063387  -0.060816  0  3.934976  0
C  C76  1  0.68648351  0.07236826  0.64865271  1  0  -0.07007  0  3.730237  0  0  -0.083412  0  3.989743  0  0  -0.089269  0  4.01072  0  0  -0.078845  -0.079623  0  3.975562  0
C  C77  1  0.81352705  0.92763212  0.14865357  1  0  -0.070142  0  3.730393  0  0  -0.083489  0  3.989938  0  0  -0.089358  0  4.010911  0  0  -0.078852  -0.079699  0  3.97575  0
C  C78  1  0.31351741  0.57236815  0.85134496  1  0  -0.070156  0  3.730481  0  0  -0.083561  0  3.990012  0  0  -0.089396  0  4.010987  0  0  -0.078924  -0.079772  0  3.975822  0
C  C79  1  0.18646117  0.42762858  0.35134251  1  0  -0.070353  0  3.730443  0  0  -0.083698  0  3.989993  0  0  -0.089557  0  4.010965  0  0  -0.078887  -0.07991  0  3.975818  0
C  C80  1  0.69297240  0.06102145  0.55675851  1  0  -0.049475  0  3.659371  0  0  -0.079319  0  3.912224  0  0  -0.076923  0  3.93015  0  0  -0.060237  -0.080552  0  3.89995  0
C  C81  1  0.80703379  0.93898038  0.05675999  1  0  -0.049297  0  3.659398  0  0  -0.079171  0  3.912221  0  0  -0.076771  0  3.930147  0  0  -0.060233  -0.080408  0  3.899955  0
C  C82  1  0.30703132  0.56101989  0.94323789  1  0  -0.04932  0  3.659375  0  0  -0.079167  0  3.912227  0  0  -0.076772  0  3.930156  0  0  -0.060217  -0.080391  0  3.899932  0
C  C83  1  0.19295447  0.43897463  0.44323603  1  0  -0.049186  0  3.659138  0  0  -0.079019  0  3.911966  0  0  -0.07663  0  3.929915  0  0  -0.060182  -0.080245  0  3.899678  0
C  C84  1  0.69503374  0.14676272  0.49986109  1  0  0.044724  0  3.776915  0  0  0.062643  0  4.012937  0  0  0.059261  0  4.037133  0  0  -0.004787  0.064566  0  3.996692  0
C  C85  1  0.80497172  0.85324104  0.99986257  1  0  0.044614  0  3.776895  0  0  0.062618  0  4.012914  0  0  0.059234  0  4.037111  0  0  -0.0048  0.064546  0  3.996671  0
C  C86  1  0.30497615  0.64675998  0.00013665  1  0  0.044658  0  3.776939  0  0  0.062618  0  4.013018  0  0  0.059234  0  4.037217  0  0  -0.004787  0.064545  0  3.996774  0
C  C87  1  0.19501607  0.35323715  0.50013410  1  0  0.044623  0  3.776851  0  0  0.062576  0  4.01296  0  0  0.059191  0  4.037157  0  0  -0.004788  0.064503  0  3.996716  0
C  C88  1  0.70229117  0.13814813  0.40531044  1  0  -0.064197  0  3.656397  0  0  -0.096966  0  3.920517  0  0  -0.095209  0  3.938339  0  0  -0.071671  -0.097764  0  3.908494  0
C  C89  1  0.79770427  0.86185559  0.90531189  1  0  -0.06431  0  3.656359  0  0  -0.097053  0  3.920458  0  0  -0.095289  0  3.938271  0  0  -0.071741  -0.097857  0  3.908444  0
C  C90  1  0.29771725  0.63814542  0.09468736  1  0  -0.064326  0  3.6564  0  0  -0.097075  0  3.920518  0  0  -0.09531  0  3.93834  0  0  -0.071742  -0.097882  0  3.908502  0
C  C91  1  0.20228213  0.36185175  0.59468607  1  0  -0.064241  0  3.656264  0  0  -0.096974  0  3.920392  0  0  -0.095214  0  3.938208  0  0  -0.071746  -0.097781  0  3.908378  0
C  C92  1  0.70167550  0.22366960  0.35177486  1  0  -0.081098  0  3.739542  0  0  -0.094938  0  4.000875  0  0  -0.100922  0  4.022532  0  0  -0.086205  -0.091115  0  3.986244  0
C  C93  1  0.79832215  0.77633453  0.85177615  1  0  -0.08103  0  3.739217  0  0  -0.094931  0  4.000597  0  0  -0.100912  0  4.022247  0  0  -0.086247  -0.091106  0  3.985972  0
C  C94  1  0.29834038  0.72366572  0.14822376  1  0  -0.080915  0  3.739449  0  0  -0.094686  0  4.000747  0  0  -0.100675  0  4.02241  0  0  -0.086118  -0.09086  0  3.986115  0
C  C95  1  0.20166819  0.27632953  0.64822231  1  0  -0.080982  0  3.739277  0  0  -0.09482  0  4.000586  0  0  -0.100812  0  4.022252  0  0  -0.086165  -0.090992  0  3.985957  0
C  C96  1  0.70046855  0.32086149  0.39066772  1  0  -0.02185  0  3.682621  0  0  -0.052668  0  3.938753  0  0  -0.047854  0  3.956851  0  0  -0.06271  -0.055462  0  3.926397  0
C  C97  1  0.79953564  0.67914311  0.89066824  1  0  -0.021627  0  3.682684  0  0  -0.052527  0  3.938845  0  0  -0.047714  0  3.956935  0  0  -0.062643  -0.055327  0  3.92649  0
C  C98  1  0.29954771  0.82085715  0.10933167  1  0  -0.021807  0  3.68281  0  0  -0.052702  0  3.938933  0  0  -0.047892  0  3.957028  0  0  -0.062695  -0.055494  0  3.926574  0
C  C99  1  0.20046000  0.17913839  0.60933281  1  0  -0.021968  0  3.682848  0  0  -0.052833  0  3.938962  0  0  -0.048019  0  3.957062  0  0  -0.062765  -0.055626  0  3.926605  0
C  C100  1  0.69624593  0.54300536  0.65572667  1  0  0.050293  0  3.59116  0  0  0.034569  0  3.827796  0  0  0.035974  0  3.838974  0  0  0.010712  0.033505  0  3.820301  0
C  C101  1  0.80375456  0.45699495  0.15572500  1  0  0.050172  0  3.591267  0  0  0.034483  0  3.82788  0  0  0.035893  0  3.839055  0  0  0.010704  0.033452  0  3.820332  0
C  C102  1  0.30375345  0.04300580  0.84427451  1  0  0.050367  0  3.591088  0  0  0.034646  0  3.827716  0  0  0.036056  0  3.838895  0  0  0.010742  0.033618  0  3.820165  0
C  C103  1  0.19624374  0.95699249  0.34427759  1  0  0.05031  0  3.591169  0  0  0.034589  0  3.827804  0  0  0.035999  0  3.838977  0  0  0.010752  0.033562  0  3.820254  0
C  C104  1  0.90306873  0.57581609  0.66654522  1  0  -0.325005  0  3.684166  0  0  -0.415354  0  3.931584  0  0  -0.417325  0  3.940033  0  0  -0.239631  -0.413636  0  3.925713  0
C  C105  1  0.59693160  0.42418945  0.16654176  1  0  -0.325093  0  3.684362  0  0  -0.41538  0  3.931821  0  0  -0.41734  0  3.940246  0  0  -0.239684  -0.413675  0  3.925944  0
C  C106  1  0.09692936  0.07581258  0.83345911  1  0  -0.325064  0  3.684319  0  0  -0.415378  0  3.931802  0  0  -0.417338  0  3.940226  0  0  -0.239608  -0.41367  0  3.925922  0
C  C107  1  0.40307226  0.92418580  0.33345902  1  0  -0.325013  0  3.684278  0  0  -0.415329  0  3.93176  0  0  -0.417292  0  3.940177  0  0  -0.239601  -0.413623  0  3.925884  0
C  C108  1  0.56700656  0.61900989  0.60549568  1  0  0.631212  0  3.949158  0  0  0.579862  0  4.263582  0  0  0.612639  0  4.255103  0  0  0.174371  0.557597  0  4.26862  0
C  C109  1  0.93299608  0.38098853  0.10549537  1  0  0.63144  0  3.94896  0  0  0.580064  0  4.263427  0  0  0.612841  0  4.254944  0  0  0.174378  0.557791  0  4.268464  0
C  C110  1  0.43299454  0.11901086  0.89450640  1  0  0.631224  0  3.949063  0  0  0.579853  0  4.263538  0  0  0.612627  0  4.255059  0  0  0.174323  0.55758  0  4.268569  0
C  C111  1  0.06700477  0.88098630  0.39450834  1  0  0.631411  0  3.94902  0  0  0.580028  0  4.263515  0  0  0.612801  0  4.255036  0  0  0.174384  0.557756  0  4.268545  0
N  N112  1  0.68554375  0.44089172  0.61555745  1  0  -0.28593  0  3.332605  0  0  -0.205872  0  3.556579  0  0  -0.231145  0  3.573877  0  0  -0.235018  -0.188724  0  3.544376  0
N  N113  1  0.81446870  0.55910814  0.11555648  1  0  -0.285955  0  3.332759  0  0  -0.205859  0  3.556842  0  0  -0.231135  0  3.574138  0  0  -0.235027  -0.188724  0  3.544638  0
N  N114  1  0.31446431  0.94089213  0.88444271  1  0  -0.285963  0  3.332558  0  0  -0.20585  0  3.55662  0  0  -0.231123  0  3.573926  0  0  -0.235019  -0.188714  0  3.544416  0
N  N115  1  0.18553372  0.05910662  0.38444446  1  0  -0.286175  0  3.332715  0  0  -0.206064  0  3.556803  0  0  -0.231335  0  3.574106  0  0  -0.235093  -0.188927  0  3.544596  0
O  O116  1  0.64877490  0.37168050  0.75477843  1  0  -0.554569  0  1.948015  0  0  -0.513108  0  2.171291  0  0  -0.533178  0  2.163933  0  0  -0.353497  -0.499217  0  2.175997  0
O  O117  1  0.85122985  0.62831679  0.25478227  1  0  -0.554841  0  1.947511  0  0  -0.513366  0  2.170809  0  0  -0.533443  0  2.163452  0  0  -0.353683  -0.499469  0  2.175508  0
O  O118  1  0.35122150  0.87168428  0.74521746  1  0  -0.554681  0  1.947781  0  0  -0.513216  0  2.171053  0  0  -0.53329  0  2.163697  0  0  -0.353587  -0.499323  0  2.175755  0
O  O119  1  0.14877285  0.12831174  0.24521759  1  0  -0.554863  0  1.947444  0  0  -0.51338  0  2.170751  0  0  -0.533456  0  2.163396  0  0  -0.353669  -0.499488  0  2.175458  0
O  O120  1  0.73677205  0.51082143  0.47802672  1  0  -0.554571  0  1.982106  0  0  -0.508537  0  2.208854  0  0  -0.530563  0  2.20416  0  0  -0.351269  -0.493262  0  2.211709  0
O  O121  1  0.76324369  0.48917491  0.97802247  1  0  -0.554702  0  1.981453  0  0  -0.508573  0  2.208257  0  0  -0.53061  0  2.203564  0  0  -0.351272  -0.493295  0  2.211112  0
O  O122  1  0.26324157  0.01082428  0.02197651  1  0  -0.554659  0  1.981526  0  0  -0.508518  0  2.208348  0  0  -0.530547  0  2.203664  0  0  -0.351239  -0.493238  0  2.2112  0
O  O123  1  0.23676029  0.98917496  0.52197874  1  0  -0.554631  0  1.98168  0  0  -0.508526  0  2.208511  0  0  -0.53055  0  2.20383  0  0  -0.35121  -0.493252  0  2.211367  0
O  O124  1  0.63055867  0.70850562  0.59343736  1  0  -0.742374  0  2.043147  0  0  -0.684278  0  2.279122  0  0  -0.709548  0  2.267501  0  0  -0.452195  -0.666469  0  2.286614  0
O  O125  1  0.86943987  0.29149290  0.09343913  1  0  -0.742498  0  2.043094  0  0  -0.684389  0  2.279076  0  0  -0.709658  0  2.267455  0  0  -0.452195  -0.66658  0  2.286575  0
O  O126  1  0.36943709  0.20850491  0.90656619  1  0  -0.742407  0  2.043181  0  0  -0.684297  0  2.279158  0  0  -0.709564  0  2.267538  0  0  -0.452164  -0.666487  0  2.286648  0
O  O127  1  0.13055920  0.79149140  0.40656779  1  0  -0.74245  0  2.043122  0  0  -0.684336  0  2.279118  0  0  -0.709606  0  2.267495  0  0  -0.452199  -0.666533  0  2.28662  0
O  O128  1  0.40120116  0.59031382  0.58394631  1  0  -0.680132  0  1.939748  0  0  -0.638337  0  2.176754  0  0  -0.661861  0  2.16745  0  0  -0.376246  -0.621768  0  2.182553  0
O  O129  1  0.09880265  0.40968115  0.08394493  1  0  -0.680207  0  1.93973  0  0  -0.638398  0  2.176723  0  0  -0.661927  0  2.167429  0  0  -0.376243  -0.621827  0  2.18252  0
O  O130  1  0.59880268  0.09031785  0.91605459  1  0  -0.680148  0  1.939761  0  0  -0.63834  0  2.176754  0  0  -0.661872  0  2.167466  0  0  -0.376236  -0.621772  0  2.182555  0
O  O131  1  0.90119546  0.90968124  0.41605594  1  0  -0.680217  0  1.939746  0  0  -0.638416  0  2.176764  0  0  -0.661951  0  2.167481  0  0  -0.37627  -0.621849  0  2.182561  0
O  O132  1  0.41718493  0.65943581  0.39184931  1  0  -0.881295  0  1.748369  0  0  -0.843816  0  1.902515  0  0  -0.860229  0  1.87272  0  0  -0.68853  -0.832049  0  1.923373  0
O  O133  1  0.08280872  0.34056137  0.89184787  1  0  -0.881238  0  1.748436  0  0  -0.843788  0  1.902603  0  0  -0.860197  0  1.872809  0  0  -0.688573  -0.832026  0  1.923463  0
O  O134  1  0.58280935  0.15943761  0.10815237  1  0  -0.881252  0  1.74841  0  0  -0.843797  0  1.902588  0  0  -0.860205  0  1.872791  0  0  -0.688559  -0.832028  0  1.923436  0
O  O135  1  0.91718756  0.84056307  0.60815356  1  0  -0.881236  0  1.748447  0  0  -0.843783  0  1.902633  0  0  -0.860191  0  1.872831  0  0  -0.688538  -0.832018  0  1.923481  0
