# generated using pymatgen
data_CuH14C12N2O3
_symmetry_space_group_name_H-M   'P 1'
_cell_length_a   5.26235358
_cell_length_b   9.08398058
_cell_length_c   26.32028651
_cell_angle_alpha   90.00069140
_cell_angle_beta   90.00082793
_cell_angle_gamma   89.99872523
_symmetry_Int_Tables_number   1
_chemical_formula_structural   CuH14C12N2O3
_chemical_formula_sum   'Cu4 H56 C48 N8 O12'
_cell_volume   1258.19175291
_cell_formula_units_Z   4
loop_
 _symmetry_equiv_pos_site_id
 _symmetry_equiv_pos_as_xyz
  1  'x, y, z'
loop_
 _atom_site_type_symbol
 _atom_site_label
 _atom_site_symmetry_multiplicity
 _atom_site_fract_x
 _atom_site_fract_y
 _atom_site_fract_z
 _atom_site_occupancy
 _atom_site_pbe_bader_charge
 _atom_site_pbe_bader_spin_density
 _atom_site_pbe_cm5_charge
 _atom_site_pbe_ddec_charge
 _atom_site_pbe_ddec_spin_density
 _atom_site_pbe_ddec_sum_bond_order
 _atom_site_pbe_magmom
Cu  Cu0  1  0.07107886  0.79948839  0.79100639  1  1.015125  0.538968  0.735898  0.770254  0.716548  2.287687  0.539
Cu  Cu1  1  0.42892387  0.20051939  0.29100399  1  1.014999  -0.538967  0.735878  0.770212  -0.716544  2.287783  -0.539
Cu  Cu2  1  0.92887350  0.29948495  0.70899282  1  1.014854  -0.538971  0.735984  0.770207  -0.716575  2.287868  -0.539
Cu  Cu3  1  0.57110987  0.70052139  0.20898786  1  1.014828  0.538974  0.735947  0.770196  0.716566  2.287949  0.539
H  H4  1  0.12309449  0.05858447  0.82763834  1  0.451082  0.00065  0.295212  0.285945  0.001061  0.980555  0.0
H  H5  1  0.37691825  0.94141694  0.32763340  1  0.450937  -0.000651  0.295237  0.285994  -0.001061  0.980463  0.0
H  H6  1  0.87681814  0.55859128  0.67237208  1  0.451601  -0.000653  0.295276  0.286008  -0.001061  0.980408  0.0
H  H7  1  0.62311532  0.44141703  0.17237423  1  0.450852  0.000649  0.295155  0.285933  0.001059  0.980516  0.0
H  H8  1  0.01098207  0.93007608  0.86778954  1  0.452726  -0.000124  0.296531  0.291313  0.000611  0.957642  -0.001
H  H9  1  0.48902570  0.06992789  0.36778794  1  0.452729  0.000124  0.296527  0.291347  -0.000611  0.95764  0.001
H  H10  1  0.98894224  0.43009223  0.63221400  1  0.4527  0.000124  0.29656  0.291382  -0.000611  0.957412  0.001
H  H11  1  0.51101329  0.56990802  0.13221289  1  0.452448  -0.000124  0.296558  0.291352  0.00061  0.957468  -0.001
H  H12  1  0.53155001  0.02261352  0.84824317  1  0.068273  0.000492  0.113269  0.073206  0.000183  0.940967  0.0
H  H13  1  0.96845390  0.97738249  0.34823335  1  0.068202  -0.000491  0.113306  0.073251  -0.000183  0.940867  0.0
H  H14  1  0.46836216  0.52262681  0.65175798  1  0.067681  -0.000492  0.113409  0.073317  -0.000184  0.940515  0.0
H  H15  1  0.03157632  0.47736379  0.15176493  1  0.067856  0.000492  0.113256  0.073136  0.000183  0.940772  0.0
H  H16  1  0.60285556  0.59576999  0.76503484  1  0.103268  0.000873  0.116031  0.09354  0.000399  0.972825  0.001
H  H17  1  0.89713908  0.40423620  0.26503961  1  0.103492  -0.000873  0.116073  0.093549  -0.000399  0.972896  -0.001
H  H18  1  0.39711068  0.09576853  0.73496052  1  0.103458  -0.000873  0.116019  0.093664  -0.000399  0.972842  -0.001
H  H19  1  0.10288268  0.90422179  0.23496445  1  0.103299  0.000874  0.116037  0.093559  0.0004  0.972787  0.001
H  H20  1  0.35281653  0.05664202  0.93437918  1  0.055526  0.000102  0.086946  0.121789  0.000102  1.039958  0.0
H  H21  1  0.14716710  0.94334677  0.43437162  1  0.055681  -0.000102  0.086941  0.12181  -0.000102  1.039935  0.0
H  H22  1  0.64715508  0.55665327  0.56562553  1  0.056083  -0.000102  0.086933  0.121848  -0.000102  1.039769  0.0
H  H23  1  0.85284358  0.44331482  0.06562879  1  0.055504  0.000102  0.086956  0.121861  0.000102  1.039896  0.0
H  H24  1  0.59845361  0.92013425  0.93661378  1  0.054042  0.002059  0.091474  0.127036  0.001035  1.024751  0.001
H  H25  1  0.90153329  0.07985397  0.43660473  1  0.053599  -0.002061  0.09142  0.127038  -0.001035  1.024723  -0.001
H  H26  1  0.40151101  0.42014630  0.56338250  1  0.053746  -0.00206  0.091397  0.126942  -0.001036  1.024673  -0.001
H  H27  1  0.09847869  0.57981905  0.06339120  1  0.053924  0.002061  0.091398  0.126976  0.001035  1.024746  0.001
H  H28  1  0.27497782  0.86517137  0.93801170  1  0.053044  7e-06  0.095859  0.138323  -6.2e-05  0.977715  0.0
H  H29  1  0.22500985  0.13480984  0.43801067  1  0.053047  -7e-06  0.09586  0.138344  6.2e-05  0.97773  0.0
H  H30  1  0.72499850  0.36518050  0.56199385  1  0.053384  -6e-06  0.095929  0.138337  6.2e-05  0.977756  0.0
H  H31  1  0.77499612  0.63478526  0.06199080  1  0.052969  6e-06  0.09584  0.138276  -6.2e-05  0.977786  0.0
H  H32  1  0.57679546  0.35319990  0.80486443  1  0.057778  0.001527  0.092162  0.092242  0.000857  1.018625  0.001
H  H33  1  0.92323600  0.64680223  0.30487329  1  0.058027  -0.001526  0.092201  0.092279  -0.000856  1.018562  -0.001
H  H34  1  0.42314904  0.85320872  0.69512398  1  0.058167  -0.001526  0.092186  0.092303  -0.000856  1.018513  -0.001
H  H35  1  0.07687400  0.14678125  0.19513393  1  0.058091  0.001527  0.092196  0.092286  0.000857  1.018611  0.001
H  H36  1  0.73689912  0.48831216  0.84176995  1  0.075153  7.9e-05  0.096543  0.107914  3.7e-05  1.02105  0.0
H  H37  1  0.76312906  0.51169902  0.34177624  1  0.074736  -8e-05  0.096494  0.107878  -3.7e-05  1.021007  0.0
H  H38  1  0.26307035  0.98833482  0.65821748  1  0.074812  -7.9e-05  0.096447  0.107691  -3.7e-05  1.021237  0.0
H  H39  1  0.23693126  0.01166151  0.15822664  1  0.075004  7.9e-05  0.096533  0.107774  3.7e-05  1.021251  0.0
H  H40  1  0.60686945  0.54932187  0.92480771  1  0.091069  -2.8e-05  0.10103  0.111116  -3.2e-05  1.006041  0.0
H  H41  1  0.89312618  0.45069894  0.42481265  1  0.091145  2.8e-05  0.101007  0.111078  3.2e-05  1.006137  0.0
H  H42  1  0.39313286  0.04933006  0.57518329  1  0.090948  2.8e-05  0.10107  0.11125  3.2e-05  1.006005  0.0
H  H43  1  0.10692412  0.95070178  0.07518780  1  0.091147  -2.8e-05  0.101105  0.11128  -3.2e-05  1.005983  0.0
H  H44  1  0.34066469  0.49228980  0.00030927  1  0.02564  5.7e-05  0.094577  0.086652  2.4e-05  1.024428  0.0
H  H45  1  0.15928286  0.50774480  0.50031991  1  0.031415  -5.7e-05  0.094512  0.086607  -2.4e-05  1.024494  0.0
H  H46  1  0.65934023  0.99228260  0.49968337  1  0.025565  -5.7e-05  0.094585  0.08665  -2.4e-05  1.024485  0.0
H  H47  1  0.84072112  0.00773874  0.99968689  1  0.031634  5.7e-05  0.094567  0.086682  2.4e-05  1.024572  0.0
H  H48  1  0.96169071  0.32784311  0.99158104  1  0.047423  1.8e-05  0.093513  0.088011  -1.3e-05  1.048292  0.0
H  H49  1  0.53827889  0.67218014  0.49159714  1  0.048408  -1.8e-05  0.093534  0.088074  1.3e-05  1.048135  0.0
H  H50  1  0.03831181  0.82783114  0.50841525  1  0.047584  -1.8e-05  0.093518  0.087983  1.3e-05  1.048344  0.0
H  H51  1  0.46172178  0.17217624  0.00841549  1  0.048366  1.8e-05  0.093539  0.08802  -1.3e-05  1.04825  0.0
H  H52  1  0.85076625  0.22536625  0.90711540  1  0.015224  0.000229  0.095718  0.092767  0.000129  1.004997  0.0
H  H53  1  0.64927763  0.77461759  0.40713036  1  0.014973  -0.000228  0.095675  0.092655  -0.00013  1.004965  0.0
H  H54  1  0.14922899  0.72537141  0.59288391  1  0.01522  -0.000228  0.095755  0.092821  -0.000129  1.005  0.0
H  H55  1  0.35076644  0.27462033  0.09288687  1  0.015323  0.000228  0.09575  0.092847  0.000129  1.004923  0.0
H  H56  1  0.11830705  0.28438316  0.83154489  1  0.095662  0.000307  0.095593  0.099083  0.000217  1.044244  0.0
H  H57  1  0.38176865  0.71559197  0.33155427  1  0.095961  -0.000308  0.09553  0.099188  -0.000217  1.04406  0.0
H  H58  1  0.88167822  0.78440298  0.66845085  1  0.095719  -0.000307  0.095504  0.099062  -0.000217  1.044279  0.0
H  H59  1  0.61830249  0.21559308  0.16845626  1  0.095715  0.000307  0.095512  0.099021  0.000217  1.044178  0.0
C  C60  1  0.40848839  0.93563391  0.86404478  1  0.251276  -0.000219  0.004339  0.125158  0.000405  3.84769  -0.002
C  C61  1  0.09150964  0.06436112  0.36403924  1  0.250302  0.000219  0.004397  0.125216  -0.000406  3.847395  0.002
C  C62  1  0.59143760  0.43564627  0.63595840  1  0.251361  0.000217  0.004421  0.12546  -0.000406  3.846524  0.002
C  C63  1  0.90852767  0.56434530  0.13595966  1  0.25107  -0.000218  0.004502  0.125548  0.000404  3.846809  -0.002
C  C64  1  0.52457188  0.78906496  0.84613149  1  1.406385  0.000522  0.213191  0.447085  0.001565  4.153577  0.001
C  C65  1  0.97544139  0.21095078  0.34613041  1  1.406061  -0.000534  0.213231  0.447311  -0.001569  4.153445  -0.001
C  C66  1  0.47535809  0.28906289  0.65387073  1  1.405293  -0.00053  0.213032  0.447044  -0.001571  4.153917  -0.001
C  C67  1  0.02460333  0.71092557  0.15386870  1  1.405594  0.000522  0.213184  0.44731  0.001566  4.153381  0.001
C  C68  1  0.44825880  0.57326809  0.79261974  1  0.313412  -0.002457  0.007592  0.035158  -0.000752  3.893341  -0.004
C  C69  1  0.05174784  0.42673534  0.29262161  1  0.313163  0.002456  0.007563  0.035175  0.000752  3.893232  0.004
C  C70  1  0.55169695  0.07327144  0.70737629  1  0.311725  0.002454  0.007514  0.034663  0.000751  3.893723  0.004
C  C71  1  0.94829201  0.92672824  0.20737799  1  0.312288  -0.002455  0.007541  0.03517  -0.000751  3.893362  -0.004
C  C72  1  0.22160162  0.52245087  0.76038255  1  1.556171  0.00298  0.219435  0.56759  0.002749  4.09243  0.004
C  C73  1  0.27836489  0.47754369  0.26038268  1  1.556052  -0.002976  0.21939  0.567401  -0.002747  4.092613  -0.004
C  C74  1  0.77833526  0.02245810  0.73961404  1  1.556257  -0.002978  0.21932  0.567295  -0.002747  4.09311  -0.004
C  C75  1  0.72162921  0.97755046  0.23961332  1  1.556295  0.002981  0.219337  0.567246  0.00275  4.092706  0.004
C  C76  1  0.40849198  0.94594872  0.92190473  1  -0.084513  0.00353  -0.242511  -0.414051  0.002739  3.911181  0.002
C  C77  1  0.09149464  0.05403961  0.42189802  1  -0.08399  -0.00353  -0.242529  -0.414207  -0.002741  3.911218  -0.002
C  C78  1  0.59146210  0.44596008  0.57809735  1  -0.084899  -0.00353  -0.242558  -0.414168  -0.00274  3.910857  -0.002
C  C79  1  0.90852028  0.55400957  0.07810161  1  -0.084045  0.003529  -0.242498  -0.414169  0.00274  3.910995  0.002
C  C80  1  0.55004575  0.45222646  0.82833166  1  -0.027742  0.003754  -0.162299  -0.241789  0.002654  3.923393  0.003
C  C81  1  0.94998535  0.54777432  0.32833830  1  -0.027759  -0.003751  -0.162294  -0.241664  -0.002652  3.923137  -0.003
C  C82  1  0.44991757  0.95223630  0.67165753  1  -0.026681  -0.003749  -0.162175  -0.241434  -0.002652  3.923478  -0.003
C  C83  1  0.05009063  0.04776052  0.17166510  1  -0.027112  0.003752  -0.162321  -0.241735  0.002654  3.923537  0.003
C  C84  1  0.38299908  0.41864282  0.87333160  1  0.017045  -5.3e-05  -0.012063  0.132503  -0.000112  3.945053  0.0
C  C85  1  0.11702046  0.58135145  0.37333960  1  0.01742  5.3e-05  -0.012159  0.132299  0.000112  3.94537  0.0
C  C86  1  0.61698270  0.91866877  0.62666126  1  0.017364  5.3e-05  -0.012061  0.132569  0.000111  3.94542  0.0
C  C87  1  0.88304657  0.08135548  0.12666393  1  0.017171  -5.3e-05  -0.012043  0.132456  -0.000112  3.945534  0.0
C  C88  1  0.44083289  0.47815138  0.92112080  1  -0.102465  0.000872  -0.092822  -0.136247  0.000528  3.958277  0.001
C  C89  1  0.05916888  0.52186114  0.42112611  1  -0.102429  -0.000871  -0.092764  -0.136166  -0.000528  3.958729  -0.001
C  C90  1  0.55914650  0.97815429  0.57887115  1  -0.102238  -0.000871  -0.09287  -0.136484  -0.000528  3.958584  -0.001
C  C91  1  0.94088914  0.02186932  0.07887681  1  -0.102493  0.000871  -0.092888  -0.136365  0.000528  3.958779  0.001
C  C92  1  0.29054285  0.44608784  0.96338220  1  -0.042442  0.000304  -0.096474  -0.085259  0.000195  4.039788  0.0
C  C93  1  0.20944079  0.55392292  0.46339229  1  -0.049242  -0.000305  -0.09642  -0.085189  -0.000196  4.039562  0.0
C  C94  1  0.70945493  0.94608516  0.53661115  1  -0.043581  -0.000304  -0.096509  -0.085265  -0.000196  4.039859  0.0
C  C95  1  0.79059694  0.05393912  0.03661152  1  -0.049792  0.000305  -0.096504  -0.085343  0.000196  4.039596  0.0
C  C96  1  0.07893770  0.35415139  0.95868036  1  -0.028191  0.000888  -0.100615  -0.104034  0.000542  4.034288  0.0
C  C97  1  0.42105133  0.64585920  0.45869149  1  -0.028616  -0.000888  -0.10068  -0.104279  -0.000542  4.033808  0.0
C  C98  1  0.92106567  0.85415178  0.54131679  1  -0.027745  -0.000887  -0.100611  -0.103969  -0.000542  4.034278  0.0
C  C99  1  0.57897131  0.14586606  0.04132142  1  -0.028039  0.000887  -0.100579  -0.104009  0.000542  4.034045  0.0
C  C100  1  0.01807102  0.29544095  0.91116927  1  -0.04194  0.000467  -0.097698  -0.082153  0.000423  4.048081  0.0
C  C101  1  0.48196620  0.70455029  0.41118120  1  -0.042289  -0.000467  -0.097637  -0.081866  -0.000423  4.047507  0.0
C  C102  1  0.98191950  0.79543682  0.58882765  1  -0.042296  -0.000467  -0.097736  -0.082255  -0.000424  4.048005  0.0
C  C103  1  0.51809968  0.20455854  0.08883157  1  -0.042229  0.000467  -0.097818  -0.082458  0.000424  4.048215  0.0
C  C104  1  0.16853968  0.32773897  0.86891091  1  -0.11628  0.001606  -0.101559  -0.156728  0.001146  3.969246  0.001
C  C105  1  0.33150047  0.67223422  0.36891806  1  -0.115905  -0.001606  -0.101401  -0.156745  -0.001146  3.969214  -0.001
C  C106  1  0.83143434  0.82775585  0.63108728  1  -0.11587  -0.001606  -0.101536  -0.156732  -0.001146  3.969284  -0.001
C  C107  1  0.66858002  0.17224766  0.13108964  1  -0.116039  0.001605  -0.101477  -0.156407  0.001146  3.969004  0.001
N  N108  1  0.15223880  0.95605345  0.84236456  1  -1.107288  0.122409  -0.639592  -0.586708  0.082246  3.441542  0.1
N  N109  1  0.34776730  0.04394739  0.34236127  1  -1.10619  -0.122438  -0.639637  -0.586836  -0.082265  3.441382  -0.1
N  N110  1  0.84768446  0.45606125  0.65764174  1  -1.107394  -0.122431  -0.639769  -0.587002  -0.08226  3.441002  -0.1
N  N111  1  0.65227843  0.54393662  0.15763946  1  -1.10658  0.122422  -0.639671  -0.586885  0.082257  3.440971  0.1
N  N112  1  0.37235546  0.70948131  0.81684113  1  -1.171893  0.130543  -0.432147  -0.46883  0.086329  3.599916  0.108
N  N113  1  0.12764897  0.29051310  0.31684270  1  -1.171699  -0.130515  -0.43218  -0.468943  -0.086313  3.599937  -0.108
N  N114  1  0.62757961  0.20950045  0.68315507  1  -1.17101  -0.130532  -0.431989  -0.468581  -0.086319  3.600011  -0.108
N  N115  1  0.87239066  0.79051045  0.18315749  1  -1.171448  0.130552  -0.432063  -0.468873  0.086334  3.600238  0.108
O  O116  1  0.05220172  0.61763463  0.74810259  1  -1.149223  0.073312  -0.32378  -0.545526  0.049501  2.362068  0.067
O  O117  1  0.44779059  0.38237049  0.24810667  1  -1.149064  -0.073305  -0.32374  -0.545359  -0.049495  2.362026  -0.067
O  O118  1  0.94777314  0.11762482  0.75188260  1  -1.148968  -0.073295  -0.323684  -0.545172  -0.049491  2.362231  -0.067
O  O119  1  0.55219213  0.88237979  0.25188173  1  -1.148989  0.073307  -0.323649  -0.545132  0.049498  2.361961  0.067
O  O120  1  0.21443214  0.38913685  0.74617650  1  -1.147278  -0.036955  -0.315783  -0.511564  -0.025253  2.428191  -0.035
O  O121  1  0.28554865  0.61086709  0.24618212  1  -1.147316  0.03695  -0.31576  -0.511601  0.025251  2.428194  0.035
O  O122  1  0.78550712  0.88913675  0.75381699  1  -1.147725  0.036963  -0.315729  -0.511523  0.02526  2.428171  0.035
O  O123  1  0.71450389  0.11086132  0.25382343  1  -1.147487  -0.036964  -0.315781  -0.511568  -0.025261  2.428178  -0.035
O  O124  1  0.74858679  0.75749177  0.85970192  1  -1.185855  0.02866  -0.327558  -0.553775  0.018553  2.201816  0.025
O  O125  1  0.75142166  0.24250135  0.35969988  1  -1.185708  -0.028664  -0.327573  -0.553864  -0.018555  2.201733  -0.025
O  O126  1  0.25135965  0.25750407  0.64029447  1  -1.185313  -0.028664  -0.327652  -0.553933  -0.018556  2.202057  -0.025
O  O127  1  0.24860279  0.74248500  0.14029404  1  -1.18528  0.028656  -0.327614  -0.553974  0.018551  2.201813  0.025
