# generated using pymatgen
data_CuH14C12(N4O)2
_symmetry_space_group_name_H-M   'P 1'
_cell_length_a   3.75362609
_cell_length_b   8.63980918
_cell_length_c   12.17941882
_cell_angle_alpha   72.80458676
_cell_angle_beta   85.37128124
_cell_angle_gamma   81.51182410
_symmetry_Int_Tables_number   1
_chemical_formula_structural   CuH14C12(N4O)2
_chemical_formula_sum   'Cu1 H14 C12 N8 O2'
_cell_volume   372.91057632
_cell_formula_units_Z   1
loop_
 _symmetry_equiv_pos_site_id
 _symmetry_equiv_pos_as_xyz
  1  'x, y, z'
loop_
 _atom_site_type_symbol
 _atom_site_label
 _atom_site_symmetry_multiplicity
 _atom_site_fract_x
 _atom_site_fract_y
 _atom_site_fract_z
 _atom_site_occupancy
 _atom_site_hle17_ddec_charge
 _atom_site_hle17_ddec_spin_density
 _atom_site_hle17_ddec_sum_bond_order
 _atom_site_hle17_magmom
 _atom_site_hse06_10hf_ddec_charge
 _atom_site_hse06_10hf_ddec_spin_density
 _atom_site_hse06_10hf_ddec_sum_bond_order
 _atom_site_hse06_10hf_magmom
 _atom_site_hse06_ddec_charge
 _atom_site_hse06_ddec_spin_density
 _atom_site_hse06_ddec_sum_bond_order
 _atom_site_hse06_magmom
 _atom_site_pbe_cm5_charge
 _atom_site_pbe_ddec_charge
 _atom_site_pbe_ddec_spin_density
 _atom_site_pbe_ddec_sum_bond_order
 _atom_site_pbe_magmom
Cu  Cu0  1  0.49999886  0.50000457  0.49999625  1  0.74402  -0.589353  1.862672  -0.398  0.733417  -0.708598  2.265614  -0.533  0.824645  -0.794668  2.195596  -0.626  0.748568  0.684814  -0.652802  2.309418  -0.477
H  H1  1  0.23146973  0.35478685  0.73774369  1  0.075039  -0.000734  0.972362  -0.002  0.082483  -0.00077  1.040701  -0.002  0.083527  -0.000539  1.040061  -0.001  0.116949  0.081592  -0.000947  1.041244  -0.002
H  H2  1  0.76856017  0.64520136  0.26225894  1  0.075034  -0.000734  0.972316  -0.002  0.082511  -0.000769  1.040596  -0.002  0.083553  -0.000539  1.039957  -0.001  0.116961  0.081622  -0.000947  1.041141  -0.002
H  H3  1  0.11647986  0.43780059  0.91742061  1  0.133065  -0.000289  0.96278  0.0  0.138467  -0.000311  1.027516  0.0  0.143238  -0.000252  1.024714  0.0  0.112936  0.13501  -0.000349  1.029738  0.0
H  H4  1  0.88354799  0.56218519  0.08258176  1  0.13302  -0.000295  0.962803  0.0  0.138497  -0.000311  1.027432  0.0  0.143273  -0.000252  1.024625  0.0  0.112962  0.13504  -0.000349  1.029654  0.0
H  H5  1  0.55136091  0.88730594  0.73741146  1  0.122795  -0.000274  0.991585  0.0  0.128717  -0.000415  1.058815  0.0  0.132269  -0.000325  1.057971  0.0  0.104998  0.126201  -0.000482  1.059547  0.0
H  H6  1  0.44859591  0.11269612  0.26258848  1  0.122865  -0.000277  0.9915  0.0  0.128802  -0.000415  1.058688  0.0  0.132355  -0.000324  1.057842  0.0  0.105035  0.126287  -0.000482  1.059418  0.0
H  H7  1  0.64081018  0.78549632  0.56452992  1  0.08354  -0.000774  0.936589  -0.001  0.094061  -0.00069  0.99596  -0.001  0.096421  -0.000418  0.993643  -0.001  0.115428  0.092261  -0.000883  0.997725  -0.001
H  H8  1  0.35916412  0.21451052  0.43546941  1  0.083462  -0.000779  0.936547  -0.001  0.094  -0.000691  0.995923  -0.001  0.096359  -0.000418  0.993603  -0.001  0.115422  0.0922  -0.000883  0.997687  -0.001
H  H9  1  0.65948933  0.85362733  0.93415362  1  0.092533  0.000186  0.97188  0.0  0.107291  8.9e-05  1.039648  0.0  0.10785  9e-05  1.0398  0.0  0.101194  0.106834  8.6e-05  1.039591  0.0
H  H10  1  0.34051745  0.14637808  0.06585421  1  0.092458  0.000163  0.971897  0.0  0.107163  8.9e-05  1.039753  0.0  0.10772  9e-05  1.039911  0.0  0.101152  0.106708  8.6e-05  1.039696  0.0
H  H11  1  0.29714497  0.85724265  0.03952530  1  0.099507  7.7e-05  0.944217  0.0  0.116231  -1e-05  1.00922  0.0  0.116748  2e-06  1.009296  0.0  0.103791  0.115776  -2.4e-05  1.009195  0.0
H  H12  1  0.70285662  0.14275183  0.96048331  1  0.099447  7.1e-05  0.944288  0.0  0.116171  -1e-05  1.009275  0.0  0.116691  2e-06  1.009347  0.0  0.103763  0.115713  -2.4e-05  1.009251  0.0
H  H13  1  0.22667265  0.96197389  0.88898924  1  0.087789  -0.000526  0.979468  0.0  0.100045  -0.00053  1.055528  0.0  0.100904  -0.000417  1.054598  0.0  0.09671  0.099348  -0.000636  1.056299  0.0
H  H14  1  0.77333035  0.03802545  0.11101913  1  0.087778  -0.000533  0.97948  0.0  0.10005  -0.00053  1.055494  0.0  0.100913  -0.000417  1.054559  0.0  0.096713  0.099355  -0.000636  1.056265  0.0
C  C15  1  0.29848593  0.47141643  0.74110821  1  0.135027  0.007281  3.728174  0.005  0.104995  0.001357  3.982532  0.001  0.115324  0.002877  4.002742  0.002  0.037071  0.098655  0.000187  3.969092  0.0
C  C16  1  0.70152600  0.52857921  0.25889168  1  0.135001  0.007295  3.728512  0.005  0.104924  0.001357  3.982868  0.001  0.115257  0.002879  4.003088  0.002  0.037052  0.098586  0.000187  3.969433  0.0
C  C17  1  0.23663744  0.51701731  0.84115510  1  -0.222845  -0.007498  3.704977  -0.008  -0.24513  -0.003484  3.965397  -0.004  -0.254751  -0.003281  3.981448  -0.004  -0.09834  -0.238895  -0.003521  3.954525  -0.004
C  C18  1  0.76338115  0.48297340  0.15885223  1  -0.222876  -0.007501  3.705276  -0.008  -0.245205  -0.003483  3.965738  -0.004  -0.254809  -0.003281  3.981735  -0.004  -0.098387  -0.23897  -0.00352  3.954868  -0.004
C  C19  1  0.32624620  0.66849675  0.84215636  1  0.326351  0.008192  3.78447  0.006  0.31034  0.003413  4.043049  0.002  0.328294  0.004081  4.053905  0.002  0.104474  0.298353  0.00283  4.035422  0.002
C  C20  1  0.67374639  0.33150144  0.15784841  1  0.326521  0.008187  3.784526  0.006  0.310349  0.003414  4.043185  0.002  0.328308  0.004083  4.054049  0.002  0.104438  0.298359  0.002831  4.035559  0.002
C  C21  1  0.47360893  0.76896990  0.74144619  1  -0.252351  -0.007254  3.723894  -0.007  -0.265278  -0.003392  3.968062  -0.004  -0.276932  -0.003197  3.987724  -0.004  -0.10306  -0.257672  -0.003436  3.954702  -0.004
C  C22  1  0.52637957  0.23102344  0.25855971  1  -0.252515  -0.007249  3.723896  -0.007  -0.265423  -0.003392  3.968091  -0.004  -0.27708  -0.003199  3.987751  -0.004  -0.103091  -0.257817  -0.003437  3.954736  -0.004
C  C23  1  0.52307652  0.71333779  0.64462122  1  0.154532  0.008107  3.708379  0.005  0.126673  0.002005  3.955934  0.001  0.138087  0.003721  3.973896  0.002  0.045019  0.11964  0.000692  3.94392  0.0
C  C24  1  0.47690045  0.28666904  0.35537804  1  0.154665  0.008136  3.708303  0.005  0.126759  0.002005  3.955884  0.001  0.138173  0.003723  3.973849  0.002  0.045008  0.119729  0.000692  3.943871  0.0
C  C25  1  0.36824517  0.85554156  0.95084577  1  -0.092736  -0.000567  3.593843  -0.001  -0.188926  -0.000572  3.849928  -0.001  -0.182223  -0.000424  3.85369  -0.001  -0.145931  -0.1932  -0.000709  3.847202  -0.001
C  C26  1  0.63176112  0.14445533  0.04915893  1  -0.092575  -0.000528  3.59367  -0.001  -0.188812  -0.000573  3.849743  -0.001  -0.182109  -0.000425  3.8535  -0.001  -0.145909  -0.193089  -0.000709  3.847019  -0.001
N  N27  1  0.90057918  0.31490684  0.56800597  1  -0.514375  -0.065269  2.678981  -0.08  -0.559284  -0.035806  3.025179  -0.051  -0.599459  -0.019203  3.035881  -0.037  -0.303152  -0.536809  -0.045867  3.020336  -0.057
N  N28  1  0.09942273  0.68509620  0.43197621  1  -0.514439  -0.065293  2.678276  -0.08  -0.559353  -0.035824  3.024539  -0.051  -0.599533  -0.019219  3.035233  -0.037  -0.303141  -0.536873  -0.045879  3.019699  -0.058
N  N29  1  0.84378577  0.21488155  0.65785356  1  0.369829  0.039229  4.216922  0.039  0.422986  0.008327  4.520151  0.01  0.442158  0.013571  4.55455  0.013  0.073413  0.411225  0.003501  4.497444  0.006
N  N30  1  0.15622276  0.78513730  0.34212760  1  0.369913  0.039164  4.216101  0.039  0.423048  0.008315  4.519391  0.01  0.442224  0.013557  4.553779  0.013  0.07339  0.411291  0.00349  4.49669  0.006
N  N31  1  0.79731223  0.11635388  0.74595088  1  -0.394304  -0.120925  2.407629  -0.129  -0.407098  -0.064269  2.647872  -0.072  -0.418034  -0.054926  2.658886  -0.065  -0.199095  -0.399953  -0.070783  2.640307  -0.076
N  N32  1  0.20268453  0.88365894  0.25403841  1  -0.394333  -0.120831  2.407586  -0.129  -0.407094  -0.064237  2.647818  -0.072  -0.41803  -0.0549  2.658836  -0.065  -0.199053  -0.39996  -0.070749  2.640267  -0.076
N  N33  1  0.43980906  0.56735975  0.64362031  1  -0.325338  -0.065655  3.374379  -0.078  -0.266228  -0.051507  3.662397  -0.066  -0.299316  -0.045115  3.685891  -0.062  -0.362606  -0.247249  -0.053897  3.648538  -0.066
N  N34  1  0.56018224  0.43264333  0.35637855  1  -0.325307  -0.065668  3.374479  -0.078  -0.266136  -0.051514  3.662425  -0.066  -0.299231  -0.045122  3.685932  -0.062  -0.362587  -0.247164  -0.053903  3.64857  -0.066
O  O35  1  0.25988423  0.70596253  0.94269388  1  -0.250041  0.001359  2.355447  0.001  -0.167063  0.000866  2.589498  0.001  -0.186442  0.001091  2.591791  0.001  -0.174099  -0.15353  0.000636  2.587395  0.0
O  O36  1  0.74014349  0.29403423  0.05731113  1  -0.250156  0.001359  2.355393  0.001  -0.166951  0.000866  2.589296  0.001  -0.186342  0.001092  2.591604  0.001  -0.173994  -0.153417  0.000636  2.587193  0.0
