# generated using pymatgen
data_AgH11C19N3O4F3
_symmetry_space_group_name_H-M   'P 1'
_cell_length_a   8.26046299
_cell_length_b   8.17431995
_cell_length_c   13.84102641
_cell_angle_alpha   100.59505722
_cell_angle_beta   93.76226855
_cell_angle_gamma   102.47270928
_symmetry_Int_Tables_number   1
_chemical_formula_structural   AgH11C19N3O4F3
_chemical_formula_sum   'Ag2 H22 C38 N6 O8 F6'
_cell_volume   891.56385116
_cell_formula_units_Z   2
loop_
 _symmetry_equiv_pos_site_id
 _symmetry_equiv_pos_as_xyz
  1  'x, y, z'
loop_
 _atom_site_type_symbol
 _atom_site_label
 _atom_site_symmetry_multiplicity
 _atom_site_fract_x
 _atom_site_fract_y
 _atom_site_fract_z
 _atom_site_occupancy
 _atom_site_hle17_bader_spin_density
 _atom_site_hle17_ddec_charge
 _atom_site_hle17_ddec_spin_density
 _atom_site_hle17_ddec_sum_bond_order
 _atom_site_hle17_magmom
 _atom_site_hse06_10hf_bader_spin_density
 _atom_site_hse06_10hf_ddec_charge
 _atom_site_hse06_10hf_ddec_spin_density
 _atom_site_hse06_10hf_ddec_sum_bond_order
 _atom_site_hse06_10hf_magmom
 _atom_site_hse06_bader_spin_density
 _atom_site_hse06_ddec_charge
 _atom_site_hse06_ddec_spin_density
 _atom_site_hse06_ddec_sum_bond_order
 _atom_site_hse06_magmom
 _atom_site_pbe_bader_spin_density
 _atom_site_pbe_cm5_charge
 _atom_site_pbe_ddec_charge
 _atom_site_pbe_ddec_spin_density
 _atom_site_pbe_ddec_sum_bond_order
 _atom_site_pbe_magmom
Ag  Ag0  1  0.08269343  0.37370926  0.44522842  1  0  0.491611  0  1.468918  0  0  0.336904  0  1.929195  0  0  0.368031  0  1.879539  0  0  0.458334  0.316359  0  1.963367  0
Ag  Ag1  1  0.91730211  0.62628268  0.55476912  1  0  0.491639  0  1.468883  0  0  0.336895  0  1.929158  0  0  0.368023  0  1.879498  0  0  0.458323  0.316352  0  1.963322  0
H  H2  1  0.29876262  0.68011723  0.37886023  1  0  0.092803  0  0.957019  0  0  0.097303  0  1.028731  0  0  0.100273  0  1.025417  0  0  0.11214  0.09505  0  1.031242  0
H  H3  1  0.70123747  0.31987844  0.62114008  1  0  0.092813  0  0.956982  0  0  0.097293  0  1.028726  0  0  0.100263  0  1.025411  0  0  0.112145  0.095042  0  1.031238  0
H  H4  1  0.38736646  0.75871911  0.22100681  1  0  0.115541  0  0.972927  0  0  0.120649  0  1.039881  0  0  0.124093  0  1.038032  0  0  0.108263  0.11824  0  1.041176  0
H  H5  1  0.61263665  0.24127903  0.77899607  1  0  0.115522  0  0.972921  0  0  0.120631  0  1.039873  0  0  0.124076  0  1.038022  0  0  0.108256  0.118225  0  1.041166  0
H  H6  1  0.04198091  0.29654606  0.06461437  1  0  0.117938  0  0.940476  0  0  0.125517  0  1.002388  0  0  0.128702  0  1.001001  0  0  0.114037  0.12323  0  1.003514  0
H  H7  1  0.95801938  0.70345994  0.93538276  1  0  0.117943  0  0.940541  0  0  0.125503  0  1.002461  0  0  0.128667  0  1.001098  0  0  0.114014  0.123242  0  1.00356  0
H  H8  1  0.96062232  0.24057180  0.22922931  1  0  0.089957  0  0.974257  0  0  0.096305  0  1.04355  0  0  0.099156  0  1.040986  0  0  0.113538  0.094046  0  1.045729  0
H  H9  1  0.03937430  0.75942915  0.77076638  1  0  0.089916  0  0.974344  0  0  0.09626  0  1.043652  0  0  0.099111  0  1.04109  0  0  0.11351  0.094019  0  1.045806  0
H  H10  1  0.30950915  0.71208317  0.87127162  1  0  0.122727  0  0.943319  0  0  0.13118  0  1.004567  0  0  0.134858  0  1.00263  0  0  0.114348  0.128474  0  1.006099  0
H  H11  1  0.69049386  0.28792403  0.12872720  1  0  0.122836  0  0.94323  0  0  0.131236  0  1.004553  0  0  0.134953  0  1.002532  0  0  0.114346  0.128531  0  1.006089  0
H  H12  1  0.56888398  0.90841384  0.84223355  1  0  0.108506  0  0.939062  0  0  0.115688  0  1.001518  0  0  0.119361  0  0.998556  0  0  0.106584  0.112893  0  1.003854  0
H  H13  1  0.43111897  0.09158823  0.15776326  1  0  0.108495  0  0.939041  0  0  0.115689  0  1.001485  0  0  0.119359  0  0.998528  0  0  0.106571  0.112889  0  1.003823  0
H  H14  1  0.82016111  0.97943506  0.97037036  1  0  0.125528  0  0.968485  0  0  0.1294  0  1.036137  0  0  0.133991  0  1.032267  0  0  0.111789  0.126118  0  1.038935  0
H  H15  1  0.17984393  0.02056566  0.02962639  1  0  0.125517  0  0.968457  0  0  0.129392  0  1.036106  0  0  0.133981  0  1.032236  0  0  0.111772  0.126109  0  1.038906  0
H  H16  1  0.09656610  0.90274959  0.45345850  1  0  0.09189  0  0.951634  0  0  0.099836  0  1.01605  0  0  0.102167  0  1.014417  0  0  0.114898  0.098076  0  1.017391  0
H  H17  1  0.90343788  0.09724213  0.54653938  1  0  0.091925  0  0.95159  0  0  0.099886  0  1.015992  0  0  0.102217  0  1.014357  0  0  0.114894  0.098121  0  1.017342  0
H  H18  1  0.06929139  0.00259561  0.29346112  1  0  0.108057  0  0.958626  0  0  0.112429  0  1.030914  0  0  0.117033  0  1.026588  0  0  0.106825  0.109078  0  1.034213  0
H  H19  1  0.93071241  0.99740511  0.70653919  1  0  0.108038  0  0.958631  0  0  0.112404  0  1.030915  0  0  0.117013  0  1.026582  0  0  0.106807  0.109051  0  1.034207  0
H  H20  1  0.62489783  0.59901083  0.20443976  1  0  0.108838  0  0.988959  0  0  0.111087  0  1.061617  0  0  0.114395  0  1.06071  0  0  0.107403  0.108719  0  1.062429  0
H  H21  1  0.37510123  0.40099518  0.79555949  1  0  0.108805  0  0.988944  0  0  0.111076  0  1.061587  0  0  0.114387  0  1.060672  0  0  0.107389  0.108705  0  1.062397  0
H  H22  1  0.66341029  0.52212168  0.36877244  1  0  0.076665  0  0.953714  0  0  0.087374  0  1.016346  0  0  0.089124  0  1.014532  0  0  0.11165  0.085928  0  1.017931  0
H  H23  1  0.33658840  0.47787792  0.63122463  1  0  0.076666  0  0.953801  0  0  0.087397  0  1.016412  0  0  0.089146  0  1.014596  0  0  0.111656  0.08595  0  1.017998  0
C  C24  1  0.24576185  0.59881184  0.30735439  1  0  0.11447  0  3.672535  0  0  0.08571  0  3.916026  0  0  0.090629  0  3.937345  0  0  0.043279  0.082387  0  3.901814  0
C  C25  1  0.75423799  0.40118770  0.69264634  1  0  0.114452  0  3.672527  0  0  0.085684  0  3.916008  0  0  0.090598  0  3.937342  0  0  0.043277  0.082355  0  3.901806  0
C  C26  1  0.29430463  0.64162162  0.21901882  1  0  -0.116814  0  3.682846  0  0  -0.137845  0  3.929723  0  0  -0.14364  0  3.951633  0  0  -0.073701  -0.13401  0  3.915002  0
C  C27  1  0.70569376  0.35838181  0.78098228  1  0  -0.116754  0  3.682873  0  0  -0.137819  0  3.929734  0  0  -0.143616  0  3.951644  0  0  -0.073694  -0.133984  0  3.915011  0
C  C28  1  0.22297945  0.53159040  0.12931658  1  0  0.027047  0  3.705805  0  0  0.038802  0  3.939587  0  0  0.037951  0  3.959968  0  0  0.003448  0.039483  0  3.925871  0
C  C29  1  0.77702083  0.46841558  0.87068199  1  0  0.026982  0  3.706043  0  0  0.038787  0  3.939663  0  0  0.037938  0  3.960039  0  0  0.003452  0.039466  0  3.925952  0
C  C30  1  0.10163320  0.38410528  0.13270986  1  0  -0.089257  0  3.672297  0  0  -0.112494  0  3.922756  0  0  -0.116465  0  3.942923  0  0  -0.067902  -0.109912  0  3.909251  0
C  C31  1  0.89836644  0.61589815  0.86728840  1  0  -0.089289  0  3.672477  0  0  -0.112515  0  3.922905  0  0  -0.116468  0  3.943075  0  0  -0.067914  -0.109959  0  3.909396  0
C  C32  1  0.05777334  0.35095198  0.22338041  1  0  0.11248  0  3.665578  0  0  0.082773  0  3.909011  0  0  0.087755  0  3.928321  0  0  0.042444  0.079447  0  3.896208  0
C  C33  1  0.94222390  0.64905152  0.77661631  1  0  0.112514  0  3.665607  0  0  0.082762  0  3.909061  0  0  0.087748  0  3.928358  0  0  0.042468  0.079428  0  3.896245  0
C  C34  1  0.26108019  0.56439524  0.02940871  1  0  0.357225  0  3.674137  0  0  0.338904  0  3.93155  0  0  0.359652  0  3.932733  0  0  0.17198  0.32453  0  3.93087  0
C  C35  1  0.73892129  0.43561071  0.97058991  1  0  0.357289  0  3.674141  0  0  0.339066  0  3.931329  0  0  0.359813  0  3.932516  0  0  0.172032  0.324689  0  3.930649  0
C  C36  1  0.41426366  0.69075487  0.01514935  1  0  0.115663  0  3.757393  0  0  0.116639  0  4.008122  0  0  0.116495  0  4.02804  0  0  0.11004  0.116699  0  3.99472  0
C  C37  1  0.58573724  0.30925367  0.98485025  1  0  0.115693  0  3.75738  0  0  0.116702  0  4.007978  0  0  0.116552  0  4.027905  0  0  0.11005  0.116772  0  3.994565  0
C  C38  1  0.41844001  0.75006714  0.92607171  1  0  -0.085738  0  3.654269  0  0  -0.110056  0  3.902017  0  0  -0.112506  0  3.921702  0  0  -0.062984  -0.108409  0  3.888849  0
C  C39  1  0.58156299  0.24994006  0.07392784  1  0  -0.086042  0  3.654215  0  0  -0.110359  0  3.901982  0  0  -0.112808  0  3.921658  0  0  -0.063048  -0.108721  0  3.888825  0
C  C40  1  0.56439877  0.85824784  0.90988264  1  0  -0.009323  0  3.699  0  0  -0.025202  0  3.951879  0  0  -0.02606  0  3.972546  0  0  -0.065908  -0.024493  0  3.937906  0
C  C41  1  0.43560512  0.14175805  0.09011680  1  0  -0.009081  0  3.698757  0  0  -0.024973  0  3.951606  0  0  -0.025835  0  3.972282  0  0  -0.065826  -0.024254  0  3.937632  0
C  C42  1  0.70181546  0.89926886  0.98098794  1  0  -0.095607  0  3.6583  0  0  -0.120825  0  3.909398  0  0  -0.124106  0  3.93016  0  0  -0.064007  -0.118504  0  3.895289  0
C  C43  1  0.29818540  0.10073454  0.01900965  1  0  -0.095672  0  3.658137  0  0  -0.1209  0  3.909264  0  0  -0.124178  0  3.93002  0  0  -0.063987  -0.118571  0  3.895155  0
C  C44  1  0.68743360  0.83230144  0.06743058  1  0  0.128173  0  3.73542  0  0  0.129476  0  3.98355  0  0  0.12945  0  4.003756  0  0  0.1154  0.129426  0  3.969991  0
C  C45  1  0.31256668  0.16770454  0.93256799  1  0  0.128186  0  3.73554  0  0  0.129495  0  3.983644  0  0  0.129475  0  4.003843  0  0  0.115359  0.129428  0  3.9701  0
C  C46  1  0.84043846  0.87102538  0.14038792  1  0  0.382067  0  3.642661  0  0  0.36277  0  3.89829  0  0  0.384248  0  3.898134  0  0  0.18281  0.347891  0  3.898564  0
C  C47  1  0.15956026  0.12897933  0.85961261  1  0  0.381965  0  3.642763  0  0  0.362719  0  3.898433  0  0  0.38419  0  3.898281  0  0  0.182724  0.347842  0  3.898711  0
C  C48  1  0.99143839  0.84316777  0.39725494  1  0  0.110752  0  3.697336  0  0  0.080718  0  3.944707  0  0  0.085912  0  3.965691  0  0  0.042294  0.077222  0  3.930687  0
C  C49  1  0.00856205  0.15682919  0.60274336  1  0  0.110656  0  3.697308  0  0  0.080615  0  3.94465  0  0  0.085811  0  3.965633  0  0  0.042245  0.07712  0  3.930629  0
C  C50  1  0.97632886  0.89638089  0.30830585  1  0  -0.111826  0  3.692509  0  0  -0.135773  0  3.944573  0  0  -0.141151  0  3.964687  0  0  -0.071707  -0.132353  0  3.931345  0
C  C51  1  0.02367228  0.10362377  0.69169478  1  0  -0.111899  0  3.692584  0  0  -0.13576  0  3.944691  0  0  -0.141141  0  3.9648  0  0  -0.071699  -0.132336  0  3.931449  0
C  C52  1  0.84282129  0.81050558  0.23636020  1  0  0.049295  0  3.679694  0  0  0.062064  0  3.907645  0  0  0.062259  0  3.927693  0  0  0.013707  0.06211  0  3.894103  0
C  C53  1  0.15717777  0.18950042  0.76363976  1  0  0.049528  0  3.679423  0  0  0.062052  0  3.907694  0  0  0.06225  0  3.927743  0  0  0.013714  0.062098  0  3.894147  0
C  C54  1  0.72889294  0.67190689  0.25800248  1  0  -0.102312  0  3.66892  0  0  -0.125038  0  3.916493  0  0  -0.130337  0  3.936901  0  0  -0.070614  -0.121633  0  3.902894  0
C  C55  1  0.27110644  0.32810040  0.74199764  1  0  -0.102286  0  3.668854  0  0  -0.124979  0  3.916511  0  0  -0.130278  0  3.936911  0  0  -0.070577  -0.12157  0  3.902913  0
C  C56  1  0.75109008  0.62790520  0.34952556  1  0  0.119194  0  3.692779  0  0  0.090573  0  3.934421  0  0  0.096028  0  3.95559  0  0  0.044395  0.086907  0  3.920269  0
C  C57  1  0.24890988  0.37209950  0.65047286  1  0  0.119108  0  3.692905  0  0  0.090476  0  3.93453  0  0  0.095928  0  3.95571  0  0  0.044344  0.086816  0  3.920371  0
C  C58  1  0.48577099  0.16810845  0.38605050  1  0  0.655535  0  3.627971  0  0  0.589662  0  3.967483  0  0  0.617793  0  3.938393  0  0  0.286095  0.569603  0  3.988083  0
C  C59  1  0.51422469  0.83187955  0.61395455  1  0  0.655638  0  3.627705  0  0  0.589985  0  3.966887  0  0  0.617962  0  3.938051  0  0  0.286203  0.569915  0  3.987498  0
C  C60  1  0.67531553  0.18939043  0.37097560  1  0  0.484834  0  4.092524  0  0  0.438848  0  4.392571  0  0  0.468208  0  4.387883  0  0  0.176988  0.419112  0  4.394903  0
C  C61  1  0.32467698  0.81058990  0.62903136  1  0  0.484782  0  4.092556  0  0  0.438758  0  4.392586  0  0  0.468152  0  4.38792  0  0  0.176883  0.419022  0  4.394917  0
N  N62  1  0.13037382  0.45542034  0.30964720  1  0  -0.274538  0  3.352747  0  0  -0.180925  0  3.624166  0  0  -0.200638  0  3.643902  0  0  -0.34453  -0.167709  0  3.610789  0
N  N63  1  0.86962179  0.54457675  0.69035091  1  0  -0.274512  0  3.35277  0  0  -0.180825  0  3.624106  0  0  -0.200538  0  3.643841  0  0  -0.344508  -0.167613  0  3.610736  0
N  N64  1  0.54514081  0.73275075  0.08497712  1  0  -0.320172  0  3.103237  0  0  -0.289758  0  3.360121  0  0  -0.299177  0  3.37937  0  0  -0.289398  -0.283116  0  3.347062  0
N  N65  1  0.45485889  0.26725782  0.91502315  1  0  -0.320187  0  3.10339  0  0  -0.289793  0  3.360263  0  0  -0.299217  0  3.379519  0  0  -0.2894  -0.283144  0  3.347196  0
N  N66  1  0.87966319  0.71118034  0.41828989  1  0  -0.283167  0  3.357174  0  0  -0.193046  0  3.632149  0  0  -0.212762  0  3.651046  0  0  -0.345406  -0.179786  0  3.619281  0
N  N67  1  0.12033758  0.28881791  0.58170785  1  0  -0.283074  0  3.357076  0  0  -0.192964  0  3.632047  0  0  -0.212682  0  3.650945  0  0  -0.345329  -0.179708  0  3.619185  0
O  O68  1  0.16626541  0.48267679  0.95544882  1  0  -0.431671  0  1.995194  0  0  -0.39345  0  2.216042  0  0  -0.411011  0  2.216715  0  0  -0.234167  -0.381368  0  2.215538  0
O  O69  1  0.83374354  0.51732510  0.04455039  1  0  -0.431713  0  1.995137  0  0  -0.393563  0  2.215939  0  0  -0.411128  0  2.216613  0  0  -0.234204  -0.381484  0  2.215439  0
O  O70  1  0.97155900  0.95716350  0.12035609  1  0  -0.439132  0  1.954287  0  0  -0.395678  0  2.165508  0  0  -0.412622  0  2.161324  0  0  -0.239918  -0.384141  0  2.168421  0
O  O71  1  0.02844341  0.04284626  0.87964588  1  0  -0.439066  0  1.954474  0  0  -0.395582  0  2.165654  0  0  -0.412523  0  2.161473  0  0  -0.239797  -0.384042  0  2.168567  0
O  O72  1  0.77393614  0.24717364  0.44944853  1  0  -0.608067  0  2.079388  0  0  -0.561223  0  2.344359  0  0  -0.586273  0  2.332185  0  0  -0.335204  -0.543599  0  2.352077  0
O  O73  1  0.22605852  0.75280539  0.55055404  1  0  -0.608178  0  2.079312  0  0  -0.561349  0  2.344334  0  0  -0.586394  0  2.332143  0  0  -0.335153  -0.543722  0  2.352047  0
O  O74  1  0.70227835  0.14871748  0.28290754  1  0  -0.567874  0  1.956646  0  0  -0.543951  0  2.185889  0  0  -0.566143  0  2.180783  0  0  -0.329715  -0.52792  0  2.188577  0
O  O75  1  0.29770902  0.85125660  0.71709345  1  0  -0.567667  0  1.956712  0  0  -0.54374  0  2.185924  0  0  -0.565928  0  2.180824  0  0  -0.32964  -0.527726  0  2.188641  0
F  F76  1  0.39635376  0.00327915  0.35100365  1  0  -0.257543  0  1.180744  0  0  -0.210995  0  1.34572  0  0  -0.222206  0  1.330617  0  0  -0.098914  -0.203041  0  1.356208  0
F  F77  1  0.60363494  0.99671027  0.64900632  1  0  -0.257554  0  1.180671  0  0  -0.211114  0  1.345623  0  0  -0.222277  0  1.330565  0  0  -0.098934  -0.203159  0  1.356114  0
F  F78  1  0.45518445  0.21118919  0.48181016  1  0  -0.250585  0  1.181747  0  0  -0.214607  0  1.351386  0  0  -0.223217  0  1.333819  0  0  -0.108272  -0.208328  0  1.363503  0
F  F79  1  0.54481566  0.78881159  0.51819433  1  0  -0.250672  0  1.181636  0  0  -0.214745  0  1.351212  0  0  -0.223319  0  1.3337  0  0  -0.108315  -0.208466  0  1.363332  0
F  F80  1  0.41500805  0.26901711  0.33462056  1  0  -0.263213  0  1.163196  0  0  -0.229737  0  1.339737  0  0  -0.23926  0  1.323607  0  0  -0.110344  -0.222692  0  1.350849  0
F  F81  1  0.58499403  0.73097204  0.66538128  1  0  -0.263221  0  1.163189  0  0  -0.229787  0  1.33966  0  0  -0.239273  0  1.323588  0  0  -0.110407  -0.222739  0  1.350773  0
