# generated using pymatgen
data_CoH7C7NO5
_symmetry_space_group_name_H-M   'P 1'
_cell_length_a   9.05665765
_cell_length_b   9.46003634
_cell_length_c   12.30249376
_cell_angle_alpha   95.21931997
_cell_angle_beta   104.43085872
_cell_angle_gamma   113.78555877
_symmetry_Int_Tables_number   1
_chemical_formula_structural   CoH7C7NO5
_chemical_formula_sum   'Co4 H28 C28 N4 O20'
_cell_volume   912.00843180
_cell_formula_units_Z   4
loop_
 _symmetry_equiv_pos_site_id
 _symmetry_equiv_pos_as_xyz
  1  'x, y, z'
loop_
 _atom_site_type_symbol
 _atom_site_label
 _atom_site_symmetry_multiplicity
 _atom_site_fract_x
 _atom_site_fract_y
 _atom_site_fract_z
 _atom_site_occupancy
 _atom_site_pbe_bader_charge
 _atom_site_pbe_bader_spin_density
 _atom_site_pbe_cm5_charge
 _atom_site_pbe_ddec_charge
 _atom_site_pbe_ddec_spin_density
 _atom_site_pbe_ddec_sum_bond_order
 _atom_site_pbe_magmom
Co  Co0  1  0.87857000  0.00208809  0.21609953  1  1.272136  2.622127  0.674182  0.889923  2.825256  2.36475  2.592
Co  Co1  1  0.12142976  0.99791068  0.78390896  1  1.272181  2.622126  0.674206  0.89001  2.825247  2.364535  2.592
Co  Co2  1  0.49999456  0.99999592  0.00000036  1  1.373486  2.640545  0.695107  1.08916  2.866379  2.448432  2.628
Co  Co3  1  0.99999651  0.49999962  0.99998942  1  1.377764  2.712772  0.670522  1.135114  2.943748  2.248794  2.699
H  H4  1  0.74558571  0.38642780  0.33511002  1  0.065316  0.001271  0.106662  0.097699  0.000433  0.970512  0.001
H  H5  1  0.25442163  0.61357984  0.66487680  1  0.064804  0.001272  0.106651  0.097692  0.000433  0.970534  0.001
H  H6  1  0.64666792  0.48715966  0.19573966  1  0.099222  0.000691  0.107995  0.102619  0.000256  0.976408  0.001
H  H7  1  0.35333095  0.51283972  0.80424594  1  0.099508  0.000691  0.107989  0.10256  0.000256  0.976427  0.001
H  H8  1  0.36288770  0.38665951  0.09567475  1  0.040359  0.000688  0.101723  0.086047  0.000154  1.002256  0.001
H  H9  1  0.63710846  0.61333893  0.90432006  1  0.040442  0.000688  0.101696  0.086032  0.000154  1.002328  0.001
H  H10  1  0.39689584  0.37601437  0.29291134  1  0.080233  3.7e-05  0.105898  0.08638  -0.000289  1.036839  0.0
H  H11  1  0.60312071  0.62400299  0.70708830  1  0.080021  3.8e-05  0.105864  0.086362  -0.000289  1.036838  0.0
H  H12  1  0.43318630  0.07008498  0.25986548  1  0.054572  0.000208  0.100487  0.1132  -1e-05  0.991431  0.0
H  H13  1  0.56681663  0.92992291  0.74013030  1  0.054457  0.000208  0.10048  0.113167  -1e-05  0.991554  0.0
H  H14  1  0.51321736  0.21459450  0.38916021  1  0.054308  9.6e-05  0.096181  0.103721  -0.000145  0.982109  0.0
H  H15  1  0.48679868  0.78541699  0.61084061  1  0.05428  9.6e-05  0.096175  0.103695  -0.000145  0.982095  0.0
H  H16  1  0.01051738  0.87194843  0.39952928  1  0.148963  0.001606  0.126409  0.105462  0.000423  0.984233  0.002
H  H17  1  0.98949733  0.12807931  0.60050640  1  0.148788  0.001606  0.126418  0.105449  0.000423  0.984301  0.002
H  H18  1  0.90004700  0.68956522  0.52674685  1  0.156255  0.001004  0.116783  0.141255  0.000422  1.019106  0.001
H  H19  1  0.09996029  0.31045411  0.47328210  1  0.155879  0.001004  0.116806  0.141247  0.000421  1.019117  0.001
H  H20  1  0.39602831  0.63062471  0.34634638  1  0.152146  0.000979  0.113976  0.12565  0.000409  1.028808  0.001
H  H21  1  0.60397770  0.36935365  0.65365067  1  0.152015  0.000978  0.113956  0.12557  0.00041  1.02881  0.001
H  H22  1  0.52704929  0.81255577  0.22443753  1  0.146188  0.001678  0.121371  0.107433  0.000473  1.013263  0.001
H  H23  1  0.47295677  0.18741310  0.77555816  1  0.146012  0.001681  0.1214  0.107515  0.000473  1.013118  0.001
H  H24  1  0.84339105  0.17047695  0.94901173  1  0.660242  0.001124  0.303901  0.409818  0.000539  0.913587  0.002
H  H25  1  0.15660270  0.82952604  0.05097559  1  0.66  0.001125  0.303899  0.409874  0.000538  0.913506  0.002
H  H26  1  0.12084052  0.37375840  0.15623797  1  0.648195  0.000765  0.292366  0.387296  0.000573  0.957619  0.001
H  H27  1  0.87914140  0.62622928  0.84374873  1  0.648439  0.000764  0.292353  0.387321  0.000573  0.957546  0.001
H  H28  1  0.02504742  0.24036971  0.93230090  1  0.636347  0.000598  0.306722  0.401388  0.000277  0.914276  0.001
H  H29  1  0.97494753  0.75962861  0.06768880  1  0.636314  0.000599  0.306715  0.401356  0.000277  0.914307  0.001
H  H30  1  0.26530801  0.54142251  0.15497753  1  0.623057  -0.000356  0.312036  0.382138  -0.00059  0.920285  0.0
H  H31  1  0.73468193  0.45856284  0.84501212  1  0.623508  -0.000355  0.311972  0.381978  -0.00059  0.920484  0.0
C  C32  1  0.67286549  0.35182066  0.06382466  1  1.567659  -0.000277  0.213817  0.606687  -0.001076  4.141049  0.0
C  C33  1  0.32712093  0.64817410  0.93616246  1  1.568532  -0.000277  0.213923  0.60693  -0.001076  4.141001  0.0
C  C34  1  0.29661644  0.14767499  0.02827010  1  1.547835  0.009789  0.223464  0.613948  0.006895  4.097635  0.008
C  C35  1  0.70337756  0.85232607  0.97173422  1  1.547943  0.00979  0.223434  0.613781  0.006896  4.097802  0.008
C  C36  1  0.18003284  0.16156311  0.22611910  1  1.540381  -0.001877  0.207619  0.58548  -0.003176  4.105731  -0.004
C  C37  1  0.81997936  0.83844745  0.77389072  1  1.539839  -0.001876  0.207666  0.585595  -0.003175  4.105827  -0.004
C  C38  1  0.73355647  0.18098062  0.24542294  1  1.523762  -0.00011  0.216852  0.6031  -0.001252  4.079238  -0.001
C  C39  1  0.26645172  0.81901672  0.75457725  1  1.524206  -0.000113  0.216937  0.603347  -0.001255  4.078911  -0.001
C  C40  1  0.65113405  0.28765838  0.26409129  1  0.007832  0.003104  -0.077261  -0.11482  0.001393  3.781238  0.002
C  C41  1  0.34887113  0.71234467  0.73590055  1  0.00799  0.003103  -0.077321  -0.114964  0.001393  3.781271  0.002
C  C42  1  0.59495856  0.36017006  0.15964300  1  -0.040848  0.007409  -0.076416  -0.134007  0.003486  3.751359  0.006
C  C43  1  0.40504209  0.63982826  0.84034774  1  -0.041517  0.007411  -0.076387  -0.133863  0.003487  3.751022  0.006
C  C44  1  0.39847894  0.29513024  0.12443848  1  0.02067  0.00821  -0.083449  -0.147714  0.004302  3.820177  0.006
C  C45  1  0.60151729  0.70486833  0.87556123  1  0.020488  0.008211  -0.083423  -0.147631  0.004303  3.820345  0.006
C  C46  1  0.36430050  0.26130415  0.23915013  1  -0.013856  0.00245  -0.084631  -0.122634  0.001259  3.864318  0.001
C  C47  1  0.63570992  0.73870988  0.76085632  1  -0.01338  0.002449  -0.084547  -0.122682  0.001259  3.864357  0.001
C  C48  1  0.48775221  0.19729495  0.29578220  1  -0.009567  0.001972  -0.159583  -0.173609  0.000817  3.856343  0.001
C  C49  1  0.51225582  0.80271889  0.70421649  1  -0.009659  0.001973  -0.159516  -0.173441  0.000817  3.856272  0.001
C  C50  1  0.87537432  0.81417852  0.39021574  1  0.427706  -0.014664  0.04943  0.092761  -0.014969  3.938187  -0.006
C  C51  1  0.12463413  0.18583845  0.60981328  1  0.427733  -0.01467  0.049472  0.092879  -0.014975  3.937679  -0.006
C  C52  1  0.81368194  0.71261209  0.45970760  1  -0.052088  -0.017732  -0.072196  -0.178249  -0.02012  3.898786  -0.008
C  C53  1  0.18632233  0.28741053  0.54031043  1  -0.051223  -0.01774  -0.072129  -0.178308  -0.020126  3.898361  -0.008
C  C54  1  0.63813082  0.64141013  0.44365543  1  0.402516  -0.011976  0.104029  0.203643  -0.018126  4.04716  -0.007
C  C55  1  0.36187463  0.35859579  0.55635696  1  0.402492  -0.011977  0.10399  0.203706  -0.018124  4.046928  -0.007
C  C56  1  0.53201264  0.67997776  0.35871094  1  -0.080953  -0.016773  -0.085687  -0.21099  -0.017628  3.941664  -0.008
C  C57  1  0.46799178  0.32000442  0.64129661  1  -0.080903  -0.016773  -0.085474  -0.210633  -0.017627  3.941261  -0.008
C  C58  1  0.60387372  0.78161641  0.29256464  1  0.462776  -0.002616  0.039724  0.091647  -0.003692  3.935713  0.001
C  C59  1  0.39612715  0.21837032  0.70743522  1  0.462838  -0.002611  0.039593  0.091313  -0.003689  3.935973  0.001
N  N60  1  0.58161443  0.53653116  0.51331180  1  -0.520697  -0.087323  -0.166013  -0.158801  -0.088758  3.26493  -0.058
N  N61  1  0.41838821  0.46346885  0.48669973  1  -0.580703  -0.087199  -0.165983  -0.15877  -0.088753  3.265043  -0.058
N  N62  1  0.77327756  0.84838650  0.30706623  1  -1.24477  0.033347  -0.343356  -0.267012  0.015616  3.623816  0.027
N  N63  1  0.22673871  0.15162060  0.69294820  1  -1.245071  0.033352  -0.343472  -0.267053  0.01562  3.623848  0.027
O  O64  1  0.60200319  0.23079323  0.98114709  1  -1.162904  0.060751  -0.315566  -0.579331  0.030755  2.354545  0.053
O  O65  1  0.39797942  0.76918629  0.01884414  1  -1.163066  0.060732  -0.315558  -0.579438  0.03075  2.354767  0.053
O  O66  1  0.80996697  0.47163780  0.07302858  1  -1.158619  0.078994  -0.312567  -0.560532  0.040836  2.316042  0.069
O  O67  1  0.19001640  0.52835782  0.92694503  1  -1.158835  0.079007  -0.312697  -0.560679  0.040839  2.316084  0.069
O  O68  1  0.30893635  0.02113183  0.04726500  1  -1.169928  0.067343  -0.310451  -0.580829  0.034272  2.400174  0.053
O  O69  1  0.69105769  0.97886690  0.95274082  1  -1.170115  0.067351  -0.310415  -0.580666  0.034273  2.400197  0.053
O  O70  1  0.20350068  0.15535997  0.93480943  1  -1.153  0.101503  -0.293407  -0.529476  0.052508  2.350152  0.083
O  O71  1  0.79649561  0.84463870  0.06519436  1  -1.152969  0.101503  -0.29344  -0.529498  0.05251  2.350136  0.083
O  O72  1  0.06704226  0.18951106  0.15827141  1  -1.174842  0.054015  -0.304613  -0.549247  0.026818  2.279584  0.047
O  O73  1  0.93295509  0.81048508  0.84172592  1  -1.174474  0.054014  -0.304656  -0.549338  0.026817  2.279818  0.047
O  O74  1  0.13379676  0.05295662  0.28186763  1  -1.137537  0.087817  -0.304651  -0.517822  0.045086  2.200002  0.073
O  O75  1  0.86621549  0.94706120  0.71814913  1  -1.137488  0.087827  -0.304699  -0.517882  0.045094  2.200001  0.073
O  O76  1  0.65542798  0.05458498  0.16439486  1  -1.171081  0.103977  -0.310948  -0.601649  0.055831  2.513398  0.089
O  O77  1  0.34455372  0.94539254  0.83561072  1  -1.171203  0.10396  -0.311016  -0.601736  0.055822  2.513708  0.089
O  O78  1  0.87787131  0.20759804  0.31159640  1  -1.136796  0.093741  -0.29062  -0.508027  0.047946  2.188899  0.079
O  O79  1  0.12212988  0.79239424  0.68838921  1  -1.13678  0.09375  -0.290671  -0.508277  0.047949  2.188252  0.079
O  O80  1  0.92811807  0.26291506  0.93136786  1  -1.231021  0.063656  -0.569676  -0.767431  0.033043  2.140169  0.052
O  O81  1  0.07186886  0.73708080  0.06861617  1  -1.230758  0.063652  -0.569692  -0.767424  0.033042  2.140174  0.052
O  O82  1  0.14824200  0.48842322  0.15501557  1  -1.225649  0.066035  -0.563384  -0.747337  0.034693  2.140841  0.053
O  O83  1  0.85173811  0.51156071  0.84496245  1  -1.226333  0.066031  -0.56328  -0.747147  0.034693  2.140866  0.053
