# generated using pymatgen
data_KH9C8S2N4O5
_symmetry_space_group_name_H-M   'P 1'
_cell_length_a   6.80172665
_cell_length_b   10.03424274
_cell_length_c   10.31961408
_cell_angle_alpha   110.55824622
_cell_angle_beta   89.52018554
_cell_angle_gamma   107.01567253
_symmetry_Int_Tables_number   1
_chemical_formula_structural   KH9C8S2N4O5
_chemical_formula_sum   'K2 H18 C16 S4 N8 O10'
_cell_volume   627.07964272
_cell_formula_units_Z   2
loop_
 _symmetry_equiv_pos_site_id
 _symmetry_equiv_pos_as_xyz
  1  'x, y, z'
loop_
 _atom_site_type_symbol
 _atom_site_label
 _atom_site_symmetry_multiplicity
 _atom_site_fract_x
 _atom_site_fract_y
 _atom_site_fract_z
 _atom_site_occupancy
 _atom_site_hle17_bader_spin_density
 _atom_site_hle17_ddec_charge
 _atom_site_hle17_ddec_spin_density
 _atom_site_hle17_ddec_sum_bond_order
 _atom_site_hle17_magmom
 _atom_site_hse06_10hf_bader_spin_density
 _atom_site_hse06_10hf_ddec_charge
 _atom_site_hse06_10hf_ddec_spin_density
 _atom_site_hse06_10hf_ddec_sum_bond_order
 _atom_site_hse06_10hf_magmom
 _atom_site_hse06_bader_spin_density
 _atom_site_hse06_ddec_charge
 _atom_site_hse06_ddec_spin_density
 _atom_site_hse06_ddec_sum_bond_order
 _atom_site_hse06_magmom
 _atom_site_pbe_bader_spin_density
 _atom_site_pbe_cm5_charge
 _atom_site_pbe_ddec_charge
 _atom_site_pbe_ddec_spin_density
 _atom_site_pbe_ddec_sum_bond_order
 _atom_site_pbe_magmom
K  K0  1  0.27394917  0.62022640  0.17064066  1  0  0.851608  0  0.539024  0  0  0.786052  0  0.757362  0  0  0.79911  0  0.737945  0  0  0.603916  0.775476  0  0.772521  0
K  K1  1  0.72605698  0.37977106  0.82935307  1  0  0.851602  0  0.539043  0  0  0.786081  0  0.757324  0  0  0.799135  0  0.737913  0  0  0.603919  0.775504  0  0.772486  0
H  H2  1  0.50979057  0.20957204  0.49252326  1  0  0.163529  0  0.95078  0  0  0.174174  0  1.007826  0  0  0.178967  0  1.006551  0  0  0.114432  0.171129  0  1.008288  0
H  H3  1  0.49021555  0.79042884  0.50747645  1  0  0.16353  0  0.950791  0  0  0.174198  0  1.007802  0  0  0.178988  0  1.006525  0  0  0.114439  0.171152  0  1.008267  0
H  H4  1  0.83450513  0.61988623  0.45032637  1  0  0.320598  0  0.911101  0  0  0.295166  0  0.982207  0  0  0.30527  0  0.97352  0  0  0.309893  0.288222  0  0.988191  0
H  H5  1  0.16549955  0.38011466  0.54967236  1  0  0.320602  0  0.911067  0  0  0.295208  0  0.982123  0  0  0.305309  0  0.973449  0  0  0.309898  0.288264  0  0.988108  0
H  H6  1  0.49863859  0.27244432  0.10839847  1  0  0.317066  0  0.923601  0  0  0.292624  0  0.995169  0  0  0.302801  0  0.986186  0  0  0.309275  0.285762  0  1.001194  0
H  H7  1  0.50136316  0.72755660  0.89160027  1  0  0.317106  0  0.923589  0  0  0.292621  0  0.995206  0  0  0.302795  0  0.986224  0  0  0.309273  0.285757  0  1.001237  0
H  H8  1  0.08405202  0.32916412  0.30601350  1  0  0.334464  0  0.904182  0  0  0.306614  0  0.977957  0  0  0.317877  0  0.968279  0  0  0.306003  0.298533  0  0.98477  0
H  H9  1  0.91594573  0.67083124  0.69398532  1  0  0.334482  0  0.904169  0  0  0.306574  0  0.978018  0  0  0.317837  0  0.968342  0  0  0.306016  0.298494  0  0.98483  0
H  H10  1  0.72147879  0.98987648  0.95707885  1  0  0.334893  0  0.898244  0  0  0.306034  0  0.973088  0  0  0.317011  0  0.963649  0  0  0.305924  0.2983  0  0.97949  0
H  H11  1  0.27851898  0.01012226  0.04292206  1  0  0.33487  0  0.898328  0  0  0.306018  0  0.97317  0  0  0.316996  0  0.963731  0  0  0.305936  0.298287  0  0.97957  0
H  H12  1  0.84647388  0.89922855  0.28847704  1  0  0.170088  0  0.907991  0  0  0.180652  0  0.968697  0  0  0.185443  0  0.965584  0  0  0.126554  0.175588  0  0.973321  0
H  H13  1  0.15352736  0.10076786  0.71151826  1  0  0.170038  0  0.908052  0  0  0.180633  0  0.968713  0  0  0.18543  0  0.965595  0  0  0.126534  0.175569  0  0.973336  0
H  H14  1  0.64521588  0.97456385  0.34696736  1  0  0.185316  0  0.91165  0  0  0.197823  0  0.966743  0  0  0.20244  0  0.963892  0  0  0.134907  0.193871  0  0.969237  0
H  H15  1  0.35478421  0.02543040  0.65303595  1  0  0.185353  0  0.911589  0  0  0.197821  0  0.966719  0  0  0.202438  0  0.963871  0  0  0.134903  0.193867  0  0.969217  0
H  H16  1  0.17598912  0.88319672  0.41181545  1  0  0.405705  0  0.897048  0  0  0.375899  0  0.960669  0  0  0.385803  0  0.945961  0  0  0.283319  0.368928  0  0.971013  0
H  H17  1  0.82401018  0.11680198  0.58818157  1  0  0.405683  0  0.897083  0  0  0.375878  0  0.960702  0  0  0.385786  0  0.945989  0  0  0.283305  0.368906  0  0.971047  0
H  H18  1  0.29352177  0.96646416  0.31290195  1  0  0.409923  0  0.900271  0  0  0.376991  0  0.968859  0  0  0.387819  0  0.953054  0  0  0.277194  0.3693  0  0.980031  0
H  H19  1  0.70648283  0.03353337  0.68709761  1  0  0.409854  0  0.900354  0  0  0.376954  0  0.968898  0  0  0.387781  0  0.953096  0  0  0.277188  0.369261  0  0.980072  0
C  C20  1  0.47908745  0.22150879  0.28907598  1  0  0.592508  0  3.867831  0  0  0.542572  0  4.161861  0  0  0.57256  0  4.165566  0  0  0.201526  0.52244  0  4.157915  0
C  C21  1  0.52091479  0.77849326  0.71092410  1  0  0.592426  0  3.867785  0  0  0.542474  0  4.161792  0  0  0.572459  0  4.165492  0  0  0.201487  0.52234  0  4.157847  0
C  C22  1  0.67207644  0.45948898  0.26929495  1  0  0.494529  0  3.818403  0  0  0.446676  0  4.116365  0  0  0.475127  0  4.120946  0  0  0.250872  0.427303  0  4.111673  0
C  C23  1  0.32792970  0.54051189  0.73070378  1  0  0.494574  0  3.818373  0  0  0.446671  0  4.11633  0  0  0.475122  0  4.120903  0  0  0.250864  0.427299  0  4.111637  0
C  C24  1  0.55476701  0.27915343  0.43027939  1  0  -0.49455  0  3.663407  0  0  -0.518159  0  3.939182  0  0  -0.541906  0  3.95549  0  0  -0.152343  -0.501488  0  3.926936  0
C  C25  1  0.44523234  0.72085204  0.56972279  1  0  -0.494512  0  3.663493  0  0  -0.518138  0  3.939246  0  0  -0.541876  0  3.95555  0  0  -0.152331  -0.501467  0  3.927002  0
C  C26  1  0.68873525  0.42670295  0.49246221  1  0  0.609542  0  3.862301  0  0  0.564008  0  4.150707  0  0  0.594958  0  4.151984  0  0  0.207148  0.542902  0  4.149147  0
C  C27  1  0.31126755  0.57330018  0.50753436  1  0  0.609583  0  3.862233  0  0  0.564023  0  4.150663  0  0  0.594974  0  4.151943  0  0  0.207182  0.542916  0  4.149104  0
C  C28  1  0.77508852  0.98295360  0.28214358  1  0  -0.442519  0  3.651643  0  0  -0.475844  0  3.879411  0  0  -0.487092  0  3.881424  0  0  -0.147384  -0.46738  0  3.880248  0
C  C29  1  0.22491513  0.01704846  0.71785941  1  0  -0.442481  0  3.651624  0  0  -0.475725  0  3.879473  0  0  -0.486982  0  3.881493  0  0  -0.147341  -0.467269  0  3.880294  0
C  C30  1  0.91493430  0.16881392  0.12102250  1  0  0.48359  0  3.782604  0  0  0.434228  0  4.089951  0  0  0.462895  0  4.097386  0  0  0.246131  0.413791  0  4.085495  0
C  C31  1  0.08506346  0.83118483  0.87897939  1  0  0.483595  0  3.782523  0  0  0.434234  0  4.089868  0  0  0.4629  0  4.0973  0  0  0.246135  0.4138  0  4.085405  0
C  C32  1  0.69088890  0.93504559  0.13366443  1  0  0.668623  0  3.724953  0  0  0.617937  0  4.016965  0  0  0.648851  0  4.01421  0  0  0.259103  0.595775  0  4.019714  0
C  C33  1  0.30910892  0.06495653  0.86633760  1  0  0.668613  0  3.724921  0  0  0.617782  0  4.017186  0  0  0.648695  0  4.014435  0  0  0.259057  0.595619  0  4.019934  0
C  C34  1  0.92757592  0.13653653  0.34391351  1  0  0.659544  0  3.722542  0  0  0.607998  0  4.016127  0  0  0.639032  0  4.013987  0  0  0.263163  0.586  0  4.018547  0
C  C35  1  0.07241896  0.86346564  0.65608950  1  0  0.659488  0  3.722701  0  0  0.607856  0  4.016381  0  0  0.63888  0  4.014252  0  0  0.263147  0.585892  0  4.018747  0
S  S36  1  0.73887311  0.56942845  0.17441237  1  0  -0.564177  0  1.910973  0  0  -0.547925  0  2.244549  0  0  -0.561588  0  2.236442  0  0  -0.245472  -0.532787  0  2.250027  0
S  S37  1  0.26113014  0.43057243  0.82558345  1  0  -0.564215  0  1.910963  0  0  -0.547978  0  2.244591  0  0  -0.561633  0  2.236478  0  0  -0.24549  -0.532842  0  2.250067  0
S  S38  1  0.00418005  0.26986890  0.02460576  1  0  -0.372573  0  1.945894  0  0  -0.370537  0  2.284721  0  0  -0.385536  0  2.281662  0  0  -0.167598  -0.362491  0  2.289172  0
S  S39  1  0.99581390  0.73013098  0.97539164  1  0  -0.37258  0  1.945982  0  0  -0.370518  0  2.284757  0  0  -0.385516  0  2.281699  0  0  -0.167605  -0.362475  0  2.289206  0
N  N40  1  0.54595491  0.31616360  0.21428686  1  0  -0.472766  0  3.32861  0  0  -0.405994  0  3.570852  0  0  -0.429139  0  3.574701  0  0  -0.387721  -0.389219  0  3.566978  0
N  N41  1  0.45404973  0.68383730  0.78571382  1  0  -0.472833  0  3.328596  0  0  -0.405926  0  3.570674  0  0  -0.429081  0  3.574551  0  0  -0.387726  -0.389154  0  3.566803  0
N  N42  1  0.74075190  0.50980102  0.40586328  1  0  -0.464839  0  3.316736  0  0  -0.396278  0  3.554618  0  0  -0.419958  0  3.558873  0  0  -0.383338  -0.380143  0  3.551025  0
N  N43  1  0.25925621  0.49020094  0.59413485  1  0  -0.464975  0  3.316794  0  0  -0.396428  0  3.554642  0  0  -0.420105  0  3.558892  0  0  -0.383414  -0.380292  0  3.551048  0
N  N44  1  0.77146576  0.02917642  0.06383007  1  0  -0.479011  0  3.292758  0  0  -0.414792  0  3.541006  0  0  -0.440889  0  3.545227  0  0  -0.379583  -0.396452  0  3.53817  0
N  N45  1  0.22853007  0.97082461  0.93617354  1  0  -0.478976  0  3.292632  0  0  -0.414753  0  3.540982  0  0  -0.440844  0  3.545197  0  0  -0.379605  -0.39641  0  3.538132  0
N  N46  1  0.98094624  0.21881928  0.26025271  1  0  -0.476606  0  3.29782  0  0  -0.413633  0  3.545255  0  0  -0.440461  0  3.550523  0  0  -0.375179  -0.395408  0  3.542645  0
N  N47  1  0.01905446  0.78117943  0.73974819  1  0  -0.476669  0  3.297859  0  0  -0.413606  0  3.545343  0  0  -0.440439  0  3.550619  0  0  -0.375194  -0.395393  0  3.542718  0
O  O48  1  0.35671169  0.09017173  0.22163395  1  0  -0.629848  0  1.975447  0  0  -0.563162  0  2.195656  0  0  -0.587687  0  2.188668  0  0  -0.316027  -0.544834  0  2.199273  0
O  O49  1  0.64329780  0.90982686  0.77836598  1  0  -0.62972  0  1.975371  0  0  -0.563074  0  2.195586  0  0  -0.587613  0  2.188641  0  0  -0.315976  -0.54474  0  2.199198  0
O  O50  1  0.76487267  0.49091886  0.61903184  1  0  -0.636354  0  1.953989  0  0  -0.584121  0  2.188411  0  0  -0.606546  0  2.18086  0  0  -0.383023  -0.567538  0  2.192802  0
O  O51  1  0.23513493  0.50907859  0.38096286  1  0  -0.636318  0  1.953876  0  0  -0.584096  0  2.188287  0  0  -0.606519  0  2.180743  0  0  -0.382975  -0.56751  0  2.192682  0
O  O52  1  0.00412353  0.18846481  0.46716717  1  0  -0.535343  0  1.956125  0  0  -0.477872  0  2.167103  0  0  -0.49969  0  2.159948  0  0  -0.257851  -0.46419  0  2.172818  0
O  O53  1  0.99585664  0.81153418  0.53283766  1  0  -0.53535  0  1.956207  0  0  -0.477837  0  2.167212  0  0  -0.499615  0  2.160031  0  0  -0.25783  -0.464163  0  2.172905  0
O  O54  1  0.55634263  0.81336404  0.07411074  1  0  -0.554967  0  1.994009  0  0  -0.505895  0  2.230918  0  0  -0.526771  0  2.224302  0  0  -0.323781  -0.49284  0  2.237429  0
O  O55  1  0.44365423  0.18663922  0.92589166  1  0  -0.554895  0  1.994076  0  0  -0.505772  0  2.231058  0  0  -0.526653  0  2.224452  0  0  -0.323718  -0.49272  0  2.23757  0
O  O56  1  0.29413842  0.89301858  0.35687163  1  0  -0.877968  0  1.808668  0  0  -0.831233  0  1.980288  0  0  -0.848701  0  1.949744  0  0  -0.68008  -0.81855  0  2.001619  0
O  O57  1  0.70585741  0.10697565  0.64312390  1  0  -0.877881  0  1.808735  0  0  -0.831181  0  1.980315  0  0  -0.848649  0  1.949776  0  0  -0.680059  -0.818491  0  2.001655  0
