# generated using pymatgen
data_CdH8C9O8
_symmetry_space_group_name_H-M   'P 1'
_cell_length_a   5.66796402
_cell_length_b   9.84042879
_cell_length_c   19.76643253
_cell_angle_alpha   89.99994925
_cell_angle_beta   89.99951754
_cell_angle_gamma   88.99031365
_symmetry_Int_Tables_number   1
_chemical_formula_structural   CdH8C9O8
_chemical_formula_sum   'Cd4 H32 C36 O32'
_cell_volume   1102.30547398
_cell_formula_units_Z   4
loop_
 _symmetry_equiv_pos_site_id
 _symmetry_equiv_pos_as_xyz
  1  'x, y, z'
loop_
 _atom_site_type_symbol
 _atom_site_label
 _atom_site_symmetry_multiplicity
 _atom_site_fract_x
 _atom_site_fract_y
 _atom_site_fract_z
 _atom_site_occupancy
 _atom_site_hle17_bader_spin_density
 _atom_site_hle17_ddec_charge
 _atom_site_hle17_ddec_spin_density
 _atom_site_hle17_ddec_sum_bond_order
 _atom_site_hle17_magmom
 _atom_site_hse06_10hf_bader_spin_density
 _atom_site_hse06_10hf_ddec_charge
 _atom_site_hse06_10hf_ddec_spin_density
 _atom_site_hse06_10hf_ddec_sum_bond_order
 _atom_site_hse06_10hf_magmom
 _atom_site_hse06_bader_spin_density
 _atom_site_hse06_ddec_charge
 _atom_site_hse06_ddec_spin_density
 _atom_site_hse06_ddec_sum_bond_order
 _atom_site_hse06_magmom
 _atom_site_pbe_bader_spin_density
 _atom_site_pbe_cm5_charge
 _atom_site_pbe_ddec_charge
 _atom_site_pbe_ddec_spin_density
 _atom_site_pbe_ddec_sum_bond_order
 _atom_site_pbe_magmom
Cd  Cd0  1  0.25877552  0.76402682  0.29403289  1  0  1.234595  0  1.519499  0  0  1.063382  0  1.944394  0  0  1.123342  0  1.884806  0  0  0.759602  1.020699  0  1.985082  0
Cd  Cd1  1  0.24123278  0.73596160  0.79403108  1  0  1.234598  0  1.519534  0  0  1.063377  0  1.944448  0  0  1.123331  0  1.884858  0  0  0.759591  1.020695  0  1.98514  0
Cd  Cd2  1  0.74121912  0.23597486  0.70596457  1  0  1.234607  0  1.519516  0  0  1.063404  0  1.944406  0  0  1.123362  0  1.88482  0  0  0.759588  1.02072  0  1.985094  0
Cd  Cd3  1  0.75876535  0.26402987  0.20596840  1  0  1.234587  0  1.51953  0  0  1.063375  0  1.944427  0  0  1.123324  0  1.884842  0  0  0.759573  1.020691  0  1.985115  0
H  H4  1  0.80212232  0.86800646  0.13208795  1  0  0.125716  0  0.928742  0  0  0.135207  0  0.986784  0  0  0.139032  0  0.983973  0  0  0.115093  0.132285  0  0.989126  0
H  H5  1  0.69791271  0.63198728  0.63208679  1  0  0.125826  0  0.928649  0  0  0.135284  0  0.986702  0  0  0.139113  0  0.983882  0  0  0.115119  0.132337  0  0.98907  0
H  H6  1  0.19787759  0.13198906  0.86791254  1  0  0.125683  0  0.928716  0  0  0.135155  0  0.986785  0  0  0.138982  0  0.983968  0  0  0.115055  0.132235  0  0.989124  0
H  H7  1  0.30209078  0.36802446  0.36791573  1  0  0.125832  0  0.928656  0  0  0.135254  0  0.986775  0  0  0.13912  0  0.983904  0  0  0.115107  0.13231  0  0.989141  0
H  H8  1  0.04142787  0.86673790  0.02731683  1  0  0.109682  0  0.918227  0  0  0.122665  0  0.971509  0  0  0.126044  0  0.969996  0  0  0.115552  0.120242  0  0.972627  0
H  H9  1  0.45859332  0.63325607  0.52732058  1  0  0.109733  0  0.918204  0  0  0.122713  0  0.971484  0  0  0.126095  0  0.96997  0  0  0.11557  0.120285  0  0.972602  0
H  H10  1  0.95856853  0.13326172  0.97268366  1  0  0.109744  0  0.918166  0  0  0.122712  0  0.971469  0  0  0.126093  0  0.969953  0  0  0.115537  0.120286  0  0.972589  0
H  H11  1  0.54139605  0.36675075  0.47268143  1  0  0.109701  0  0.918288  0  0  0.122692  0  0.971562  0  0  0.126065  0  0.970052  0  0  0.115574  0.120266  0  0.972677  0
H  H12  1  0.78265017  0.82570760  0.30979380  1  0  0.415345  0  0.897036  0  0  0.381841  0  0.966758  0  0  0.391959  0  0.952226  0  0  0.288493  0.374738  0  0.976938  0
H  H13  1  0.71736038  0.67427889  0.80979156  1  0  0.41545  0  0.896898  0  0  0.381895  0  0.966723  0  0  0.392018  0  0.952179  0  0  0.288471  0.374791  0  0.976905  0
H  H14  1  0.21734622  0.17428898  0.69020720  1  0  0.415373  0  0.896993  0  0  0.381864  0  0.966725  0  0  0.391984  0  0.952188  0  0  0.288497  0.374761  0  0.976906  0
H  H15  1  0.28264482  0.32571251  0.19020792  1  0  0.41537  0  0.896996  0  0  0.38187  0  0.966712  0  0  0.391988  0  0.952179  0  0  0.288506  0.374764  0  0.976894  0
H  H16  1  0.89902044  0.95969064  0.28121285  1  0  0.422508  0  0.877216  0  0  0.391668  0  0.941834  0  0  0.401667  0  0.927574  0  0  0.294221  0.384771  0  0.951649  0
H  H17  1  0.60098210  0.54029600  0.78121500  1  0  0.42236  0  0.877422  0  0  0.391531  0  0.942015  0  0  0.401533  0  0.927753  0  0  0.29415  0.384635  0  0.95183  0
H  H18  1  0.10096714  0.04031111  0.71879118  1  0  0.422484  0  0.877218  0  0  0.391638  0  0.941863  0  0  0.401643  0  0.927594  0  0  0.294225  0.38474  0  0.951681  0
H  H19  1  0.39902134  0.45969745  0.21878701  1  0  0.422466  0  0.877283  0  0  0.391629  0  0.94188  0  0  0.401634  0  0.927611  0  0  0.29422  0.384733  0  0.951693  0
H  H20  1  0.49078353  0.01365258  0.32918878  1  0  0.436407  0  0.859922  0  0  0.402842  0  0.927364  0  0  0.412601  0  0.913289  0  0  0.305135  0.396052  0  0.937154  0
H  H21  1  0.00922470  0.48633722  0.82918545  1  0  0.436434  0  0.85989  0  0  0.402868  0  0.927328  0  0  0.41263  0  0.913248  0  0  0.305153  0.396075  0  0.937124  0
H  H22  1  0.50920405  0.98635020  0.67081221  1  0  0.436395  0  0.859958  0  0  0.402812  0  0.92742  0  0  0.41259  0  0.913317  0  0  0.305118  0.396024  0  0.937206  0
H  H23  1  0.99078755  0.51365308  0.17081302  1  0  0.436365  0  0.86001  0  0  0.402787  0  0.927471  0  0  0.412557  0  0.913379  0  0  0.305106  0.39599  0  0.937271  0
H  H24  1  0.24825281  0.05393203  0.29117463  1  0  0.423735  0  0.885399  0  0  0.389406  0  0.953396  0  0  0.400857  0  0.937229  0  0  0.290754  0.381365  0  0.964725  0
H  H25  1  0.25174767  0.44605794  0.79117071  1  0  0.42373  0  0.885396  0  0  0.389439  0  0.953323  0  0  0.400891  0  0.937157  0  0  0.290762  0.381402  0  0.964645  0
H  H26  1  0.75173123  0.94606773  0.70882586  1  0  0.423712  0  0.885434  0  0  0.389408  0  0.953387  0  0  0.400863  0  0.937216  0  0  0.290749  0.381368  0  0.964716  0
H  H27  1  0.74826106  0.55393444  0.20882624  1  0  0.423704  0  0.885444  0  0  0.389413  0  0.953374  0  0  0.400864  0  0.937208  0  0  0.290756  0.381371  0  0.964706  0
H  H28  1  0.99280413  0.53368858  0.29204632  1  0  0.430731  0  0.867075  0  0  0.400977  0  0.928002  0  0  0.411759  0  0.912507  0  0  0.29122  0.393343  0  0.93894  0
H  H29  1  0.50718402  0.96631039  0.79204502  1  0  0.430731  0  0.867065  0  0  0.400948  0  0.928035  0  0  0.411727  0  0.912543  0  0  0.291206  0.393317  0  0.938969  0
H  H30  1  0.00719580  0.46630999  0.70795114  1  0  0.430815  0  0.866957  0  0  0.401003  0  0.927979  0  0  0.411784  0  0.912484  0  0  0.291232  0.393371  0  0.938914  0
H  H31  1  0.49280177  0.03368427  0.20795243  1  0  0.430726  0  0.867074  0  0  0.400962  0  0.928018  0  0  0.411745  0  0.912521  0  0  0.291224  0.393328  0  0.938955  0
H  H32  1  0.90261950  0.61842501  0.35467330  1  0  0.433345  0  0.841631  0  0  0.405888  0  0.90471  0  0  0.416862  0  0.88883  0  0  0.300379  0.398005  0  0.9161  0
H  H33  1  0.59737217  0.88157479  0.85467281  1  0  0.433241  0  0.841793  0  0  0.405861  0  0.904726  0  0  0.416835  0  0.888846  0  0  0.300386  0.398002  0  0.91609  0
H  H34  1  0.09737336  0.38157363  0.64532264  1  0  0.433227  0  0.841753  0  0  0.405833  0  0.90475  0  0  0.416808  0  0.88887  0  0  0.300368  0.397973  0  0.916115  0
H  H35  1  0.40262070  0.11842487  0.14532667  1  0  0.433295  0  0.841648  0  0  0.405869  0  0.904715  0  0  0.416843  0  0.888836  0  0  0.300376  0.397998  0  0.916094  0
C  C36  1  0.58259544  0.70235040  0.10049631  1  0  -0.038445  0  3.666978  0  0  -0.026154  0  3.909407  0  0  -0.029721  0  3.927265  0  0  0.007931  -0.02405  0  3.897602  0
C  C37  1  0.91741933  0.79765075  0.60050011  1  0  -0.038545  0  3.666996  0  0  -0.026242  0  3.909445  0  0  -0.029812  0  3.927296  0  0  0.007931  -0.024133  0  3.897632  0
C  C38  1  0.41740800  0.29764406  0.89950368  1  0  -0.038519  0  3.667071  0  0  -0.026188  0  3.909522  0  0  -0.029755  0  3.927379  0  0  0.007939  -0.024082  0  3.897721  0
C  C39  1  0.08258944  0.20235687  0.39950493  1  0  -0.038478  0  3.666971  0  0  -0.026123  0  3.909322  0  0  -0.029693  0  3.927201  0  0  0.007985  -0.024019  0  3.897512  0
C  C40  1  0.76556848  0.79496847  0.09222143  1  0  -0.029711  0  3.64786  0  0  -0.057324  0  3.904768  0  0  -0.056227  0  3.920653  0  0  -0.060901  -0.058011  0  3.894179  0
C  C41  1  0.73445534  0.70503056  0.59222572  1  0  -0.02984  0  3.647561  0  0  -0.057385  0  3.904385  0  0  -0.056285  0  3.920263  0  0  -0.06093  -0.058063  0  3.893807  0
C  C42  1  0.23444025  0.20502593  0.90777754  1  0  -0.029538  0  3.647753  0  0  -0.057094  0  3.904583  0  0  -0.055994  0  3.920467  0  0  -0.0608  -0.057783  0  3.893994  0
C  C43  1  0.26555522  0.29498313  0.40777578  1  0  -0.029747  0  3.647698  0  0  -0.057334  0  3.904565  0  0  -0.056263  0  3.920429  0  0  -0.060888  -0.058006  0  3.893984  0
C  C44  1  0.89942497  0.79420660  0.03321213  1  0  -0.044557  0  3.671704  0  0  -0.072569  0  3.930225  0  0  -0.07358  0  3.947926  0  0  -0.064603  -0.07188  0  3.91822  0
C  C45  1  0.60059877  0.70579053  0.53321119  1  0  -0.044786  0  3.671519  0  0  -0.07281  0  3.930045  0  0  -0.073824  0  3.947745  0  0  -0.064702  -0.072116  0  3.918034  0
C  C46  1  0.10057497  0.20579603  0.96678887  1  0  -0.044779  0  3.67164  0  0  -0.072797  0  3.930153  0  0  -0.073812  0  3.947857  0  0  -0.064611  -0.072105  0  3.918143  0
C  C47  1  0.39940472  0.29422019  0.46678576  1  0  -0.044794  0  3.671861  0  0  -0.072754  0  3.930384  0  0  -0.073763  0  3.94809  0  0  -0.06468  -0.072044  0  3.918385  0
C  C48  1  0.85544359  0.70088723  0.98144755  1  0  -0.024955  0  3.658405  0  0  -0.015274  0  3.904281  0  0  -0.017969  0  3.922233  0  0  0.008531  -0.013712  0  3.89241  0
C  C49  1  0.64456389  0.79911516  0.48144710  1  0  -0.024549  0  3.65818  0  0  -0.014907  0  3.90411  0  0  -0.0176  0  3.922066  0  0  0.008595  -0.013349  0  3.892235  0
C  C50  1  0.14455636  0.29911845  0.01855396  1  0  -0.024948  0  3.658479  0  0  -0.015268  0  3.904357  0  0  -0.01796  0  3.922302  0  0  0.008437  -0.013708  0  3.89248  0
C  C51  1  0.35544311  0.20089045  0.51854631  1  0  -0.024397  0  3.65779  0  0  -0.014879  0  3.903851  0  0  -0.017563  0  3.921778  0  0  0.00854  -0.013372  0  3.892051  0
C  C52  1  0.68213456  0.60204595  0.99112074  1  0  -0.039965  0  3.698979  0  0  -0.042391  0  3.943349  0  0  -0.046603  0  3.963229  0  0  -0.001245  -0.039686  0  3.930242  0
C  C53  1  0.81785325  0.89796070  0.49112236  1  0  -0.040065  0  3.698905  0  0  -0.042501  0  3.943264  0  0  -0.046717  0  3.963142  0  0  -0.00125  -0.039795  0  3.930153  0
C  C54  1  0.31786008  0.39795573  0.00888076  1  0  -0.039836  0  3.698992  0  0  -0.042274  0  3.943322  0  0  -0.04649  0  3.963189  0  0  -0.001176  -0.039567  0  3.930212  0
C  C55  1  0.18213261  0.10205428  0.50887560  1  0  -0.040144  0  3.698837  0  0  -0.04251  0  3.943105  0  0  -0.046714  0  3.962957  0  0  -0.001268  -0.03979  0  3.930008  0
C  C56  1  0.54237902  0.60459511  0.05022782  1  0  -0.040937  0  3.707429  0  0  -0.044492  0  3.951775  0  0  -0.047721  0  3.971398  0  0  -0.001203  -0.042405  0  3.938836  0
C  C57  1  0.95762307  0.89540731  0.55023048  1  0  -0.040834  0  3.706989  0  0  -0.044415  0  3.95137  0  0  -0.047625  0  3.970967  0  0  -0.00121  -0.042334  0  3.93843  0
C  C58  1  0.45761737  0.39540248  0.94977116  1  0  -0.041068  0  3.706953  0  0  -0.044708  0  3.951529  0  0  -0.047934  0  3.971158  0  0  -0.00129  -0.042623  0  3.93859  0
C  C59  1  0.04236454  0.10460359  0.44977103  1  0  -0.040942  0  3.70742  0  0  -0.044527  0  3.951798  0  0  -0.047762  0  3.971441  0  0  -0.001253  -0.042443  0  3.938856  0
C  C60  1  0.65141524  0.49236934  0.94139407  1  0  0.418691  0  3.70202  0  0  0.392294  0  3.969818  0  0  0.417557  0  3.968193  0  0  0.171241  0.374857  0  3.971098  0
C  C61  1  0.84859252  0.00762647  0.44139726  1  0  0.418342  0  3.7024  0  0  0.392003  0  3.970042  0  0  0.417267  0  3.968424  0  0  0.171141  0.37457  0  3.971313  0
C  C62  1  0.34859174  0.50762712  0.05860237  1  0  0.418408  0  3.70252  0  0  0.392151  0  3.970005  0  0  0.41745  0  3.968349  0  0  0.171188  0.374712  0  3.971283  0
C  C63  1  0.15141624  0.99237810  0.55860323  1  0  0.418525  0  3.702393  0  0  0.392253  0  3.96983  0  0  0.417561  0  3.96818  0  0  0.171251  0.374817  0  3.971099  0
C  C64  1  0.44077408  0.71286010  0.16460365  1  0  0.657662  0  3.915704  0  0  0.596123  0  4.225288  0  0  0.631509  0  4.216406  0  0  0.208819  0.572157  0  4.230494  0
C  C65  1  0.05924497  0.78713459  0.66460379  1  0  0.657979  0  3.915811  0  0  0.596282  0  4.225621  0  0  0.631671  0  4.216719  0  0  0.208773  0.572315  0  4.230821  0
C  C66  1  0.55924171  0.28713422  0.83539836  1  0  0.657837  0  3.915558  0  0  0.596258  0  4.225223  0  0  0.631642  0  4.216343  0  0  0.208832  0.572287  0  4.230431  0
C  C67  1  0.94074438  0.21287020  0.33539518  1  0  0.657948  0  3.915734  0  0  0.59639  0  4.225305  0  0  0.631758  0  4.216437  0  0  0.208888  0.572426  0  4.230508  0
C  C68  1  0.99272879  0.71495343  0.91682671  1  0  0.657601  0  3.931632  0  0  0.60019  0  4.237506  0  0  0.635751  0  4.228292  0  0  0.203568  0.57594  0  4.242802  0
C  C69  1  0.50727343  0.78503595  0.41683116  1  0  0.657498  0  3.931705  0  0  0.600049  0  4.237638  0  0  0.635609  0  4.228426  0  0  0.203608  0.575799  0  4.242932  0
C  C70  1  0.00727819  0.28504303  0.08317429  1  0  0.657696  0  3.931544  0  0  0.600281  0  4.237409  0  0  0.635847  0  4.228188  0  0  0.203641  0.576028  0  4.242708  0
C  C71  1  0.49271590  0.21496172  0.58317085  1  0  0.657422  0  3.930941  0  0  0.599948  0  4.236971  0  0  0.635519  0  4.227738  0  0  0.203593  0.57571  0  4.242263  0
O  O72  1  0.49871632  0.63314295  0.21466978  1  0  -0.683755  0  2.047036  0  0  -0.602156  0  2.274191  0  0  -0.633242  0  2.262087  0  0  -0.321288  -0.580343  0  2.281837  0
O  O73  1  0.00128720  0.86685383  0.71467106  1  0  -0.683977  0  2.046745  0  0  -0.602268  0  2.273888  0  0  -0.633341  0  2.261764  0  0  -0.321327  -0.580459  0  2.281532  0
O  O74  1  0.50129768  0.36684428  0.78533021  1  0  -0.683821  0  2.046963  0  0  -0.602206  0  2.274129  0  0  -0.633301  0  2.262038  0  0  -0.321279  -0.580384  0  2.281766  0
O  O75  1  0.99871802  0.13314468  0.28533146  1  0  -0.683986  0  2.046899  0  0  -0.602316  0  2.273991  0  0  -0.633367  0  2.261863  0  0  -0.321358  -0.580508  0  2.281638  0
O  O76  1  0.28846321  0.80542937  0.17084622  1  0  -0.57716  0  1.935168  0  0  -0.520409  0  2.16375  0  0  -0.549315  0  2.156504  0  0  -0.298405  -0.49999  0  2.167812  0
O  O77  1  0.21154159  0.69458071  0.67084906  1  0  -0.577186  0  1.935581  0  0  -0.520375  0  2.164215  0  0  -0.549276  0  2.156959  0  0  -0.298315  -0.499963  0  2.168275  0
O  O78  1  0.71154907  0.19456906  0.82915680  1  0  -0.57722  0  1.935073  0  0  -0.52048  0  2.163722  0  0  -0.549376  0  2.156462  0  0  -0.298448  -0.500062  0  2.167785  0
O  O79  1  0.78845484  0.30543212  0.32915245  1  0  -0.577212  0  1.935546  0  0  -0.520474  0  2.164154  0  0  -0.549379  0  2.156918  0  0  -0.298388  -0.500065  0  2.168218  0
O  O80  1  0.88485604  0.76905289  0.86567547  1  0  -0.686517  0  2.000249  0  0  -0.61152  0  2.22386  0  0  -0.641812  0  2.211899  0  0  -0.323846  -0.590067  0  2.231483  0
O  O81  1  0.61514238  0.73094783  0.36567613  1  0  -0.686568  0  2.000314  0  0  -0.611512  0  2.223893  0  0  -0.641805  0  2.211935  0  0  -0.323898  -0.590061  0  2.231503  0
O  O82  1  0.11514742  0.23094971  0.13432654  1  0  -0.686532  0  2.000392  0  0  -0.611531  0  2.223979  0  0  -0.641823  0  2.212015  0  0  -0.323869  -0.590073  0  2.231597  0
O  O83  1  0.38484345  0.26905598  0.63432284  1  0  -0.686505  0  2.000422  0  0  -0.611458  0  2.224014  0  0  -0.641742  0  2.21204  0  0  -0.323855  -0.590012  0  2.231633  0
O  O84  1  0.20803646  0.68190353  0.91594235  1  0  -0.613243  0  1.956272  0  0  -0.560273  0  2.193399  0  0  -0.59111  0  2.188176  0  0  -0.310471  -0.538277  0  2.195979  0
O  O85  1  0.29197193  0.81809375  0.41594862  1  0  -0.613149  0  1.956359  0  0  -0.560173  0  2.193501  0  0  -0.591008  0  2.188275  0  0  -0.310436  -0.538176  0  2.196077  0
O  O86  1  0.79196347  0.31809808  0.08405814  1  0  -0.613247  0  1.956148  0  0  -0.560259  0  2.193245  0  0  -0.5911  0  2.18802  0  0  -0.310441  -0.538262  0  2.195824  0
O  O87  1  0.70805447  0.18190961  0.58405390  1  0  -0.613321  0  1.955768  0  0  -0.560315  0  2.192936  0  0  -0.591155  0  2.187706  0  0  -0.31055  -0.538315  0  2.195502  0
O  O88  1  0.79219105  0.47748323  0.89345353  1  0  -0.490654  0  2.057813  0  0  -0.429787  0  2.27132  0  0  -0.450364  0  2.268633  0  0  -0.239884  -0.41616  0  2.273487  0
O  O89  1  0.70781451  0.02250254  0.39344846  1  0  -0.490488  0  2.057523  0  0  -0.429646  0  2.270973  0  0  -0.45022  0  2.268286  0  0  -0.239848  -0.416033  0  2.273142  0
O  O90  1  0.20782473  0.52250703  0.10655050  1  0  -0.490584  0  2.057728  0  0  -0.429767  0  2.271165  0  0  -0.450385  0  2.268475  0  0  -0.239868  -0.416132  0  2.273329  0
O  O91  1  0.29218366  0.97750112  0.60654950  1  0  -0.490693  0  2.057896  0  0  -0.429805  0  2.271231  0  0  -0.450494  0  2.268616  0  0  -0.239881  -0.416191  0  2.273397  0
O  O92  1  0.88837831  0.86064057  0.27402342  1  0  -0.821732  0  1.869496  0  0  -0.759877  0  2.061908  0  0  -0.783327  0  2.030362  0  0  -0.587777  -0.743485  0  2.083508  0
O  O93  1  0.61162972  0.63934704  0.77402298  1  0  -0.821713  0  1.869599  0  0  -0.75983  0  2.062026  0  0  -0.783276  0  2.030469  0  0  -0.587661  -0.743421  0  2.083618  0
O  O94  1  0.11161809  0.13936007  0.72597960  1  0  -0.821715  0  1.869433  0  0  -0.759863  0  2.061858  0  0  -0.783306  0  2.030301  0  0  -0.587782  -0.743468  0  2.083458  0
O  O95  1  0.38837195  0.36064541  0.22597752  1  0  -0.821715  0  1.869564  0  0  -0.759856  0  2.061974  0  0  -0.783306  0  2.030424  0  0  -0.587768  -0.743452  0  2.083568  0
O  O96  1  0.39440454  0.99355557  0.28904493  1  0  -0.853102  0  1.924126  0  0  -0.781742  0  2.117631  0  0  -0.805897  0  2.084645  0  0  -0.571229  -0.764648  0  2.140258  0
O  O97  1  0.10559685  0.50643598  0.78904252  1  0  -0.853169  0  1.924215  0  0  -0.781779  0  2.11769  0  0  -0.805923  0  2.084697  0  0  -0.571248  -0.76469  0  2.140323  0
O  O98  1  0.60558304  0.00644517  0.71095455  1  0  -0.853054  0  1.924266  0  0  -0.781705  0  2.117776  0  0  -0.805853  0  2.084752  0  0  -0.571205  -0.764614  0  2.140404  0
O  O99  1  0.89441541  0.49355737  0.21095594  1  0  -0.853034  0  1.92427  0  0  -0.781672  0  2.117717  0  0  -0.80582  0  2.084714  0  0  -0.571204  -0.764581  0  2.140357  0
O  O100  1  0.04780363  0.58210536  0.33324005  1  0  -0.821174  0  1.851098  0  0  -0.758476  0  2.038212  0  0  -0.782036  0  2.003925  0  0  -0.579643  -0.741677  0  2.06178  0
O  O101  1  0.45218946  0.91789025  0.83323766  1  0  -0.82106  0  1.851183  0  0  -0.7584  0  2.038315  0  0  -0.781964  0  2.004035  0  0  -0.579646  -0.741636  0  2.061818  0
O  O102  1  0.95218923  0.41789125  0.66675943  1  0  -0.821094  0  1.851106  0  0  -0.758398  0  2.038284  0  0  -0.78197  0  2.004016  0  0  -0.579613  -0.741629  0  2.061784  0
O  O103  1  0.54780515  0.08210330  0.16675980  1  0  -0.821105  0  1.851079  0  0  -0.758448  0  2.038265  0  0  -0.782  0  2.003961  0  0  -0.579656  -0.741675  0  2.061797  0
