# generated using pymatgen
data_ZnH11C17N2O5
_symmetry_space_group_name_H-M   'P 1'
_cell_length_a   7.99391463
_cell_length_b   10.94656113
_cell_length_c   24.86361845
_cell_angle_alpha   89.99930970
_cell_angle_beta   89.99987922
_cell_angle_gamma   111.34509275
_symmetry_Int_Tables_number   1
_chemical_formula_structural   ZnH11C17N2O5
_chemical_formula_sum   'Zn4 H44 C68 N8 O20'
_cell_volume   2026.46979716
_cell_formula_units_Z   4
loop_
 _symmetry_equiv_pos_site_id
 _symmetry_equiv_pos_as_xyz
  1  'x, y, z'
loop_
 _atom_site_type_symbol
 _atom_site_label
 _atom_site_symmetry_multiplicity
 _atom_site_fract_x
 _atom_site_fract_y
 _atom_site_fract_z
 _atom_site_occupancy
 _atom_site_pbe_bader_charge
 _atom_site_pbe_bader_spin_density
 _atom_site_pbe_cm5_charge
 _atom_site_pbe_ddec_charge
 _atom_site_pbe_ddec_spin_density
 _atom_site_pbe_ddec_sum_bond_order
 _atom_site_pbe_magmom
Zn  Zn0  1  0.36262969  0.78246981  0.52950641  1  1.303093  0  0.676763  0.839228  0  2.389373  0
Zn  Zn1  1  0.63736539  0.21752446  0.02950215  1  1.303055  0  0.676767  0.839292  0  2.389303  0
Zn  Zn2  1  0.61345897  0.69623353  0.46818402  1  1.301814  0  0.677352  0.839914  0  2.392935  0
Zn  Zn3  1  0.38654146  0.30376464  0.96818236  1  1.301834  0  0.677336  0.839919  0  2.392926  0
H  H4  1  0.28454234  0.30864744  0.45324003  1  0.110632  0  0.106044  0.115762  0  0.994063  0
H  H5  1  0.71545022  0.69134732  0.95323770  1  0.110781  0  0.106009  0.115697  0  0.994027  0
H  H6  1  0.90095595  0.40611264  0.54764658  1  0.079426  0  0.101943  0.105085  0  1.020311  0
H  H7  1  0.09903969  0.59388299  0.04764432  1  0.07979  0  0.101938  0.105075  0  1.020288  0
H  H8  1  0.69172746  0.17016149  0.54509254  1  0.100063  0  0.105661  0.114618  0  0.994803  0
H  H9  1  0.30826192  0.82983913  0.04509049  1  0.100219  0  0.105604  0.114526  0  0.994987  0
H  H10  1  0.52160798  0.59166887  0.36018356  1  0.157777  0  0.121017  0.103774  0  1.0286  0
H  H11  1  0.47840278  0.40834862  0.86018289  1  0.15794  0  0.120981  0.103731  0  1.028667  0
H  H12  1  0.65374629  0.50206119  0.28660154  1  0.068144  0  0.106939  0.117642  0  1.018385  0
H  H13  1  0.34625796  0.49795486  0.78660008  1  0.06808  0  0.106953  0.117664  0  1.018363  0
H  H14  1  0.09105210  0.41072217  0.09958736  1  0.1249  0  0.110396  0.119969  0  1.013597  0
H  H15  1  0.90895424  0.58928054  0.59958905  1  0.124955  0  0.110381  0.119972  0  1.013663  0
H  H16  1  0.98284537  0.46725598  0.18537008  1  0.043768  0  0.104824  0.098597  0  1.004589  0
H  H17  1  0.01715342  0.53274777  0.68537429  1  0.043783  0  0.104842  0.098641  0  1.004593  0
H  H18  1  0.37011730  0.35220685  0.27179164  1  0.095994  0  0.104173  0.10444  0  1.018086  0
H  H19  1  0.62989539  0.64782342  0.77179201  1  0.096027  0  0.104165  0.104432  0  1.018294  0
H  H20  1  0.48332914  0.29941085  0.18313731  1  0.095298  0  0.103142  0.10587  0  1.011788  0
H  H21  1  0.51669366  0.70061848  0.68313546  1  0.09547  0  0.103139  0.105853  0  1.011823  0
H  H22  1  0.89856904  0.96623693  0.60304251  1  0.158827  0  0.115345  0.143063  0  1.024078  0
H  H23  1  0.10143858  0.03375586  0.10304200  1  0.158799  0  0.115299  0.143012  0  1.024134  0
H  H24  1  0.02390707  0.03947829  0.81159978  1  0.054157  0  0.104485  0.097874  0  1.004356  0
H  H25  1  0.97608656  0.96051926  0.31160382  1  0.054079  0  0.104506  0.097903  0  1.004298  0
H  H26  1  0.92764799  0.10665397  0.89718780  1  0.133204  0  0.110495  0.120431  0  1.011644  0
H  H27  1  0.07233919  0.89333678  0.39719201  1  0.133028  0  0.110493  0.120475  0  1.011722  0
H  H28  1  0.52682885  0.21066923  0.81485089  1  0.092076  0  0.103791  0.107625  0  1.011012  0
H  H29  1  0.47317089  0.78933312  0.31485739  1  0.092344  0  0.103763  0.107656  0  1.0109  0
H  H30  1  0.62678376  0.14618764  0.72638442  1  0.103309  0  0.103595  0.103488  0  1.017759  0
H  H31  1  0.37322179  0.85381768  0.22639024  1  0.103451  0  0.103504  0.103386  0  1.017711  0
H  H32  1  0.34053816  0.99279776  0.70889689  1  0.053445  0  0.107449  0.118602  0  1.015789  0
H  H33  1  0.65946688  0.00720128  0.20889373  1  0.053509  0  0.107373  0.118536  0  1.015745  0
H  H34  1  0.03754183  0.86603218  0.53466484  1  0.144903  0  0.124746  0.106124  0  0.994861  0
H  H35  1  0.96246875  0.13395310  0.03466040  1  0.14457  0  0.124684  0.10604  0  0.994938  0
H  H36  1  0.93694331  0.61112722  0.46432348  1  0.160117  0  0.124739  0.106046  0  0.996226  0
H  H37  1  0.06304683  0.38886030  0.96432279  1  0.16002  0  0.124739  0.106054  0  0.99612  0
H  H38  1  0.08329128  0.51742296  0.39556894  1  0.126915  0  0.115834  0.143963  0  1.024476  0
H  H39  1  0.91669572  0.48256490  0.89556717  1  0.126978  0  0.115852  0.143899  0  1.024521  0
H  H40  1  0.07526177  0.07267961  0.45069806  1  0.09096  0  0.101709  0.104756  0  1.019937  0
H  H41  1  0.92472357  0.92731817  0.95069715  1  0.091236  0  0.101698  0.104731  0  1.019995  0
H  H42  1  0.46399423  0.89537910  0.63590652  1  0.158967  0  0.120984  0.10339  0  1.022978  0
H  H43  1  0.53601584  0.10461650  0.13590253  1  0.158901  0  0.120992  0.103425  0  1.02297  0
H  H44  1  0.87865583  0.43543463  0.25848305  1  0.452079  0  0.320461  0.26994  0  0.946957  0
H  H45  1  0.12133821  0.56457058  0.75848179  1  0.451986  0  0.320445  0.269948  0  0.946965  0
H  H46  1  0.11892632  0.06358375  0.73727221  1  0.434206  0  0.320831  0.270333  0  0.946818  0
H  H47  1  0.88107465  0.93640746  0.23727242  1  0.434328  0  0.320843  0.270351  0  0.946795  0
C  C48  1  0.74448993  0.96870841  0.49594551  1  1.535232  0  0.211826  0.58314  0  4.185451  0
C  C49  1  0.25549032  0.03128981  0.99594457  1  1.535349  0  0.211841  0.583197  0  4.184999  0
C  C50  1  0.87126732  0.10850402  0.49752394  1  -0.005125  0  -0.018428  -0.035062  0  3.97679  0
C  C51  1  0.12873014  0.89149611  0.99751853  1  -0.004935  0  -0.018286  -0.034944  0  3.977059  0
C  C52  1  0.15437936  0.27683841  0.47319100  1  -0.059214  0  -0.0849  -0.092393  0  3.971076  0
C  C53  1  0.84561720  0.72315960  0.97318881  1  -0.059923  0  -0.084849  -0.092207  0  3.970961  0
C  C54  1  0.10498213  0.37037453  0.50074991  1  -0.018834  0  -0.017443  -0.033238  0  3.97476  0
C  C55  1  0.89501666  0.62961679  0.00074329  1  -0.017793  0  -0.017498  -0.033479  0  3.975061  0
C  C56  1  0.23182527  0.51017346  0.50216442  1  1.551234  0  0.212912  0.584733  0  4.183517  0
C  C57  1  0.76819171  0.48982174  0.00216064  1  1.551042  0  0.212736  0.584596  0  4.183348  0
C  C58  1  0.93799359  0.33229876  0.52664700  1  -0.041712  0  -0.087274  -0.101215  0  3.986651  0
C  C59  1  0.06200329  0.66769659  0.02664357  1  -0.042724  0  -0.087162  -0.101027  0  3.986471  0
C  C60  1  0.82189107  0.20200190  0.52512227  1  -0.021876  0  -0.083937  -0.089742  0  3.968648  0
C  C61  1  0.17810329  0.79799840  0.02511887  1  -0.021988  0  -0.083927  -0.089703  0  3.968699  0
C  C62  1  0.64706758  0.57568881  0.36604071  1  0.452128  0  0.048357  0.109917  0  3.94559  0
C  C63  1  0.35293760  0.42432261  0.86604044  1  0.452076  0  0.048437  0.10997  0  3.945616  0
C  C64  1  0.72064968  0.52467433  0.32557004  1  0.0199  0  -0.098146  -0.252063  0  3.977611  0
C  C65  1  0.27934753  0.47533059  0.82556875  1  0.019764  0  -0.098214  -0.252105  0  3.977626  0
C  C66  1  0.88215054  0.50467914  0.33498098  1  0.307567  0  0.118811  0.293735  0  4.031523  0
C  C67  1  0.11784031  0.49531566  0.83497888  1  0.308254  0  0.118746  0.293601  0  4.03156  0
C  C68  1  0.12267492  0.44940014  0.28887305  1  1.402626  0  0.243892  0.476403  0  4.121536  0
C  C69  1  0.87732059  0.55061092  0.78887658  1  1.402665  0  0.243915  0.476536  0  4.121249  0
C  C70  1  0.17093209  0.41278567  0.23480980  1  -0.018396  0  -0.021298  -0.046201  0  4.028388  0
C  C71  1  0.82906848  0.58722230  0.73481116  1  -0.018522  0  -0.021271  -0.046306  0  4.028392  0
C  C72  1  0.29639118  0.35454881  0.13647306  1  -0.045575  0  -0.008309  -0.013317  0  3.935137  0
C  C73  1  0.70360798  0.64545757  0.63647419  1  -0.045425  0  -0.008403  -0.013483  0  3.935295  0
C  C74  1  0.15295169  0.39920129  0.13738075  1  0.003821  0  -0.076722  -0.082504  0  3.9437  0
C  C75  1  0.84704272  0.60080309  0.63738322  1  0.004803  0  -0.076619  -0.082394  0  3.943936  0
C  C76  1  0.09081350  0.42839436  0.18627864  1  -0.092362  0  -0.088398  -0.115837  0  3.995978  0
C  C77  1  0.90917727  0.57160838  0.68627962  1  -0.093391  0  -0.08843  -0.115883  0  3.996317  0
C  C78  1  0.31194421  0.36525436  0.23357997  1  -0.115891  0  -0.089613  -0.108238  0  4.001393  0
C  C79  1  0.68804806  0.63475953  0.73358198  1  -0.116165  0  -0.089587  -0.108159  0  4.001388  0
C  C80  1  0.37417145  0.33656148  0.18492017  1  0.025486  0  -0.08478  -0.090446  0  3.978314  0
C  C81  1  0.62584163  0.66346093  0.68492006  1  0.025601  0  -0.084796  -0.090449  0  3.978138  0
C  C82  1  0.02257735  0.95107904  0.61179459  1  -0.032394  0  -0.086795  -0.225129  0  3.903218  0
C  C83  1  0.97743257  0.04891345  0.11179461  1  -0.032345  0  -0.086801  -0.225151  0  3.903281  0
C  C84  1  0.10633489  0.98508297  0.66212946  1  0.361648  0  0.120027  0.29595  0  4.028843  0
C  C85  1  0.89367087  0.01490686  0.16212851  1  0.36169  0  0.119963  0.295946  0  4.029068  0
C  C86  1  0.87058186  0.04484038  0.70907859  1  1.371202  0  0.24439  0.477476  0  4.11875  0
C  C87  1  0.12942172  0.95515571  0.20908204  1  1.371113  0  0.244483  0.477603  0  4.118763  0
C  C88  1  0.83013502  0.08890672  0.76275330  1  -0.098022  0  -0.021674  -0.046467  0  4.02459  0
C  C89  1  0.16987143  0.91109836  0.26275816  1  -0.097889  0  -0.021706  -0.046571  0  4.024958  0
C  C90  1  0.91655720  0.07898337  0.81087662  1  -0.042024  0  -0.088324  -0.116233  0  3.995407  0
C  C91  1  0.08343546  0.92101224  0.31088109  1  -0.042637  0  -0.088331  -0.116155  0  3.995327  0
C  C92  1  0.86140512  0.11438559  0.85969889  1  -0.061673  0  -0.077184  -0.082972  0  3.942886  0
C  C93  1  0.13859560  0.88561427  0.35970511  1  -0.061025  0  -0.077273  -0.083198  0  3.942954  0
C  C94  1  0.71882842  0.15988359  0.86099147  1  0.012564  0  -0.006679  -0.011035  0  3.932632  0
C  C95  1  0.28117227  0.84011622  0.36099783  1  0.01193  0  -0.006631  -0.010987  0  3.932666  0
C  C96  1  0.63521869  0.17276822  0.81286854  1  -0.055423  0  -0.08552  -0.092215  0  3.978514  0
C  C97  1  0.36478382  0.82723713  0.31287612  1  -0.053998  0  -0.085537  -0.092335  0  3.978603  0
C  C98  1  0.69018206  0.13755720  0.76427231  1  -0.018157  0  -0.088281  -0.106371  0  4.000661  0
C  C99  1  0.30982289  0.86244488  0.26427853  1  -0.019701  0  -0.088133  -0.106161  0  4.000563  0
C  C100  1  0.26897529  0.96605693  0.67076617  1  0.009109  0  -0.098503  -0.253077  0  3.977203  0
C  C101  1  0.73103243  0.03393946  0.17076443  1  0.009333  0  -0.098354  -0.252871  0  3.977007  0
C  C102  1  0.10069572  0.89529403  0.57385614  1  0.492788  0  0.05991  0.122377  0  3.912733  0
C  C103  1  0.89931569  0.10469091  0.07385190  1  0.492624  0  0.0602  0.122655  0  3.912837  0
C  C104  1  0.87798886  0.58556929  0.42441063  1  0.463981  0  0.059681  0.121727  0  3.911798  0
C  C105  1  0.12200242  0.41442251  0.92440816  1  0.464273  0  0.059622  0.121627  0  3.911809  0
C  C106  1  0.96027593  0.53348427  0.38626786  1  0.064622  0  -0.087078  -0.225738  0  3.903762  0
C  C107  1  0.03971623  0.46650881  0.88626557  1  0.064387  0  -0.087042  -0.225531  0  3.903674  0
C  C108  1  0.03828301  0.14656901  0.47165943  1  -0.061484  0  -0.086549  -0.099456  0  3.985955  0
C  C109  1  0.96171234  0.85342905  0.97165727  1  -0.061822  0  -0.086557  -0.099492  0  3.98619  0
C  C110  1  0.36794781  0.32459237  0.08413842  1  1.583435  0  0.214233  0.580986  0  4.191758  0
C  C111  1  0.63204768  0.67540595  0.58414105  1  1.583193  0  0.214252  0.581075  0  4.191629  0
C  C112  1  0.65290659  0.19458963  0.91341217  1  1.594189  0  0.214169  0.580707  0  4.188822  0
C  C113  1  0.34709365  0.80540744  0.41341867  1  1.593949  0  0.214135  0.580775  0  4.189008  0
C  C114  1  0.33795323  0.91087263  0.63057021  1  0.487466  0  0.049593  0.111069  0  3.944481  0
C  C115  1  0.66205201  0.08911825  0.13056541  1  0.48762  0  0.049578  0.110925  0  3.944326  0
N  N116  1  0.72618982  0.60833565  0.41460835  1  -1.248576  0  -0.333228  -0.230177  0  3.532065  0
N  N117  1  0.27380539  0.39166138  0.91460549  1  -1.248682  0  -0.333193  -0.230112  0  3.532042  0
N  N118  1  0.95482152  0.45824161  0.29234649  1  -1.245585  0  -0.393063  -0.370809  0  3.570575  0
N  N119  1  0.04517277  0.54175953  0.79234541  1  -1.245932  0  -0.392959  -0.370782  0  3.570561  0
N  N120  1  0.25345065  0.87335165  0.58300084  1  -1.248236  0  -0.332418  -0.230497  0  3.531587  0
N  N121  1  0.74656173  0.12663789  0.08299537  1  -1.24805  0  -0.332627  -0.230733  0  3.531727  0
N  N122  1  0.03835410  0.03617251  0.70442753  1  -1.245203  0  -0.39363  -0.372083  0  3.569106  0
N  N123  1  0.96165159  0.96382276  0.20442794  1  -1.245304  0  -0.393718  -0.372191  0  3.569347  0
O  O124  1  0.17977415  0.59378425  0.52581644  1  -1.16726  0  -0.317777  -0.545536  0  2.312123  0
O  O125  1  0.82023907  0.40620623  0.02580985  1  -1.16739  0  -0.317631  -0.545384  0  2.312115  0
O  O126  1  0.73069024  0.17948181  0.95616099  1  -1.16048  0  -0.310552  -0.534438  0  2.307168  0
O  O127  1  0.26930955  0.82050990  0.45616625  1  -1.160062  0  -0.310615  -0.534512  0  2.307481  0
O  O128  1  0.79626726  0.88541435  0.47200189  1  -1.161123  0  -0.31727  -0.544662  0  2.310989  0
O  O129  1  0.20371578  0.11458664  0.97199854  1  -1.161314  0  -0.317218  -0.544622  0  2.310832  0
O  O130  1  0.59387606  0.94348547  0.51912206  1  -1.178848  0  -0.31542  -0.554185  0  2.369662  0
O  O131  1  0.40611969  0.05651503  0.01911600  1  -1.178665  0  -0.315521  -0.554286  0  2.369182  0
O  O132  1  0.38263146  0.53513457  0.47919218  1  -1.174689  0  -0.314852  -0.553067  0  2.367001  0
O  O133  1  0.61737482  0.46485539  0.97918548  1  -1.174491  0  -0.314887  -0.553109  0  2.366674  0
O  O134  1  0.49905867  0.28557894  0.08742078  1  -1.174827  0  -0.312448  -0.555823  0  2.354872  0
O  O135  1  0.50095039  0.71442908  0.58742450  1  -1.174931  0  -0.312469  -0.555875  0  2.354926  0
O  O136  1  0.52377473  0.23575510  0.91030435  1  -1.1762  0  -0.311154  -0.554777  0  2.360613  0
O  O137  1  0.47621465  0.76423521  0.41030857  1  -1.176154  0  -0.311002  -0.554677  0  2.360792  0
O  O138  1  0.76066072  0.01771468  0.67191356  1  -1.11706  0  -0.271977  -0.45075  0  2.125126  0
O  O139  1  0.23935464  0.98228952  0.17191920  1  -1.116928  0  -0.271976  -0.450757  0  2.124921  0
O  O140  1  0.29151871  0.34062132  0.04125406  1  -1.160178  0  -0.310643  -0.534345  0  2.312649  0
O  O141  1  0.70847452  0.65937942  0.54125511  1  -1.160012  0  -0.310651  -0.534344  0  2.312428  0
O  O142  1  0.22678481  0.47067874  0.32740597  1  -1.136565  0  -0.270272  -0.448685  0  2.130662  0
O  O143  1  0.77321691  0.52934279  0.82740928  1  -1.13671  0  -0.270323  -0.448716  0  2.13056  0
