# generated using pymatgen
data_CuH5C7NO5
_symmetry_space_group_name_H-M   'P 1'
_cell_length_a   8.74786095
_cell_length_b   9.42171110
_cell_length_c   11.48750182
_cell_angle_alpha   90.00146977
_cell_angle_beta   108.65273642
_cell_angle_gamma   89.99987485
_symmetry_Int_Tables_number   1
_chemical_formula_structural   CuH5C7NO5
_chemical_formula_sum   'Cu4 H20 C28 N4 O20'
_cell_volume   897.06672119
_cell_formula_units_Z   4
loop_
 _symmetry_equiv_pos_site_id
 _symmetry_equiv_pos_as_xyz
  1  'x, y, z'
loop_
 _atom_site_type_symbol
 _atom_site_label
 _atom_site_symmetry_multiplicity
 _atom_site_fract_x
 _atom_site_fract_y
 _atom_site_fract_z
 _atom_site_occupancy
 _atom_site_hle17_ddec_charge
 _atom_site_hle17_ddec_spin_density
 _atom_site_hle17_ddec_sum_bond_order
 _atom_site_hle17_magmom
 _atom_site_hse06_10hf_ddec_charge
 _atom_site_hse06_10hf_ddec_spin_density
 _atom_site_hse06_10hf_ddec_sum_bond_order
 _atom_site_hse06_10hf_magmom
 _atom_site_hse06_ddec_charge
 _atom_site_hse06_ddec_spin_density
 _atom_site_hse06_ddec_sum_bond_order
 _atom_site_hse06_magmom
 _atom_site_pbe_cm5_charge
 _atom_site_pbe_ddec_charge
 _atom_site_pbe_ddec_spin_density
 _atom_site_pbe_ddec_sum_bond_order
 _atom_site_pbe_magmom
Cu  Cu0  1  0.91607248  0.75937015  0.57862687  1  0.908086  0.652001  1.74244  0.479  0.904571  0.796677  2.120582  0.642  0.99513  0.891204  2.060477  0.744  0.720334  0.839982  0.670067  2.170386  0.529
Cu  Cu1  1  0.58394183  0.25937396  0.42137328  1  0.908026  0.652002  1.742744  0.479  0.904515  0.796673  2.120926  0.642  0.995048  0.891187  2.060817  0.743  0.72038  0.839965  0.67004  2.170736  0.529
Cu  Cu2  1  0.08394589  0.24062171  0.42137154  1  0.908242  -0.651996  1.742549  -0.479  0.904634  -0.79666  2.12079  -0.642  0.995193  -0.891187  2.060678  -0.743  0.720482  0.840037  -0.67002  2.170732  -0.529
Cu  Cu3  1  0.41606229  0.74063806  0.57862369  1  0.908106  -0.652027  1.742469  -0.479  0.904587  -0.796677  2.120606  -0.642  0.995125  -0.891218  2.060576  -0.744  0.720331  0.840014  -0.670088  2.170453  -0.529
H  H4  1  0.88388746  0.48064383  0.68465611  1  0.094847  0.001062  0.964935  0.002  0.104107  0.000925  1.025454  0.002  0.105667  0.000651  1.024141  0.001  0.119867  0.10263  0.001052  1.026753  0.002
H  H5  1  0.61611335  0.98063242  0.31534719  1  0.094812  0.00106  0.965076  0.002  0.104098  0.000924  1.025545  0.002  0.105656  0.000651  1.024231  0.001  0.11983  0.102626  0.001051  1.026845  0.002
H  H6  1  0.11611017  0.51934909  0.31535208  1  0.094854  -0.001057  0.964919  -0.002  0.104067  -0.000925  1.025498  -0.002  0.105623  -0.000651  1.024188  -0.001  0.119826  0.102596  -0.001051  1.026796  -0.002
H  H7  1  0.38390689  0.01937536  0.68465590  1  0.094901  -0.00106  0.964888  -0.002  0.104165  -0.000925  1.025386  -0.002  0.105727  -0.000651  1.024073  -0.001  0.119829  0.102685  -0.001052  1.026684  -0.002
H  H8  1  0.72489840  0.33879327  0.76404683  1  0.39385  0.000257  0.844397  0.0  0.374255  0.000305  0.908094  0.0  0.385015  0.000207  0.895365  0.0  0.316753  0.366248  0.000366  0.917657  0.0
H  H9  1  0.77508465  0.83878610  0.23595901  1  0.393938  0.000257  0.84435  0.0  0.374318  0.000305  0.90812  0.0  0.385088  0.000207  0.895372  0.0  0.316747  0.366307  0.000367  0.91768  0.0
H  H10  1  0.27506338  0.66119328  0.23594855  1  0.393882  -0.000258  0.844477  0.0  0.374394  -0.000305  0.908051  0.0  0.385169  -0.000207  0.895284  0.0  0.316753  0.36638  -0.000366  0.917617  0.0
H  H11  1  0.22492845  0.16123866  0.76405870  1  0.394114  -0.000258  0.843962  0.0  0.374468  -0.000305  0.907779  0.0  0.385236  -0.000207  0.895022  0.0  0.316817  0.366461  -0.000366  0.917337  0.0
H  H12  1  0.78030040  0.56784749  0.01922522  1  0.116313  0.0003  0.919735  0.0  0.13146  4.4e-05  0.970526  0.0  0.134037  2e-06  0.969635  0.0  0.115558  0.129262  7.8e-05  0.97188  0.0
H  H13  1  0.71969291  0.06783350  0.98077603  1  0.116312  0.0003  0.919763  0.0  0.131435  4.4e-05  0.970592  0.0  0.134025  1e-06  0.969681  0.0  0.115531  0.129242  7.8e-05  0.971939  0.0
H  H14  1  0.21966805  0.43212420  0.98077562  1  0.116448  -0.000304  0.919808  0.0  0.131519  -4.4e-05  0.970642  0.0  0.134148  -2e-06  0.969687  0.0  0.115597  0.129327  -7.8e-05  0.971983  0.0
H  H15  1  0.28034066  0.93218913  0.01923009  1  0.116406  -0.000302  0.919764  0.0  0.131399  -4.4e-05  0.970718  0.0  0.134058  -2e-06  0.969724  0.0  0.115461  0.129204  -7.8e-05  0.972069  0.0
H  H16  1  0.85877052  0.81914570  0.00154971  1  0.10835  0.000769  0.963707  0.001  0.115762  0.000608  1.025241  0.001  0.11941  0.000422  1.023018  0.0  0.106033  0.113143  0.0007  1.026885  0.001
H  H17  1  0.64125086  0.31913190  0.99847476  1  0.108508  0.000767  0.963725  0.001  0.11575  0.000608  1.025426  0.001  0.119396  0.000422  1.023206  0.0  0.106027  0.11314  0.0007  1.027068  0.001
H  H18  1  0.14122941  0.18082387  0.99847375  1  0.108533  -0.000771  0.963712  -0.001  0.115859  -0.000608  1.025267  -0.001  0.119493  -0.000422  1.02307  0.0  0.106155  0.11325  -0.0007  1.026911  -0.001
H  H19  1  0.35876728  0.68088012  0.00153762  1  0.108576  -0.000776  0.963533  -0.001  0.11574  -0.000608  1.025299  -0.001  0.119383  -0.000421  1.023084  0.0  0.106036  0.11312  -0.0007  1.026941  -0.001
H  H20  1  0.92869566  0.89503493  0.81332032  1  0.09662  0.000916  0.937586  0.002  0.105159  0.000804  0.996923  0.002  0.108232  0.00058  0.993982  0.001  0.119732  0.102412  0.00091  0.999842  0.002
H  H21  1  0.57131717  0.39502189  0.18669849  1  0.096612  0.000923  0.937568  0.002  0.105067  0.000804  0.996984  0.002  0.108133  0.000581  0.994052  0.001  0.119727  0.102332  0.00091  0.999895  0.002
H  H22  1  0.07129589  0.10495268  0.18670178  1  0.096603  -0.00092  0.937626  -0.002  0.105218  -0.000804  0.996873  -0.002  0.108291  -0.000581  0.99393  -0.001  0.119779  0.102482  -0.00091  0.999793  -0.002
H  H23  1  0.42868550  0.60498164  0.81330439  1  0.096582  -0.000918  0.937474  -0.002  0.105066  -0.000804  0.996898  -0.002  0.108113  -0.00058  0.993984  -0.001  0.119696  0.102325  -0.00091  0.99981  -0.002
C  C24  1  0.03284929  0.02471147  0.56669246  1  0.541485  -0.001002  3.89733  -0.002  0.498598  -0.000218  4.205265  -0.001  0.533415  -0.000142  4.197975  -0.001  0.209623  0.473335  -0.000458  4.210264  -0.001
C  C25  1  0.46714586  0.52470317  0.43330078  1  0.541567  -0.000998  3.897171  -0.002  0.498644  -0.000217  4.205201  -0.001  0.533428  -0.000142  4.197957  -0.001  0.209488  0.473388  -0.000458  4.2102  -0.001
C  C26  1  0.96714852  0.97529524  0.43328598  1  0.541359  0.001004  3.89716  0.002  0.498547  0.000216  4.205028  0.001  0.533302  0.000143  4.197829  0.001  0.209657  0.473303  0.000457  4.209999  0.001
C  C27  1  0.53285389  0.47529293  0.56670600  1  0.541246  0.001006  3.897263  0.002  0.498328  0.000217  4.205331  0.001  0.533114  0.000143  4.19809  0.001  0.209445  0.473082  0.000457  4.210309  0.001
C  C28  1  0.90693437  0.48687550  0.47595953  1  0.518628  -0.004721  3.907187  -0.008  0.489607  -0.000686  4.204346  -0.003  0.522887  -0.000545  4.197309  -0.002  0.196378  0.466387  -0.000706  4.20801  -0.003
C  C29  1  0.59307547  0.98690060  0.52403232  1  0.518694  -0.004714  3.907382  -0.008  0.489583  -0.000686  4.204645  -0.003  0.522863  -0.000546  4.19762  -0.002  0.19646  0.466351  -0.000708  4.208304  -0.003
C  C30  1  0.09308934  0.51310362  0.52404325  1  0.518926  0.00472  3.907409  0.008  0.489769  0.000686  4.204688  0.003  0.523053  0.000546  4.19766  0.002  0.196536  0.466541  0.000707  4.20834  0.003
C  C31  1  0.40691037  0.01312947  0.47595207  1  0.518858  0.004716  3.90721  0.008  0.489812  0.000686  4.204377  0.003  0.523094  0.000545  4.19734  0.002  0.19647  0.466594  0.000705  4.208035  0.003
C  C32  1  0.87701177  0.55427861  0.75561478  1  -0.011549  -0.006254  3.700222  -0.007  -0.047995  -0.000652  3.960184  -0.002  -0.041794  -0.001623  3.978165  -0.003  0.02651  -0.052142  0.000123  3.948536  -0.001
C  C33  1  0.62297909  0.05426506  0.24438909  1  -0.0115  -0.006255  3.700095  -0.007  -0.047985  -0.000652  3.960018  -0.002  -0.041764  -0.001623  3.977998  -0.003  0.026568  -0.052136  0.000124  3.948375  -0.001
C  C34  1  0.12296627  0.44570687  0.24438761  1  -0.011697  0.006238  3.700132  0.007  -0.048146  0.000654  3.96012  0.002  -0.041941  0.001624  3.978098  0.003  0.026461  -0.052283  -0.000123  3.948478  0.001
C  C35  1  0.37702571  0.94574803  0.75561238  1  -0.01167  0.006251  3.700208  0.007  -0.048151  0.000651  3.960212  0.002  -0.041945  0.001622  3.978201  0.003  0.026485  -0.05229  -0.000124  3.948553  0.001
C  C36  1  0.82314997  0.50589283  0.85075093  1  0.28885  0.007811  3.842531  0.009  0.285309  0.003247  4.108231  0.004  0.292411  0.002981  4.123739  0.004  0.085828  0.279737  0.003162  4.098108  0.004
C  C37  1  0.67684182  0.00588180  0.14924785  1  0.288778  0.00782  3.842405  0.009  0.285356  0.003248  4.107943  0.004  0.292413  0.002982  4.123517  0.004  0.085826  0.279808  0.003162  4.097795  0.004
C  C38  1  0.17682472  0.49408948  0.14924479  1  0.288657  -0.007811  3.842831  -0.009  0.285123  -0.003248  4.108452  -0.004  0.292215  -0.00298  4.123986  -0.004  0.08577  0.279536  -0.003161  4.098355  -0.004
C  C39  1  0.32317508  0.99413766  0.85074857  1  0.289012  -0.007813  3.842457  -0.009  0.285648  -0.003247  4.107849  -0.004  0.292716  -0.00298  4.123414  -0.004  0.085846  0.280077  -0.003162  4.097737  -0.004
C  C40  1  0.82011296  0.60157785  0.94281915  1  -0.120558  -0.007029  3.685193  -0.007  -0.151016  -0.002396  3.941688  -0.002  -0.150664  -0.002663  3.958681  -0.003  -0.076385  -0.151095  -0.001955  3.930488  -0.002
C  C41  1  0.67987703  0.10156753  0.05718278  1  -0.120593  -0.007033  3.685269  -0.007  -0.151071  -0.002396  3.941706  -0.002  -0.150717  -0.002663  3.95871  -0.003  -0.076378  -0.151149  -0.001955  3.930493  -0.002
C  C42  1  0.17985642  0.39840233  0.05718009  1  -0.120478  0.007043  3.685437  0.007  -0.150886  0.002397  3.941848  0.002  -0.150578  0.002663  3.958833  0.003  -0.076358  -0.15095  0.001955  3.930642  0.002
C  C43  1  0.32013469  0.89846041  0.94281806  1  -0.120784  0.007037  3.685169  0.007  -0.151138  0.002396  3.941483  0.002  -0.150844  0.002663  3.958467  0.003  -0.076241  -0.151221  0.001955  3.930288  0.002
C  C44  1  0.86305695  0.74222045  0.93190625  1  -0.086357  0.00892  3.744167  0.01  -0.100134  0.003858  4.002096  0.005  -0.104784  0.003462  4.021775  0.004  -0.081842  -0.09717  0.003789  3.988838  0.005
C  C45  1  0.63695026  0.24221142  0.06810527  1  -0.086468  0.008924  3.744426  0.01  -0.100101  0.003858  4.00232  0.005  -0.104751  0.003463  4.022002  0.004  -0.081778  -0.097142  0.00379  3.989069  0.005
C  C46  1  0.13692512  0.25775124  0.06810731  1  -0.086592  -0.008915  3.744573  -0.01  -0.100271  -0.003859  4.002513  -0.005  -0.104923  -0.003463  4.022208  -0.004  -0.081932  -0.097311  -0.003789  3.989263  -0.005
C  C47  1  0.36306186  0.75780803  0.93189826  1  -0.086507  -0.008906  3.744006  -0.01  -0.100012  -0.003858  4.001842  -0.005  -0.104667  -0.003462  4.02154  -0.004  -0.081771  -0.097044  -0.003789  3.988586  -0.005
C  C48  1  0.90318787  0.78505005  0.82937234  1  0.1005  -0.004619  3.69233  -0.005  0.066412  -2.9e-05  3.957266  -0.001  0.074135  -0.001197  3.975341  -0.002  0.033931  0.0613  0.000838  3.945487  0.0
C  C49  1  0.59681614  0.28503824  0.17063846  1  0.100676  -0.004633  3.692376  -0.005  0.066684  -3e-05  3.957289  -0.001  0.074413  -0.001198  3.975362  -0.002  0.033975  0.061573  0.000837  3.945525  0.0
C  C50  1  0.09679738  0.21493119  0.17063910  1  0.100504  0.004618  3.692696  0.005  0.066327  2.9e-05  3.957646  0.001  0.074054  0.001195  3.975708  0.002  0.033896  0.061214  -0.000839  3.945877  0.0
C  C51  1  0.40318626  0.71497591  0.82936262  1  0.10075  0.004625  3.691784  0.005  0.06667  3e-05  3.956841  0.001  0.074427  0.001198  3.974899  0.002  0.033984  0.061545  -0.000837  3.945075  0.0
N  N52  1  0.90974873  0.69116299  0.74264022  1  -0.268214  0.07413  3.365793  0.093  -0.224105  0.052464  3.666484  0.071  -0.25458  0.043939  3.692083  0.062  -0.34487  -0.204691  0.05211  3.650495  0.068
N  N53  1  0.59025197  0.19115685  0.25736404  1  -0.268306  0.074149  3.365789  0.093  -0.224272  0.052472  3.666597  0.071  -0.254742  0.043944  3.692178  0.062  -0.344945  -0.204867  0.05212  3.650634  0.068
N  N54  1  0.09023798  0.30881612  0.25736533  1  -0.268133  -0.074136  3.365719  -0.093  -0.223997  -0.052469  3.666403  -0.071  -0.254476  -0.04394  3.691996  -0.062  -0.344947  -0.204578  -0.052114  3.650441  -0.068
N  N55  1  0.40975468  0.80886154  0.74263423  1  -0.268286  -0.074139  3.365444  -0.093  -0.224282  -0.052465  3.666343  -0.071  -0.254763  -0.043936  3.691944  -0.062  -0.344876  -0.20487  -0.052111  3.650369  -0.068
O  O56  1  0.01937719  0.94098954  0.64868709  1  -0.516768  0.049154  2.136023  0.066  -0.494527  0.039805  2.40921  0.058  -0.535164  0.033773  2.403742  0.051  -0.286871  -0.464317  0.039754  2.413253  0.056
O  O57  1  0.48061401  0.44097982  0.35130122  1  -0.516651  0.049161  2.135858  0.066  -0.494391  0.03981  2.409092  0.058  -0.535018  0.033778  2.403643  0.051  -0.286683  -0.464188  0.039763  2.413135  0.056
O  O58  1  0.98061034  0.05900868  0.35128530  1  -0.516529  -0.049164  2.135763  -0.066  -0.494293  -0.039818  2.408907  -0.058  -0.534923  -0.033783  2.40349  -0.051  -0.286714  -0.464078  -0.039771  2.412947  -0.056
O  O59  1  0.51938441  0.55902477  0.64870447  1  -0.516514  -0.049178  2.135651  -0.066  -0.494244  -0.039819  2.40884  -0.058  -0.534874  -0.03378  2.403413  -0.051  -0.286622  -0.464036  -0.039769  2.412873  -0.056
O  O60  1  0.10015249  0.14599019  0.58701154  1  -0.544006  -0.043588  2.055381  -0.059  -0.511975  -0.035017  2.303611  -0.051  -0.548998  -0.029323  2.294477  -0.045  -0.291803  -0.483472  -0.03236  2.309761  -0.045
O  O61  1  0.39983713  0.64598018  0.41296940  1  -0.544004  -0.043599  2.05525  -0.059  -0.511981  -0.035025  2.303476  -0.051  -0.548998  -0.029327  2.294372  -0.045  -0.291739  -0.48348  -0.032364  2.309609  -0.045
O  O62  1  0.89983968  0.85401758  0.41295284  1  -0.543915  0.043586  2.05519  0.059  -0.51194  0.035024  2.303362  0.051  -0.548952  0.029327  2.294269  0.045  -0.291771  -0.483442  0.032363  2.309487  0.045
O  O63  1  0.60016061  0.35401698  0.58703180  1  -0.543864  0.043583  2.055384  0.059  -0.511821  0.035017  2.303571  0.051  -0.548827  0.029325  2.29446  0.045  -0.291691  -0.483328  0.032362  2.309693  0.045
O  O64  1  0.81577390  0.58744452  0.49027383  1  -0.532335  0.074649  2.095597  0.1  -0.514508  0.049853  2.367047  0.073  -0.556866  0.038469  2.361875  0.059  -0.314884  -0.486696  0.052824  2.372157  0.075
O  O65  1  0.68424008  0.08746289  0.50972008  1  -0.53237  0.074643  2.095896  0.1  -0.514555  0.049851  2.367432  0.073  -0.556907  0.03847  2.362263  0.059  -0.315031  -0.486751  0.05283  2.372546  0.075
O  O66  1  0.18426152  0.41254415  0.50972909  1  -0.532556  -0.074642  2.09581  -0.1  -0.51469  -0.049853  2.367324  -0.073  -0.55705  -0.03847  2.362153  -0.059  -0.315034  -0.486868  -0.052834  2.372438  -0.075
O  O67  1  0.31575454  0.91255125  0.49026047  1  -0.532547  -0.074632  2.095651  -0.1  -0.514731  -0.049848  2.367132  -0.073  -0.557081  -0.038463  2.361957  -0.059  -0.314997  -0.486918  -0.052819  2.372245  -0.075
O  O68  1  0.85689566  0.36929207  0.42774321  1  -0.576622  0.011948  2.076585  0.016  -0.566717  0.005835  2.347296  0.009  -0.594955  0.003114  2.335697  0.005  -0.3028  -0.543824  0.009475  2.354585  0.014
O  O69  1  0.64311186  0.86931337  0.57225455  1  -0.576557  0.011935  2.076448  0.016  -0.566638  0.005832  2.347206  0.008  -0.594885  0.003114  2.335635  0.005  -0.302754  -0.543731  0.009474  2.35447  0.014
O  O70  1  0.14313377  0.63068704  0.57225874  1  -0.576586  -0.011938  2.076526  -0.016  -0.566652  -0.005831  2.347287  -0.008  -0.5949  -0.00311  2.335715  -0.005  -0.302816  -0.543746  -0.009469  2.35455  -0.014
O  O71  1  0.35687973  0.13071245  0.42773690  1  -0.57667  -0.011927  2.076726  -0.016  -0.566744  -0.005831  2.347433  -0.008  -0.594987  -0.003112  2.335842  -0.005  -0.302817  -0.543857  -0.009465  2.354717  -0.014
O  O72  1  0.77061135  0.36981420  0.85066726  1  -0.511384  0.002953  2.085487  0.004  -0.46442  0.001415  2.282499  0.002  -0.48266  0.001004  2.272712  0.001  -0.351271  -0.451229  0.0017  2.289887  0.002
O  O73  1  0.72937662  0.86979318  0.14933261  1  -0.511427  0.002953  2.085449  0.004  -0.464494  0.001416  2.282391  0.002  -0.482731  0.001004  2.272627  0.001  -0.351281  -0.451295  0.0017  2.289756  0.002
O  O74  1  0.22935187  0.63018084  0.14932223  1  -0.511344  -0.002949  2.085623  -0.004  -0.464403  -0.001415  2.28235  -0.002  -0.482647  -0.001003  2.272563  -0.001  -0.351164  -0.451195  -0.001699  2.28974  -0.002
O  O75  1  0.27064790  0.13021565  0.85067556  1  -0.511674  -0.00295  2.085382  -0.004  -0.464744  -0.001415  2.282338  -0.002  -0.482978  -0.001003  2.272561  -0.001  -0.351353  -0.451552  -0.001699  2.289723  -0.002
