# generated using pymatgen
data_LiH5C8N4OF3
_symmetry_space_group_name_H-M   'P 1'
_cell_length_a   10.20366590
_cell_length_b   14.79572616
_cell_length_c   15.97449892
_cell_angle_alpha   90.00003728
_cell_angle_beta   90.00000661
_cell_angle_gamma   99.83681608
_symmetry_Int_Tables_number   1
_chemical_formula_structural   LiH5C8N4OF3
_chemical_formula_sum   'Li8 H40 C64 N32 O8 F24'
_cell_volume   2376.22468701
_cell_formula_units_Z   8
loop_
 _symmetry_equiv_pos_site_id
 _symmetry_equiv_pos_as_xyz
  1  'x, y, z'
loop_
 _atom_site_type_symbol
 _atom_site_label
 _atom_site_symmetry_multiplicity
 _atom_site_fract_x
 _atom_site_fract_y
 _atom_site_fract_z
 _atom_site_occupancy
 _atom_site_pbe_bader_charge
 _atom_site_pbe_bader_spin_density
 _atom_site_pbe_cm5_charge
 _atom_site_pbe_ddec_charge
 _atom_site_pbe_ddec_spin_density
 _atom_site_pbe_ddec_sum_bond_order
 _atom_site_pbe_magmom
Li  Li0  1  0.34433883  0.17916610  0.66331414  1  0.853368  0  0.541733  0.707412  0  0.656646  0
Li  Li1  1  0.15566194  0.32083421  0.16331352  1  0.853367  0  0.541748  0.707425  0  0.65661  0
Li  Li2  1  0.65566144  0.82083359  0.33668626  1  0.853368  0  0.541741  0.707418  0  0.656627  0
Li  Li3  1  0.84433850  0.67916617  0.83668626  1  0.853368  0  0.54173  0.707423  0  0.656623  0
Li  Li4  1  0.12103615  0.68669348  0.51816420  1  0.861993  0  0.55196  0.724008  0  0.648246  0
Li  Li5  1  0.37896347  0.81330688  0.01816421  1  0.861998  0  0.551967  0.724003  0  0.648248  0
Li  Li6  1  0.87896412  0.31330621  0.48183621  1  0.861994  0  0.551966  0.72402  0  0.648232  0
Li  Li7  1  0.62103615  0.18669419  0.98183557  1  0.861992  0  0.551965  0.724  0  0.648261  0
H  H8  1  0.41629689  0.95934974  0.65452037  1  0.070746  0  0.093078  0.092142  0  1.01355  0
H  H9  1  0.08370261  0.54065004  0.15452144  1  0.070728  0  0.093062  0.092109  0  1.013573  0
H  H10  1  0.58370257  0.04065064  0.34547879  1  0.070724  0  0.093062  0.092131  0  1.013556  0
H  H11  1  0.91629847  0.45934897  0.84547896  1  0.070716  0  0.093062  0.092135  0  1.013561  0
H  H12  1  0.32417870  0.99501815  0.56803566  1  0.086237  0  0.104678  0.11163  0  0.995469  0
H  H13  1  0.17582193  0.50498224  0.06803610  1  0.086241  0  0.104685  0.111644  0  0.995461  0
H  H14  1  0.67582076  0.00498223  0.43196412  1  0.086234  0  0.104681  0.111638  0  0.995463  0
H  H15  1  0.82417949  0.49501814  0.93196368  1  0.086254  0  0.104684  0.111653  0  0.995453  0
H  H16  1  0.24313623  0.91291844  0.64176126  1  0.060064  0  0.093086  0.096804  0  1.011855  0
H  H17  1  0.25686263  0.58708270  0.14176113  1  0.060042  0  0.093093  0.096818  0  1.011838  0
H  H18  1  0.75686340  0.08708263  0.35823915  1  0.060045  0  0.093084  0.096801  0  1.011851  0
H  H19  1  0.74313781  0.41291768  0.85823928  1  0.060048  0  0.093093  0.096811  0  1.011871  0
H  H20  1  0.37965428  0.02686879  0.79221204  1  0.063493  0  0.106016  0.071477  0  0.969229  0
H  H21  1  0.12034556  0.47313162  0.29221213  1  0.063493  0  0.106019  0.071475  0  0.969202  0
H  H22  1  0.62034518  0.97313159  0.20778774  1  0.063489  0  0.106019  0.071474  0  0.969216  0
H  H23  1  0.87965390  0.52686876  0.70778765  1  0.063497  0  0.106019  0.071486  0  0.969224  0
H  H24  1  0.21020268  0.96858881  0.78353161  1  0.083371  0  0.103618  0.079217  0  1.007592  0
H  H25  1  0.28979704  0.53141175  0.28353207  1  0.083415  0  0.103607  0.079156  0  1.007614  0
H  H26  1  0.78979678  0.03141157  0.21646817  1  0.083359  0  0.103619  0.079213  0  1.007582  0
H  H27  1  0.71020241  0.46858864  0.71646896  1  0.083354  0  0.103615  0.079202  0  1.007618  0
H  H28  1  0.12491422  0.11349926  0.79152221  1  0.086336  0  0.106879  0.079131  0  0.977858  0
H  H29  1  0.37508562  0.38650115  0.29152226  1  0.086334  0  0.106876  0.079123  0  0.97787  0
H  H30  1  0.87508409  0.88650044  0.20847757  1  0.086339  0  0.106881  0.079139  0  0.977882  0
H  H31  1  0.62491401  0.61349992  0.70847752  1  0.086539  0  0.106878  0.079134  0  0.977835  0
H  H32  1  0.23098391  0.10458961  0.87914812  1  0.068635  0  0.103536  0.075909  0  0.980867  0
H  H33  1  0.26901676  0.39541017  0.37914817  1  0.068635  0  0.103535  0.075901  0  0.980884  0
H  H34  1  0.76901537  0.89541008  0.12085166  1  0.06863  0  0.103527  0.075901  0  0.980875  0
H  H35  1  0.73098367  0.60459021  0.62085161  1  0.068637  0  0.103538  0.075914  0  0.980862  0
H  H36  1  0.18278061  0.28667487  0.80790587  1  0.098609  0  0.093859  0.098873  0  1.033381  0
H  H37  1  0.31722004  0.21332486  0.30790520  1  0.098707  0  0.093843  0.098868  0  1.033377  0
H  H38  1  0.81721868  0.71332482  0.19209453  1  0.098618  0  0.093862  0.098908  0  1.033348  0
H  H39  1  0.68278137  0.78667552  0.69209396  1  0.098616  0  0.093866  0.098886  0  1.033356  0
H  H40  1  0.35743677  0.33280152  0.80527921  1  0.043179  0  0.106195  0.111155  0  0.987645  0
H  H41  1  0.14256307  0.16719890  0.30527911  1  0.043191  0  0.106207  0.111176  0  0.987653  0
H  H42  1  0.64256153  0.66719817  0.19471995  1  0.043449  0  0.106195  0.111167  0  0.98765  0
H  H43  1  0.85743737  0.83280149  0.69472067  1  0.043399  0  0.106197  0.111154  0  0.98766  0
H  H44  1  0.28860855  0.26693112  0.89377335  1  0.022413  0  0.088579  0.088439  0  1.025889  0
H  H45  1  0.21139329  0.23306936  0.39377268  1  0.022431  0  0.088575  0.088433  0  1.025827  0
H  H46  1  0.71139189  0.73306926  0.10622705  1  0.022421  0  0.088558  0.088422  0  1.025838  0
H  H47  1  0.78860796  0.76693034  0.60622710  1  0.022422  0  0.088563  0.088416  0  1.025837  0
C  C48  1  0.11383879  0.23895221  0.55924328  1  1.058912  0  0.201867  0.1522  0  4.104105  0
C  C49  1  0.38616177  0.26104734  0.05924264  1  1.058959  0  0.201869  0.15224  0  4.10402  0
C  C50  1  0.88616148  0.76104748  0.44075712  1  1.058968  0  0.201884  0.152195  0  4.103979  0
C  C51  1  0.61383751  0.73895236  0.94075714  1  1.058959  0  0.201876  0.152236  0  4.103962  0
C  C52  1  0.26361565  0.35047851  0.59591990  1  0.61212  0  0.114855  0.106723  0  4.125574  0
C  C53  1  0.23638411  0.14952175  0.09591981  1  0.612137  0  0.114832  0.106686  0  4.125628  0
C  C54  1  0.73638380  0.64952187  0.40408050  1  0.612124  0  0.11482  0.106703  0  4.125631  0
C  C55  1  0.76361616  0.85047795  0.90408060  1  0.612136  0  0.114816  0.106667  0  4.125665  0
C  C56  1  0.16051444  0.38459789  0.55424661  1  0.630748  0  0.109227  0.077411  0  4.134074  0
C  C57  1  0.33948612  0.11540166  0.05424713  1  0.630734  0  0.109226  0.07743  0  4.134037  0
C  C58  1  0.83948583  0.61540181  0.44575379  1  0.630777  0  0.109229  0.077404  0  4.134035  0
C  C59  1  0.66051415  0.88459804  0.94575327  1  0.630744  0  0.109234  0.077428  0  4.134063  0
C  C60  1  0.38183743  0.40084925  0.62965431  1  0.832817  0  0.195694  0.226041  0  4.040986  0
C  C61  1  0.11816235  0.09915104  0.12965418  1  0.832821  0  0.195723  0.226073  0  4.041005  0
C  C62  1  0.61816301  0.59915113  0.37034609  1  0.832808  0  0.195656  0.225939  0  4.040921  0
C  C63  1  0.88183792  0.90084866  0.87034685  1  0.83272  0  0.195715  0.226038  0  4.040872  0
C  C64  1  0.15198544  0.47709504  0.53956136  1  0.796483  0  0.228942  0.302716  0  4.001964  0
C  C65  1  0.34801512  0.02290450  0.03956120  1  0.796502  0  0.228918  0.302649  0  4.001936  0
C  C66  1  0.84801500  0.52290534  0.46043904  1  0.796472  0  0.228942  0.302728  0  4.001907  0
C  C67  1  0.65198515  0.97709520  0.96043858  1  0.796485  0  0.228931  0.302711  0  4.001957  0
C  C68  1  0.03991820  0.14265953  0.54956282  1  1.698375  0  0.317421  0.641968  0  4.035891  0
C  C69  1  0.46008236  0.35734001  0.04956287  1  1.698376  0  0.317375  0.641836  0  4.03598  0
C  C70  1  0.96008322  0.85734085  0.45043696  1  1.69839  0  0.317436  0.642057  0  4.035705  0
C  C71  1  0.53991595  0.64265968  0.95043754  1  1.698369  0  0.317427  0.642019  0  4.035694  0
C  C72  1  0.10812141  0.73661597  0.93136152  1  1.042471  0  0.200799  0.154554  0  4.092491  0
C  C73  1  0.39187820  0.76338401  0.43136151  1  1.042087  0  0.200829  0.154585  0  4.092412  0
C  C74  1  0.89187886  0.26338373  0.06863826  1  1.042282  0  0.200843  0.154568  0  4.092428  0
C  C75  1  0.60812305  0.23661569  0.56863890  1  1.042147  0  0.200833  0.154561  0  4.092508  0
C  C76  1  0.26252253  0.77115765  0.84139440  1  0.618004  0  0.112934  0.102051  0  4.11412  0
C  C77  1  0.23747687  0.72884158  0.34139372  1  0.617992  0  0.112929  0.102039  0  4.114084  0
C  C78  1  0.73747774  0.22884205  0.15860538  1  0.617996  0  0.112885  0.101972  0  4.11422  0
C  C79  1  0.76252225  0.27115743  0.65860668  1  0.618006  0  0.112957  0.102114  0  4.11407  0
C  C80  1  0.14121850  0.73901312  0.79991953  1  0.62807  0  0.112028  0.08481  0  4.119092  0
C  C81  1  0.35878122  0.76098745  0.29991951  1  0.628086  0  0.112043  0.084831  0  4.119066  0
C  C82  1  0.85878177  0.26098658  0.20008025  1  0.628087  0  0.112046  0.084856  0  4.119011  0
C  C83  1  0.64121824  0.23901293  0.70008090  1  0.628032  0  0.112038  0.084863  0  4.119072  0
C  C84  1  0.38724058  0.80277448  0.80369432  1  0.810657  0  0.192731  0.224632  0  4.034365  0
C  C85  1  0.11275962  0.69722404  0.30369425  1  0.810648  0  0.192732  0.224618  0  4.034374  0
C  C86  1  0.61276050  0.19722453  0.19630546  1  0.810645  0  0.192669  0.22457  0  4.034418  0
C  C87  1  0.88724146  0.30277497  0.69630616  1  0.81067  0  0.192714  0.224609  0  4.034361  0
C  C88  1  0.12307981  0.72841858  0.71294027  1  0.742372  0  0.230609  0.298643  0  4.000227  0
C  C89  1  0.37692005  0.77158261  0.21293963  1  0.742391  0  0.230622  0.298648  0  4.000258  0
C  C90  1  0.87692062  0.27158181  0.28706014  1  0.742387  0  0.230602  0.298603  0  4.000244  0
C  C91  1  0.62307860  0.22841845  0.78706015  1  0.742412  0  0.230591  0.298601  0  4.000281  0
C  C92  1  0.03647600  0.72658142  0.01365761  1  1.719962  0  0.322411  0.645439  0  4.027068  0
C  C93  1  0.46352345  0.77341825  0.51365768  1  1.719959  0  0.322412  0.64548  0  4.027007  0
C  C94  1  0.96352525  0.27341828  0.98634217  1  1.719978  0  0.322428  0.645486  0  4.026911  0
C  C95  1  0.53647763  0.22658076  0.48634210  1  1.719958  0  0.322421  0.645496  0  4.027042  0
C  C96  1  0.31935710  0.97457806  0.63401143  1  0.360592  0  -0.142001  -0.17086  0  3.932079  0
C  C97  1  0.18064159  0.52542238  0.13401188  1  0.360621  0  -0.142018  -0.170888  0  3.932093  0
C  C98  1  0.68064138  0.02542232  0.36598835  1  0.36062  0  -0.142  -0.17086  0  3.932072  0
C  C99  1  0.81935868  0.47457731  0.86598853  1  0.360595  0  -0.141991  -0.170859  0  3.932062  0
C  C100  1  0.27904425  0.03252329  0.76949082  1  0.409257  0  -0.068698  -0.006569  0  3.912255  0
C  C101  1  0.22095639  0.46747641  0.26949154  1  0.409187  0  -0.068683  -0.006486  0  3.912149  0
C  C102  1  0.72095521  0.96747709  0.23050833  1  0.40924  0  -0.068736  -0.006604  0  3.912228  0
C  C103  1  0.77904388  0.53252328  0.73050886  1  0.409257  0  -0.068699  -0.006569  0  3.912261  0
C  C104  1  0.22842041  0.11174843  0.81043110  1  0.391918  0  -0.067526  -0.003257  0  3.916191  0
C  C105  1  0.27158041  0.38825199  0.31043115  1  0.391906  0  -0.067519  -0.003267  0  3.916213  0
C  C106  1  0.77157888  0.88825126  0.18956868  1  0.391938  0  -0.067536  -0.003298  0  3.916295  0
C  C107  1  0.72842003  0.61174839  0.68956926  1  0.391713  0  -0.067521  -0.003259  0  3.916163  0
C  C108  1  0.28269247  0.27465603  0.82543068  1  0.402223  0  -0.142203  -0.163885  0  3.894619  0
C  C109  1  0.21730836  0.22534441  0.32543000  1  0.402116  0  -0.142213  -0.163916  0  3.894534  0
C  C110  1  0.71730699  0.72534436  0.17456973  1  0.401954  0  -0.142211  -0.163959  0  3.894513  0
C  C111  1  0.78269306  0.77465597  0.67456978  1  0.401994  0  -0.142194  -0.163879  0  3.894552  0
N  N112  1  0.23232040  0.25705863  0.59869555  1  -1.169526  0  -0.404157  -0.432157  0  3.330223  0
N  N113  1  0.26767920  0.24294095  0.09869488  1  -1.16955  0  -0.404119  -0.432123  0  3.330251  0
N  N114  1  0.76767987  0.74294107  0.40130486  1  -1.169556  0  -0.404135  -0.432131  0  3.330324  0
N  N115  1  0.73232009  0.75705875  0.90130490  1  -1.169542  0  -0.404126  -0.432128  0  3.330292  0
N  N116  1  0.06503121  0.31230196  0.53115541  1  -1.187036  0  -0.395436  -0.430417  0  3.351856  0
N  N117  1  0.43496951  0.18769826  0.03115473  1  -1.187069  0  -0.39545  -0.430446  0  3.351825  0
N  N118  1  0.93496923  0.68769843  0.46884562  1  -1.187091  0  -0.395454  -0.430432  0  3.351817  0
N  N119  1  0.56502994  0.81230212  0.96884505  1  -1.187081  0  -0.395455  -0.430468  0  3.351801  0
N  N120  1  0.47916946  0.44347236  0.65732531  1  -1.135061  0  -0.282539  -0.337988  0  2.761782  0
N  N121  1  0.02083067  0.05652932  0.15732514  1  -1.135066  0  -0.282562  -0.338006  0  2.76181  0
N  N122  1  0.52083098  0.55652802  0.34267447  1  -1.135043  0  -0.282493  -0.337893  0  2.761691  0
N  N123  1  0.97917041  0.94346969  0.84267527  1  -1.134962  0  -0.282539  -0.337964  0  2.761666  0
N  N124  1  0.14716456  0.55440545  0.52888374  1  -1.179318  0  -0.360767  -0.42752  0  2.899291  0
N  N125  1  0.35283490  0.94559423  0.02888321  1  -1.179361  0  -0.360759  -0.42747  0  2.899265  0
N  N126  1  0.85283669  0.44559424  0.47111604  1  -1.179343  0  -0.360767  -0.427531  0  2.899238  0
N  N127  1  0.64716341  0.05440547  0.97111657  1  -1.179357  0  -0.360766  -0.427531  0  2.899288  0
N  N128  1  0.04308879  0.71742036  0.85843966  1  -1.171838  0  -0.401907  -0.427236  0  3.332385  0
N  N129  1  0.45691177  0.78257956  0.35843966  1  -1.171622  0  -0.401917  -0.42725  0  3.33232  0
N  N130  1  0.95691263  0.28258002  0.14156012  1  -1.171633  0  -0.401913  -0.427232  0  3.332245  0
N  N131  1  0.54308850  0.21742013  0.64156012  1  -1.171678  0  -0.401905  -0.427232  0  3.332308  0
N  N132  1  0.23964656  0.76883681  0.92570878  1  -1.179549  0  -0.388141  -0.420996  0  3.324255  0
N  N133  1  0.26035270  0.73116179  0.42570873  1  -1.179376  0  -0.388141  -0.420984  0  3.324193  0
N  N134  1  0.76035354  0.23116220  0.07429100  1  -1.179587  0  -0.38809  -0.420892  0  3.324228  0
N  N135  1  0.73964740  0.26883722  0.57429167  1  -1.179376  0  -0.388178  -0.421071  0  3.324316  0
N  N136  1  0.11693119  0.72111128  0.64033580  1  -1.11392  0  -0.363222  -0.42719  0  2.927002  0
N  N137  1  0.38306766  0.77888986  0.14033579  1  -1.113949  0  -0.363245  -0.427207  0  2.927042  0
N  N138  1  0.88306924  0.27888910  0.35966398  1  -1.113949  0  -0.363218  -0.42717  0  2.92701  0
N  N139  1  0.61693098  0.22111121  0.85966461  1  -1.113942  0  -0.363205  -0.427172  0  2.927026  0
N  N140  1  0.48736320  0.83002017  0.76933019  1  -1.129519  0  -0.28805  -0.34524  0  2.778796  0
N  N141  1  0.01263699  0.66997831  0.26933072  1  -1.129523  0  -0.288064  -0.345243  0  2.77882  0
N  N142  1  0.51263771  0.16997815  0.23066959  1  -1.129494  0  -0.288027  -0.345219  0  2.778805  0
N  N143  1  0.98736311  0.33002070  0.73066906  1  -1.129549  0  -0.288068  -0.345263  0  2.778854  0
O  O144  1  0.28386709  0.04935795  0.68075127  1  -1.104689  0  -0.307494  -0.263124  0  2.600427  0
O  O145  1  0.21613368  0.45064238  0.18075135  1  -1.104666  0  -0.307485  -0.263095  0  2.6003  0
O  O146  1  0.71613237  0.95064243  0.31924851  1  -1.104656  0  -0.307465  -0.26309  0  2.600358  0
O  O147  1  0.78386774  0.54935801  0.81924905  1  -1.104669  0  -0.307494  -0.263148  0  2.600386  0
O  O148  1  0.31378461  0.19456684  0.78458368  1  -1.086611  0  -0.295266  -0.264041  0  2.598571  0
O  O149  1  0.18621621  0.30543356  0.28458242  1  -1.0866  0  -0.29526  -0.264019  0  2.598548  0
O  O150  1  0.68621387  0.80543354  0.21541673  1  -1.086635  0  -0.295219  -0.263935  0  2.598519  0
O  O151  1  0.81378521  0.69456682  0.71541673  1  -1.086621  0  -0.295286  -0.264042  0  2.598574  0
F  F152  1  0.93384221  0.13959554  0.49714306  1  -0.624549  0  -0.080426  -0.208077  0  1.346643  0
F  F153  1  0.56615773  0.36040350  0.99714314  1  -0.624564  0  -0.080437  -0.20807  0  1.346654  0
F  F154  1  0.06615921  0.86040484  0.50285610  1  -0.624581  0  -0.080452  -0.208121  0  1.346619  0
F  F155  1  0.43383994  0.63959757  0.00285664  1  -0.62459  0  -0.080432  -0.208073  0  1.346662  0
F  F156  1  0.11949505  0.08574052  0.51766822  1  -0.612949  0  -0.090287  -0.201952  0  1.316007  0
F  F157  1  0.38050567  0.41425968  0.01766830  1  -0.612937  0  -0.090243  -0.201893  0  1.316036  0
F  F158  1  0.88050752  0.91426055  0.48233093  1  -0.612933  0  -0.09027  -0.201983  0  1.316025  0
F  F159  1  0.61949183  0.58574070  0.98233211  1  -0.612912  0  -0.090301  -0.202008  0  1.315975  0
F  F160  1  0.99202879  0.10602031  0.62438648  1  -0.604723  0  -0.098746  -0.207513  0  1.27415  0
F  F161  1  0.50797118  0.39397915  0.12438651  1  -0.604723  0  -0.098735  -0.207478  0  1.274159  0
F  F162  1  0.00797229  0.89397870  0.37561268  1  -0.604749  0  -0.09876  -0.207532  0  1.274105  0
F  F163  1  0.49202615  0.60602055  0.87561327  1  -0.604734  0  -0.098736  -0.207516  0  1.274014  0
F  F164  1  0.11855641  0.71141626  0.07710686  1  -0.620156  0  -0.072926  -0.195423  0  1.378374  0
F  F165  1  0.38144273  0.78858208  0.57710693  1  -0.620147  0  -0.072914  -0.195435  0  1.378376  0
F  F166  1  0.88144420  0.28858481  0.92289354  1  -0.620148  0  -0.072931  -0.195455  0  1.378303  0
F  F167  1  0.61855916  0.21141624  0.42289285  1  -0.620182  0  -0.072952  -0.195466  0  1.378339  0
F  F168  1  0.93182567  0.65526535  0.01218403  1  -0.622248  0  -0.085591  -0.20793  0  1.30675  0
F  F169  1  0.56817317  0.84473417  0.51218473  1  -0.622227  0  -0.085596  -0.207942  0  1.30674  0
F  F170  1  0.06817639  0.34473366  0.98781638  1  -0.622257  0  -0.085613  -0.207941  0  1.306714  0
F  F171  1  0.43182808  0.15526553  0.48781505  1  -0.622225  0  -0.085596  -0.207949  0  1.306752  0
F  F172  1  0.98549495  0.80354892  0.03448023  1  -0.611687  0  -0.097342  -0.211999  0  1.292545  0
F  F173  1  0.51450569  0.69644994  0.53447959  1  -0.611709  0  -0.097362  -0.212022  0  1.292489  0
F  F174  1  0.01450434  0.19645078  0.96551955  1  -0.611699  0  -0.09735  -0.21202  0  1.292534  0
F  F175  1  0.48549637  0.30354907  0.46551956  1  -0.611665  0  -0.09733  -0.211988  0  1.292534  0
