# generated using pymatgen
data_YH9C12(NO)6
_symmetry_space_group_name_H-M   'P 1'
_cell_length_a   10.40041075
_cell_length_b   11.36376724
_cell_length_c   16.36890645
_cell_angle_alpha   99.92760589
_cell_angle_beta   104.79962475
_cell_angle_gamma   108.69116152
_symmetry_Int_Tables_number   1
_chemical_formula_structural   YH9C12(NO)6
_chemical_formula_sum   'Y4 H36 C48 N24 O24'
_cell_volume   1702.12634251
_cell_formula_units_Z   4
loop_
 _symmetry_equiv_pos_site_id
 _symmetry_equiv_pos_as_xyz
  1  'x, y, z'
loop_
 _atom_site_type_symbol
 _atom_site_label
 _atom_site_symmetry_multiplicity
 _atom_site_fract_x
 _atom_site_fract_y
 _atom_site_fract_z
 _atom_site_occupancy
 _atom_site_pbe_bader_charge
 _atom_site_pbe_bader_spin_density
 _atom_site_pbe_cm5_charge
 _atom_site_pbe_ddec_charge
 _atom_site_pbe_ddec_spin_density
 _atom_site_pbe_ddec_sum_bond_order
 _atom_site_pbe_magmom
Y  Y0  1  0.97594854  0.21066442  0.23784215  1  2.298138  0  1.318902  1.836669  0  2.47121  0
Y  Y1  1  0.02405091  0.78933561  0.76215768  1  2.298155  0  1.318905  1.836728  0  2.471126  0
Y  Y2  1  0.26228038  0.54688903  0.25971346  1  2.291766  0  1.313453  1.820708  0  2.48656  0
Y  Y3  1  0.73771907  0.45311100  0.74028698  1  2.291759  0  1.313473  1.820731  0  2.486553  0
H  H4  1  0.80155831  0.46838245  0.54378991  1  0.506102  0  0.325701  0.247053  0  1.003986  0
H  H5  1  0.19844115  0.53161758  0.45620992  1  0.506112  0  0.325709  0.247057  0  1.003993  0
H  H6  1  0.82611867  0.29199154  0.89434462  1  0.53243  0  0.324016  0.25759  0  0.999295  0
H  H7  1  0.17388318  0.70800946  0.10565572  1  0.532423  0  0.324011  0.257574  0  0.999316  0
H  H8  1  0.95118815  0.77973267  0.96840715  1  0.516676  0  0.32048  0.244682  0  1.004619  0
H  H9  1  0.04881271  0.22026834  0.03159180  1  0.516679  0  0.320479  0.244694  0  1.004643  0
H  H10  1  0.00142999  0.92374364  0.17424222  1  0.537969  0  0.320093  0.242172  0  1.032905  0
H  H11  1  0.99856906  0.07625543  0.82575803  1  0.538068  0  0.320103  0.242162  0  1.032912  0
H  H12  1  0.59341587  0.56476499  0.40002116  1  0.519506  0  0.324603  0.260679  0  0.992015  0
H  H13  1  0.40658540  0.43523697  0.59997981  1  0.519443  0  0.324589  0.260652  0  0.992029  0
H  H14  1  0.79088835  0.37013072  0.32626507  1  0.53139  0  0.322457  0.250236  0  1.021353  0
H  H15  1  0.20911251  0.62987029  0.67373510  1  0.531382  0  0.322471  0.250301  0  1.021335  0
H  H16  1  0.06196532  0.19813584  0.48998691  1  0.108454  0  0.117159  0.137801  0  0.977536  0
H  H17  1  0.93803513  0.80186420  0.51001369  1  0.10849  0  0.117168  0.13779  0  0.977538  0
H  H18  1  0.05658195  0.26896765  0.64414913  1  0.102479  0  0.117021  0.139856  0  0.964492  0
H  H19  1  0.94341692  0.73103335  0.35585133  1  0.102483  0  0.117035  0.139872  0  0.964439  0
H  H20  1  0.92191087  0.55561322  0.18320009  1  0.150389  0  0.121819  0.14304  0  0.994127  0
H  H21  1  0.07808858  0.44438681  0.81680096  1  0.150409  0  0.121829  0.143059  0  0.99412  0
H  H22  1  0.78194245  0.60290026  0.05096583  1  0.111989  0  0.119284  0.141629  0  0.97168  0
H  H23  1  0.21805742  0.39710074  0.94903357  1  0.111999  0  0.119273  0.141618  0  0.971676  0
H  H24  1  0.68487232  0.05372933  0.99585270  1  0.125552  0  0.120224  0.139893  0  0.968215  0
H  H25  1  0.31512813  0.94627071  0.00414790  1  0.125542  0  0.120221  0.13992  0  0.968162  0
H  H26  1  0.69463103  0.96428241  0.84629869  1  0.133319  0  0.118026  0.141002  0  0.968763  0
H  H27  1  0.30536924  0.03571956  0.15370211  1  0.133328  0  0.118042  0.141008  0  0.968758  0
H  H28  1  0.24630849  0.04171853  0.44425702  1  0.06891  0  0.11529  0.137069  0  0.971011  0
H  H29  1  0.75369155  0.95828053  0.55574340  1  0.068912  0  0.115291  0.137076  0  0.971009  0
H  H30  1  0.35881556  0.88096910  0.40671548  1  0.117052  0  0.117211  0.137228  0  0.97729  0
H  H31  1  0.64118431  0.11903190  0.59328392  1  0.117042  0  0.117235  0.137235  0  0.977287  0
H  H32  1  0.44801006  0.77207146  0.57004168  1  0.118418  0  0.119113  0.142512  0  0.967575  0
H  H33  1  0.55198857  0.22792664  0.42995900  1  0.118415  0  0.11912  0.142535  0  0.96757  0
H  H34  1  0.63403747  0.75415100  0.69637111  1  0.118435  0  0.120938  0.139638  0  0.984127  0
H  H35  1  0.36595975  0.24584613  0.30362923  1  0.118381  0  0.12094  0.139636  0  0.98414  0
H  H36  1  0.40606998  0.38909068  0.09961379  1  0.118842  0  0.113996  0.134002  0  1.000781  0
H  H37  1  0.59392948  0.61090935  0.90038542  1  0.118788  0  0.113998  0.134014  0  1.000793  0
H  H38  1  0.54899999  0.25952703  0.05697899  1  0.088727  0  0.115447  0.137725  0  0.969057  0
H  H39  1  0.45100087  0.74047397  0.94302118  1  0.08873  0  0.115456  0.137735  0  0.969062  0
C  C40  1  0.92634113  0.29669702  0.43666895  1  1.279934  0  0.209979  0.453663  0  4.190692  0
C  C41  1  0.07365650  0.70330108  0.56333157  1  1.279915  0  0.209986  0.453725  0  4.190633  0
C  C42  1  0.00304846  0.25747866  0.50623901  1  -0.005267  0  -0.067667  -0.152546  0  3.908878  0
C  C43  1  0.99695140  0.74252234  0.49376161  1  -0.005317  0  -0.067648  -0.152494  0  3.908811  0
C  C44  1  0.99995005  0.29555113  0.58911684  1  -0.056255  0  -0.077662  -0.184637  0  3.946422  0
C  C45  1  0.00004999  0.70444794  0.41088357  1  -0.056257  0  -0.077716  -0.184701  0  3.94646  0
C  C46  1  0.91910444  0.37278294  0.60652076  1  1.256796  0  0.225434  0.460737  0  4.147653  0
C  C47  1  0.08089343  0.62721806  0.39347954  1  1.256777  0  0.225422  0.46075  0  4.147688  0
C  C48  1  0.95026653  0.39802809  0.10375293  1  1.219323  0  0.210914  0.433906  0  4.180011  0
C  C49  1  0.04973433  0.60197291  0.89624786  1  1.219387  0  0.210938  0.433928  0  4.179975  0
C  C50  1  0.89574895  0.49890118  0.11598772  1  -0.035963  0  -0.065089  -0.160522  0  3.913552  0
C  C51  1  0.10425191  0.50109982  0.88401245  1  -0.035974  0  -0.065096  -0.160552  0  3.913549  0
C  C52  1  0.81977145  0.52381603  0.04479882  1  -0.045836  0  -0.072414  -0.172951  0  3.91152  0
C  C53  1  0.18022941  0.47618497  0.95520197  1  -0.045825  0  -0.07241  -0.172923  0  3.911511  0
C  C54  1  0.79569423  0.44992583  0.95767185  1  1.279217  0  0.227506  0.466697  0  4.145852  0
C  C55  1  0.20430721  0.55007421  0.04232830  1  1.278924  0  0.227495  0.466695  0  4.145778  0
C  C56  1  0.82100138  0.96331402  0.06151944  1  1.266065  0  0.202843  0.435683  0  4.220257  0
C  C57  1  0.17900007  0.03668602  0.93848071  1  1.266056  0  0.202834  0.43562  0  4.220318  0
C  C58  1  0.74266233  0.99071145  0.98549741  1  -0.092317  0  -0.06682  -0.155402  0  3.912664  0
C  C59  1  0.25733952  0.00928956  0.01450292  1  -0.092328  0  -0.066804  -0.155381  0  3.912566  0
C  C60  1  0.74804224  0.94270731  0.90494688  1  0.000692  0  -0.077536  -0.181977  0  3.938623  0
C  C61  1  0.25195762  0.05729369  0.09505313  1  0.000697  0  -0.077564  -0.182009  0  3.938617  0
C  C62  1  0.83308794  0.86626227  0.89589381  1  1.263131  0  0.226715  0.461807  0  4.157644  0
C  C63  1  0.16691251  0.13373777  0.10410557  1  1.26312  0  0.226734  0.461847  0  4.157655  0
C  C64  1  0.11449628  0.00158761  0.30877500  1  1.282718  0  0.22267  0.461137  0  4.155226  0
C  C65  1  0.88550318  0.99841243  0.69122483  1  1.282507  0  0.222712  0.461192  0  4.154993  0
C  C66  1  0.21862841  0.98377925  0.37728346  1  -0.031405  0  -0.080783  -0.19351  0  3.959899  0
C  C67  1  0.78137204  0.01622078  0.62271653  1  -0.031418  0  -0.0808  -0.193543  0  3.959926  0
C  C68  1  0.27984903  0.89809782  0.35703541  1  -0.071319  0  -0.069344  -0.15422  0  3.91393  0
C  C69  1  0.72015142  0.10190222  0.64296396  1  -0.071323  0  -0.069351  -0.154219  0  3.913942  0
C  C70  1  0.23795066  0.82395858  0.26718393  1  1.279682  0  0.200832  0.436651  0  4.224042  0
C  C71  1  0.76204839  0.17604048  0.73281510  1  1.279763  0  0.200877  0.436735  0  4.223927  0
C  C72  1  0.50488631  0.66632380  0.47086092  1  1.267625  0  0.225323  0.460367  0  4.154095  0
C  C73  1  0.49511414  0.33367624  0.52914030  1  1.267724  0  0.225377  0.460375  0  4.154105  0
C  C74  1  0.52024599  0.72400238  0.55990439  1  -0.01013  0  -0.074751  -0.182665  0  3.92876  0
C  C75  1  0.47975405  0.27599669  0.44009603  1  -0.010193  0  -0.074774  -0.182736  0  3.9287  0
C  C76  1  0.61876255  0.71294782  0.62779767  1  -0.021081  0  -0.059894  -0.141904  0  3.914955  0
C  C77  1  0.38123549  0.28705124  0.37220181  1  -0.021019  0  -0.059893  -0.141875  0  3.914929  0
C  C78  1  0.70644682  0.64335292  0.60995123  1  1.229661  0  0.213932  0.429343  0  4.174652  0
C  C79  1  0.29355223  0.35664614  0.39004903  1  1.22966  0  0.213879  0.429291  0  4.174595  0
C  C80  1  0.53090402  0.44744892  0.23861632  1  1.269952  0  0.206119  0.44527  0  4.203656  0
C  C81  1  0.46909561  0.55254918  0.76138330  1  1.269949  0  0.206143  0.4453  0  4.203651  0
C  C82  1  0.49556192  0.38172091  0.14755674  1  -0.018457  0  -0.072067  -0.158327  0  3.909031  0
C  C83  1  0.50443754  0.61827912  0.85244309  1  -0.018421  0  -0.072093  -0.158374  0  3.909054  0
C  C84  1  0.57245628  0.31234987  0.12468585  1  -0.065355  0  -0.081799  -0.19285  0  3.960924  0
C  C85  1  0.42754516  0.68765017  0.87531369  1  -0.065355  0  -0.081786  -0.192858  0  3.96094  0
C  C86  1  0.68856664  0.30535946  0.19118268  1  1.269547  0  0.222674  0.463847  0  4.1536  0
C  C87  1  0.31143182  0.69464057  0.80881760  1  1.269592  0  0.222612  0.463901  0  4.153548  0
N  N88  1  0.85551115  0.40732043  0.53623781  1  -0.792449  0  -0.257109  -0.147047  0  3.711291  0
N  N89  1  0.14448789  0.59267863  0.46376244  1  -0.792492  0  -0.257069  -0.147022  0  3.711285  0
N  N90  1  0.85591691  0.37243140  0.45356348  1  -0.700146  0  -0.224962  -0.274384  0  3.244213  0
N  N91  1  0.14408155  0.62756863  0.54643680  1  -0.700079  0  -0.224976  -0.274421  0  3.244229  0
N  N92  1  0.91998176  0.32304893  0.02409695  1  -0.68863  0  -0.209396  -0.252849  0  3.230809  0
N  N93  1  0.08001910  0.67695208  0.97590323  1  -0.688641  0  -0.209449  -0.252907  0  3.23082  0
N  N94  1  0.84129166  0.34927475  0.95502980  1  -0.825284  0  -0.261787  -0.168014  0  3.653313  0
N  N95  1  0.15871061  0.65072723  0.04497071  1  -0.82527  0  -0.261734  -0.167947  0  3.653211  0
N  N96  1  0.88703233  0.88105934  0.05152527  1  -0.743169  0  -0.22904  -0.281453  0  3.231382  0
N  N97  1  0.11296912  0.11894070  0.94847489  1  -0.743151  0  -0.228987  -0.28134  0  3.231333  0
N  N98  1  0.89009416  0.83593511  0.97009948  1  -0.813207  0  -0.263479  -0.161678  0  3.685968  0
N  N99  1  0.10990711  0.16406686  0.02990026  1  -0.813215  0  -0.263531  -0.161804  0  3.686062  0
N  N100  1  0.07866509  0.92128698  0.22756162  1  -0.821645  0  -0.26103  -0.150037  0  3.703256  0
N  N101  1  0.92133536  0.07871306  0.77243898  1  -0.821744  0  -0.261043  -0.15002  0  3.703264  0
N  N102  1  0.13600465  0.83539581  0.20425894  1  -0.7007  0  -0.228277  -0.282153  0  3.226831  0
N  N103  1  0.86399439  0.16460326  0.79574071  1  -0.700763  0  -0.228257  -0.282157  0  3.226834  0
N  N104  1  0.59972661  0.60890311  0.46242639  1  -0.805438  0  -0.258278  -0.160885  0  3.652094  0
N  N105  1  0.40027425  0.39109790  0.53757378  1  -0.80541  0  -0.258263  -0.160795  0  3.652053  0
N  N106  1  0.69697141  0.59359181  0.52808997  1  -0.709824  0  -0.206749  -0.245272  0  3.232935  0
N  N107  1  0.30302945  0.40640919  0.47191081  1  -0.709836  0  -0.206723  -0.245274  0  3.232781  0
N  N108  1  0.64099032  0.44444009  0.30019965  1  -0.690457  0  -0.227048  -0.275469  0  3.22828  0
N  N109  1  0.35900914  0.55555994  0.69980018  1  -0.690463  0  -0.227047  -0.275443  0  3.228352  0
N  N110  1  0.71423916  0.37532763  0.27419514  1  -0.826375  0  -0.261216  -0.151388  0  3.689991  0
N  N111  1  0.28575988  0.62467144  0.72580390  1  -0.826372  0  -0.261213  -0.15154  0  3.690022  0
O  O112  1  0.90530128  0.40726746  0.68121685  1  -1.211241  0  -0.369459  -0.613632  0  2.320655  0
O  O113  1  0.09469800  0.59273451  0.31878379  1  -1.211207  0  -0.369455  -0.613649  0  2.320661  0
O  O114  1  0.92255924  0.26282170  0.35592724  1  -1.246825  0  -0.438815  -0.661111  0  2.336845  0
O  O115  1  0.07743940  0.73717640  0.64407223  1  -1.24686  0  -0.438821  -0.66117  0  2.336899  0
O  O116  1  0.03623512  0.38068753  0.17142597  1  -1.252977  0  -0.438159  -0.701456  0  2.392056  0
O  O117  1  0.96376532  0.61931250  0.82857463  1  -1.25303  0  -0.438164  -0.701481  0  2.392022  0
O  O118  1  0.74023958  0.47657486  0.88819831  1  -1.1995  0  -0.356776  -0.586492  0  2.277128  0
O  O119  1  0.25976087  0.52342518  0.11180229  1  -1.199226  0  -0.356771  -0.586501  0  2.277097  0
O  O120  1  0.83281818  0.01886998  0.14076442  1  -1.218722  0  -0.4266  -0.644616  0  2.252244  0
O  O121  1  0.16718186  0.98112909  0.85923600  1  -1.218729  0  -0.426608  -0.644606  0  2.252304  0
O  O122  1  0.85607198  0.82947819  0.82493235  1  -1.212015  0  -0.363749  -0.614985  0  2.342269  0
O  O123  1  0.14392747  0.17052185  0.17506748  1  -1.211995  0  -0.363756  -0.615001  0  2.342281  0
O  O124  1  0.05934889  0.08578808  0.32132617  1  -1.201488  0  -0.375934  -0.607471  0  2.269681  0
O  O125  1  0.94065115  0.91421099  0.67867364  1  -1.201281  0  -0.37598  -0.607543  0  2.269469  0
O  O126  1  0.29463799  0.74263721  0.24340822  1  -1.230678  0  -0.43566  -0.653992  0  2.274292  0
O  O127  1  0.70536205  0.25736186  0.75659158  1  -1.230663  0  -0.43571  -0.654056  0  2.274181  0
O  O128  1  0.40980841  0.66651732  0.40416994  1  -1.209509  0  -0.369216  -0.603671  0  2.30955  0
O  O129  1  0.59019163  0.33348175  0.59582986  1  -1.209531  0  -0.369232  -0.603667  0  2.309584  0
O  O130  1  0.79654329  0.62402209  0.67430763  1  -1.253772  0  -0.437072  -0.703016  0  2.400267  0
O  O131  1  0.20345576  0.37597698  0.32569263  1  -1.253767  0  -0.437071  -0.702991  0  2.400258  0
O  O132  1  0.45778944  0.51039101  0.26524700  1  -1.246103  0  -0.439375  -0.659419  0  2.335617  0
O  O133  1  0.54220778  0.48960612  0.73475334  1  -1.246094  0  -0.439402  -0.659436  0  2.335672  0
O  O134  1  0.76289411  0.23991317  0.17521388  1  -1.207344  0  -0.375186  -0.608314  0  2.299297  0
O  O135  1  0.23710353  0.76008493  0.82478542  1  -1.207359  0  -0.37514  -0.608297  0  2.299345  0
