# generated using pymatgen
data_Zr3H14C48(O4F3)4
_symmetry_space_group_name_H-M   'P 1'
_cell_length_a   21.64765870
_cell_length_b   21.64765692
_cell_length_c   21.64807988
_cell_angle_alpha   89.99909501
_cell_angle_beta   120.00002841
_cell_angle_gamma   60.00118994
_symmetry_Int_Tables_number   1
_chemical_formula_structural   Zr3H14C48(O4F3)4
_chemical_formula_sum   'Zr6 H28 C96 O32 F24'
_cell_volume   7173.48851574
_cell_formula_units_Z   2
loop_
 _symmetry_equiv_pos_site_id
 _symmetry_equiv_pos_as_xyz
  1  'x, y, z'
loop_
 _atom_site_type_symbol
 _atom_site_label
 _atom_site_symmetry_multiplicity
 _atom_site_fract_x
 _atom_site_fract_y
 _atom_site_fract_z
 _atom_site_occupancy
 _atom_site_pbe_bader_charge
 _atom_site_pbe_bader_spin_density
 _atom_site_pbe_cm5_charge
 _atom_site_pbe_ddec_charge
 _atom_site_pbe_ddec_spin_density
 _atom_site_pbe_ddec_sum_bond_order
 _atom_site_pbe_magmom
Zr  Zr0  1  0.00001714  0.58169896  0.08171125  1  2.631417  0  1.628085  2.372694  0  2.756071  0
Zr  Zr1  1  0.99995449  0.41831637  0.91826077  1  2.629674  0  1.628149  2.372857  0  2.755892  0
Zr  Zr2  1  0.99998201  0.41828234  0.08171349  1  2.621832  0  1.627981  2.372651  0  2.756336  0
Zr  Zr3  1  0.99997627  0.58174216  0.91826863  1  2.623602  0  1.628035  2.372854  0  2.756137  0
Zr  Zr4  1  0.16334529  0.41830771  0.08166049  1  2.639006  0  1.6275  2.372747  0  2.755568  0
Zr  Zr5  1  0.83656222  0.58173613  0.91829662  1  2.63793  0  1.627522  2.373033  0  2.755844  0
H  H6  1  0.12863746  0.43567759  0.19293265  1  0.581841  0  0.331747  0.423151  0  0.856209  0
H  H7  1  0.12862471  0.43568608  0.93569142  1  0.60032  0  0.331734  0.423137  0  0.856122  0
H  H8  1  0.87135881  0.43568749  0.93568202  1  0.619716  0  0.331617  0.422772  0  0.856442  0
H  H9  1  0.87136933  0.69295854  0.93569063  1  0.651514  0  0.331635  0.42297  0  0.856381  0
H  H10  1  0.18360063  0.60073097  0.28261930  1  0.112386  0  0.121298  0.155018  0  0.97627  0
H  H11  1  0.38339234  0.40100070  0.28260090  1  0.109308  0  0.121209  0.154989  0  0.976357  0
H  H12  1  0.61661691  0.60080131  0.71561195  1  0.151798  0  0.121266  0.155041  0  0.976378  0
H  H13  1  0.81638676  0.40102372  0.71561921  1  0.153116  0  0.121311  0.15504  0  0.976233  0
H  H14  1  0.81640980  0.78261770  0.10073407  1  0.112042  0  0.121289  0.155026  0  0.976343  0
H  H15  1  0.61661705  0.78259493  0.90101063  1  0.109865  0  0.121217  0.155039  0  0.976276  0
H  H16  1  0.38338684  0.21561236  0.10080174  1  0.152312  0  0.121254  0.15505  0  0.976309  0
H  H17  1  0.18361885  0.21561265  0.90102838  1  0.153199  0  0.12131  0.155036  0  0.9763  0
H  H18  1  0.38334905  0.40101091  0.10075342  1  0.141689  0  0.121191  0.154921  0  0.976215  0
H  H19  1  0.18356859  0.60082000  0.90101231  1  0.115296  0  0.121291  0.155017  0  0.976362  0
H  H20  1  0.81639093  0.40103359  0.10080274  1  0.115895  0  0.121259  0.154929  0  0.9762  0
H  H21  1  0.61662620  0.60078827  0.90101738  1  0.141826  0  0.121216  0.154914  0  0.976334  0
H  H22  1  0.61665772  0.78264724  0.71570268  1  0.113093  0  0.12132  0.155044  0  0.976153  0
H  H23  1  0.81642287  0.78259827  0.71564076  1  0.109299  0  0.121254  0.154844  0  0.976252  0
H  H24  1  0.18361224  0.21561824  0.28260804  1  0.109794  0  0.121228  0.154906  0  0.976258  0
H  H25  1  0.38337864  0.21561727  0.28259321  1  0.11301  0  0.121229  0.155018  0  0.976171  0
H  H26  1  0.99829699  0.40097571  0.28263036  1  0.121669  0  0.121292  0.154984  0  0.976308  0
H  H27  1  0.99821384  0.60079094  0.28257665  1  0.123446  0  0.121275  0.154876  0  0.976421  0
H  H28  1  0.99819648  0.40101850  0.71560854  1  0.120335  0  0.121295  0.15502  0  0.976208  0
H  H29  1  0.99821214  0.60078216  0.71560951  1  0.107256  0  0.121273  0.155004  0  0.976171  0
H  H30  1  0.00171607  0.78265265  0.90101483  1  0.122979  0  0.12125  0.15487  0  0.976327  0
H  H31  1  0.00179332  0.78257248  0.10082380  1  0.122323  0  0.121372  0.155018  0  0.976093  0
H  H32  1  0.00180735  0.21560631  0.90104690  1  0.120707  0  0.121257  0.154953  0  0.976328  0
H  H33  1  0.00180077  0.21563668  0.10081674  1  0.106666  0  0.121307  0.154933  0  0.976257  0
C  C34  1  0.20759882  0.50175327  0.20580610  1  1.546425  0  0.237842  0.638999  0  4.09444  0
C  C35  1  0.20758304  0.29063945  0.00178460  1  1.54528  0  0.237806  0.639024  0  4.094294  0
C  C36  1  0.79239893  0.50179922  0.79063356  1  1.545213  0  0.237847  0.639011  0  4.094439  0
C  C37  1  0.79241397  0.70581293  0.00177186  1  1.546586  0  0.238021  0.639372  0  4.094519  0
C  C38  1  0.99646069  0.50177928  0.20580630  1  1.540843  0  0.237686  0.638875  0  4.094783  0
C  C39  1  0.00354672  0.70581820  0.00179739  1  1.539873  0  0.237743  0.638752  0  4.094709  0
C  C40  1  0.99643569  0.50178381  0.79063013  1  1.550286  0  0.237946  0.639157  0  4.094192  0
C  C41  1  0.00356232  0.29063834  0.00179275  1  1.549853  0  0.237748  0.638943  0  4.095007  0
C  C42  1  0.20758845  0.29063445  0.20580673  1  1.551481  0  0.23782  0.639076  0  4.094159  0
C  C43  1  0.79240773  0.50178994  0.00178246  1  1.552414  0  0.237772  0.639012  0  4.094626  0
C  C44  1  0.79242796  0.70582223  0.79065254  1  1.539415  0  0.237779  0.639057  0  4.094586  0
C  C45  1  0.20755825  0.50179392  0.00176974  1  1.555215  0  0.237769  0.638863  0  4.09475  0
C  C46  1  0.27650690  0.50116787  0.27531528  1  0.00097  0  -0.010764  0.015705  0  3.989449  0
C  C47  1  0.25218656  0.55701112  0.30777167  1  0.063279  0  -0.095845  -0.24203  0  3.984427  0
C  C48  1  0.31701904  0.55535959  0.37224456  1  0.481437  0  0.114093  0.275028  0  4.038653  0
C  C49  1  0.40699638  0.49984293  0.40715403  1  0.186663  0  -0.009187  -0.074058  0  4.123657  0
C  C50  1  0.42762280  0.44479299  0.37223422  1  0.44117  0  0.11426  0.275422  0  4.038086  0
C  C51  1  0.36481511  0.44442068  0.30776068  1  0.078484  0  -0.095702  -0.242068  0  3.984528  0
C  C52  1  0.47184282  0.49960937  0.47225136  1  -0.039916  0  -0.029204  -0.050161  0  4.121086  0
C  C53  1  0.52814218  0.49962403  0.52854813  1  -0.202184  0  -0.029231  -0.049915  0  4.121142  0
C  C54  1  0.59299665  0.49987845  0.59314489  1  0.190443  0  -0.009207  -0.07448  0  4.123892  0
C  C55  1  0.57237849  0.55541646  0.62757624  1  0.441939  0  0.11432  0.275436  0  4.038046  0
C  C56  1  0.63519009  0.55707763  0.69075362  1  0.056128  0  -0.095878  -0.242262  0  3.984802  0
C  C57  1  0.72349218  0.50122032  0.72229565  1  -0.039966  0  -0.010785  0.015794  0  3.989683  0
C  C58  1  0.74781036  0.44445818  0.69075981  1  0.038312  0  -0.095723  -0.242037  0  3.98428  0
C  C59  1  0.68296823  0.44482476  0.62757959  1  0.483689  0  0.114202  0.275541  0  4.037653  0
C  C60  1  0.72350147  0.77531640  0.00117929  1  0.000374  0  -0.010879  0.015547  0  3.990137  0
C  C61  1  0.74782307  0.80777300  0.05701926  1  0.063653  0  -0.095746  -0.241998  0  3.984859  0
C  C62  1  0.68298819  0.87224506  0.05536490  1  0.481517  0  0.114059  0.27501  0  4.038701  0
C  C63  1  0.59301185  0.90714975  0.99985068  1  0.186774  0  -0.009174  -0.074006  0  4.123452  0
C  C64  1  0.57238427  0.87222874  0.94480011  1  0.441525  0  0.114226  0.275458  0  4.037892  0
C  C65  1  0.63519239  0.80775739  0.94442996  1  0.07761  0  -0.095687  -0.242102  0  3.984363  0
C  C66  1  0.52816474  0.97224945  0.99961490  1  -0.04008  0  -0.029291  -0.050282  0  4.120891  0
C  C67  1  0.47186459  0.02854850  0.99962617  1  -0.202181  0  -0.029161  -0.049822  0  4.120796  0
C  C68  1  0.40700682  0.09314540  0.99987984  1  0.189576  0  -0.009216  -0.074502  0  4.123583  0
C  C69  1  0.42762520  0.12757658  0.05541737  1  0.441841  0  0.114353  0.275509  0  4.0378  0
C  C70  1  0.36480932  0.19075552  0.05707644  1  0.055348  0  -0.095831  -0.242186  0  3.984476  0
C  C71  1  0.27650272  0.22229777  0.00121724  1  -0.039516  0  -0.010903  0.01566  0  3.989826  0
C  C72  1  0.25219645  0.19075225  0.94446252  1  0.037994  0  -0.095743  -0.242161  0  3.984762  0
C  C73  1  0.31703796  0.12757316  0.94482853  1  0.484802  0  0.114255  0.275588  0  4.037615  0
C  C74  1  0.27646768  0.50122247  0.00119330  1  0.004094  0  -0.010742  0.015622  0  3.989694  0
C  C75  1  0.36477354  0.44445333  0.05703810  1  0.015719  0  -0.09577  -0.242035  0  3.984134  0
C  C76  1  0.42758934  0.44482696  0.05538624  1  0.483508  0  0.114194  0.275618  0  4.037812  0
C  C77  1  0.40696377  0.49990027  0.99986644  1  0.208967  0  -0.009014  -0.074326  0  4.124347  0
C  C78  1  0.31699076  0.55543513  0.94481434  1  0.442171  0  0.113992  0.275176  0  4.037919  0
C  C79  1  0.25215199  0.55708864  0.94444214  1  0.05422  0  -0.095695  -0.241986  0  3.984819  0
C  C80  1  0.47180940  0.49966803  0.99962095  1  -0.238195  0  -0.029267  -0.050233  0  4.121211  0
C  C81  1  0.52813416  0.49965671  0.99963615  1  -0.017807  0  -0.029211  -0.049527  0  4.120674  0
C  C82  1  0.59299646  0.49989068  0.99988370  1  0.209579  0  -0.009218  -0.074944  0  4.124268  0
C  C83  1  0.68296929  0.44484006  0.05542219  1  0.445874  0  0.114197  0.27533  0  4.038057  0
C  C84  1  0.74780820  0.44446995  0.05707882  1  0.067424  0  -0.095614  -0.241645  0  3.984488  0
C  C85  1  0.72349861  0.50122235  0.00121975  1  -0.009758  0  -0.010966  0.015263  0  3.990094  0
C  C86  1  0.63519641  0.55707363  0.94445585  1  0.016515  0  -0.095733  -0.241804  0  3.984721  0
C  C87  1  0.57238572  0.55541677  0.94482344  1  0.481884  0  0.114305  0.275586  0  4.03809  0
C  C88  1  0.72352391  0.77533557  0.72235307  1  0.036346  0  -0.010955  0.015486  0  3.989454  0
C  C89  1  0.63522389  0.80780363  0.69083740  1  0.057248  0  -0.095718  -0.241942  0  3.984484  0
C  C90  1  0.57241372  0.87228056  0.62766880  1  0.469672  0  0.113996  0.275226  0  4.038511  0
C  C91  1  0.59302166  0.90717884  0.59319107  1  0.133881  0  -0.00909  -0.074326  0  4.123566  0
C  C92  1  0.68300316  0.87225393  0.62763056  1  0.553642  0  0.114054  0.275178  0  4.038068  0
C  C93  1  0.74783572  0.80777816  0.69080125  1  0.000621  0  -0.095596  -0.241588  0  3.983752  0
C  C94  1  0.52817412  0.97225282  0.52857123  1  -0.048611  0  -0.029312  -0.050078  0  4.121088  0
C  C95  1  0.47186042  0.02855407  0.47224785  1  -0.211816  0  -0.029181  -0.0501  0  4.120933  0
C  C96  1  0.40700428  0.09315616  0.40714868  1  0.165708  0  -0.009252  -0.074229  0  4.123709  0
C  C97  1  0.31703158  0.12759018  0.37223767  1  0.55444  0  0.114179  0.275393  0  4.038092  0
C  C98  1  0.25219546  0.19076231  0.30776045  1  0.001406  0  -0.095607  -0.241899  0  3.984294  0
C  C99  1  0.27650418  0.22230488  0.27530485  1  0.022211  0  -0.010967  0.015659  0  3.989426  0
C  C100  1  0.36480843  0.19076237  0.30775261  1  0.058442  0  -0.095668  -0.242026  0  3.984322  0
C  C101  1  0.42762285  0.12759160  0.37222841  1  0.466658  0  0.114238  0.275369  0  4.038162  0
C  C102  1  0.99765022  0.50118454  0.27531199  1  0.041661  0  -0.010677  0.015649  0  3.989765  0
C  C103  1  0.99858093  0.44441292  0.30777679  1  0.005163  0  -0.095667  -0.241965  0  3.984552  0
C  C104  1  0.99986767  0.44478548  0.37224439  1  0.457671  0  0.114031  0.275155  0  4.038158  0
C  C105  1  0.00031100  0.49986413  0.40714200  1  0.220903  0  -0.00913  -0.074094  0  4.123221  0
C  C106  1  0.99982349  0.55540132  0.37221662  1  0.450781  0  0.114211  0.275261  0  4.038232  0
C  C107  1  0.99853366  0.55705334  0.30774485  1  0.054499  0  -0.095726  -0.241834  0  3.984632  0
C  C108  1  0.00079326  0.49962092  0.47223645  1  -0.017549  0  -0.029225  -0.050188  0  4.120894  0
C  C109  1  0.00078778  0.49960947  0.52854247  1  -0.223742  0  -0.029258  -0.04994  0  4.121156  0
C  C110  1  0.00027447  0.49985968  0.59313809  1  0.213029  0  -0.009217  -0.074611  0  4.124153  0
C  C111  1  0.99977903  0.44481336  0.62757042  1  0.469981  0  0.114385  0.275697  0  4.037919  0
C  C112  1  0.99848310  0.44445143  0.69074636  1  0.00243  0  -0.095754  -0.24208  0  3.984599  0
C  C113  1  0.99758603  0.50120875  0.72229205  1  0.06377  0  -0.010774  0.015614  0  3.98962  0
C  C114  1  0.99849500  0.55706089  0.69074813  1  0.037835  0  -0.095726  -0.242101  0  3.984561  0
C  C115  1  0.99979372  0.55539680  0.62757493  1  0.442283  0  0.114369  0.275702  0  4.03801  0
C  C116  1  0.00236114  0.77532152  0.00122007  1  0.043174  0  -0.010761  0.015419  0  3.989254  0
C  C117  1  0.00143717  0.80779358  0.94445613  1  0.00439  0  -0.095523  -0.241358  0  3.984029  0
C  C118  1  0.00014578  0.87226077  0.94483479  1  0.458221  0  0.113812  0.2746  0  4.038213  0
C  C119  1  0.99969658  0.90715520  0.99991523  1  0.221699  0  -0.008947  -0.073911  0  4.123373  0
C  C120  1  0.00017731  0.87221760  0.05544130  1  0.450557  0  0.114207  0.27539  0  4.037382  0
C  C121  1  0.00146867  0.80775032  0.05708687  1  0.054649  0  -0.09576  -0.24195  0  3.984321  0
C  C122  1  0.99922986  0.97223624  0.99969006  1  -0.016296  0  -0.029345  -0.050318  0  4.121361  0
C  C123  1  0.99924760  0.02854158  0.99968704  1  -0.222816  0  -0.029096  -0.0497  0  4.120894  0
C  C124  1  0.99975183  0.09313946  0.99992475  1  0.210191  0  -0.009138  -0.074521  0  4.123886  0
C  C125  1  0.00023773  0.12756172  0.94486751  1  0.468821  0  0.114071  0.275329  0  4.037878  0
C  C126  1  0.00152170  0.19074961  0.94448414  1  0.003129  0  -0.095591  -0.241748  0  3.984059  0
C  C127  1  0.00241858  0.22230381  0.00123564  1  0.036721  0  -0.010771  0.015491  0  3.989762  0
C  C128  1  0.00150792  0.19077347  0.05709052  1  0.064937  0  -0.095758  -0.241916  0  3.984513  0
C  C129  1  0.00021791  0.12759437  0.05544360  1  0.442532  0  0.114183  0.275309  0  4.037809  0
O  O130  1  0.12811216  0.55421455  0.17895569  1  -1.178011  0  -0.355071  -0.616734  0  2.278926  0
O  O131  1  0.12809505  0.31767883  0.94914582  1  -1.177242  0  -0.354856  -0.616421  0  2.278262  0
O  O132  1  0.87188586  0.44915293  0.81767036  1  -1.176793  0  -0.355096  -0.616676  0  2.278986  0
O  O133  1  0.87190418  0.67895051  0.05422333  1  -1.177588  0  -0.354929  -0.616551  0  2.2786  0
O  O134  1  0.99663388  0.44914504  0.17895503  1  -1.174851  0  -0.354975  -0.616536  0  2.278929  0
O  O135  1  0.00336406  0.67897625  0.94915984  1  -1.17479  0  -0.354895  -0.616456  0  2.278961  0
O  O136  1  0.99662186  0.55423359  0.81766650  1  -1.174604  0  -0.354871  -0.616471  0  2.278772  0
O  O137  1  0.00337445  0.31767426  0.05423968  1  -1.174053  0  -0.354773  -0.616246  0  2.279391  0
O  O138  1  0.23317552  0.31767576  0.17894605  1  -1.180833  0  -0.35511  -0.616475  0  2.278594  0
O  O139  1  0.76681022  0.55423365  0.94914496  1  -1.178002  0  -0.355057  -0.616341  0  2.278943  0
O  O140  1  0.76682272  0.67896723  0.81767551  1  -1.179259  0  -0.355103  -0.616498  0  2.278835  0
O  O141  1  0.23314886  0.44915583  0.05420797  1  -1.17492  0  -0.355095  -0.616268  0  2.27866  0
O  O142  1  0.87189537  0.44914413  0.05422844  1  -1.177723  0  -0.354855  -0.61642  0  2.279111  0
O  O143  1  0.87191156  0.67896541  0.81767876  1  -1.173455  0  -0.354997  -0.616531  0  2.279384  0
O  O144  1  0.12807328  0.55425015  0.94913576  1  -1.179021  0  -0.354913  -0.616374  0  2.278929  0
O  O145  1  0.12810257  0.31766767  0.17896154  1  -1.171905  0  -0.354916  -0.616604  0  2.278836  0
O  O146  1  0.99663590  0.55422885  0.17894842  1  -1.175128  0  -0.354742  -0.616159  0  2.278966  0
O  O147  1  0.00336185  0.31767825  0.94914951  1  -1.176379  0  -0.354881  -0.616422  0  2.278762  0
O  O148  1  0.99662352  0.44914790  0.81766660  1  -1.175827  0  -0.355004  -0.616572  0  2.278962  0
O  O149  1  0.00337185  0.67895513  0.05424859  1  -1.174697  0  -0.3549  -0.616217  0  2.278893  0
O  O150  1  0.76680357  0.67896871  0.94913585  1  -1.17925  0  -0.355297  -0.6167  0  2.279381  0
O  O151  1  0.23317828  0.44912905  0.17894256  1  -1.181964  0  -0.354957  -0.616134  0  2.278395  0
O  O152  1  0.23317258  0.31768608  0.05422549  1  -1.180299  0  -0.355088  -0.616445  0  2.278902  0
O  O153  1  0.76680900  0.55424453  0.81767388  1  -1.18248  0  -0.355015  -0.616278  0  2.278828  0
O  O154  1  0.90792680  0.63811123  0.95396291  1  -1.281869  0  -0.694271  -1.070656  0  2.362697  0
O  O155  1  0.90791394  0.45397966  0.95396174  1  -1.249663  0  -0.694364  -1.070386  0  2.362941  0
O  O156  1  0.09202705  0.45398699  0.95394141  1  -1.23047  0  -0.694429  -1.070797  0  2.363213  0
O  O157  1  0.09204772  0.45396461  0.13808586  1  -1.212504  0  -0.694498  -1.070804  0  2.363185  0
O  O158  1  0.06778160  0.39825678  0.03388887  1  -1.192192  0  -0.790419  -1.148991  0  2.123723  0
O  O159  1  0.06780955  0.53393992  0.03389143  1  -1.195653  0  -0.790561  -1.149267  0  2.12362  0
O  O160  1  0.93215817  0.53393292  0.89826463  1  -1.191711  0  -0.790356  -1.149332  0  2.123694  0
O  O161  1  0.93217597  0.53390812  0.03390831  1  -1.195464  0  -0.790328  -1.149305  0  2.123659  0
F  F162  1  0.51307504  0.39043080  0.40400298  1  -0.625306  0  -0.093922  -0.130863  0  1.320474  0
F  F163  1  0.29440989  0.60902833  0.40402577  1  -0.626146  0  -0.093709  -0.130608  0  1.320829  0
F  F164  1  0.70557394  0.39043675  0.59650835  1  -0.626749  0  -0.093884  -0.130894  0  1.319826  0
F  F165  1  0.48693018  0.60908804  0.59649991  1  -0.624536  0  -0.09395  -0.130801  0  1.320413  0
F  F166  1  0.48693675  0.90399607  0.89043825  1  -0.625134  0  -0.093865  -0.130826  0  1.320537  0
F  F167  1  0.70560149  0.90402602  0.10903151  1  -0.626299  0  -0.093712  -0.130623  0  1.320773  0
F  F168  1  0.29443304  0.09649952  0.89044277  1  -0.626844  0  -0.093947  -0.130913  0  1.319812  0
F  F169  1  0.51307441  0.09650030  0.10909186  1  -0.62453  0  -0.093958  -0.130848  0  1.320396  0
F  F170  1  0.29439844  0.60911696  0.89044675  1  -0.624263  0  -0.093777  -0.130708  0  1.3201  0
F  F171  1  0.51304289  0.39044110  0.10905315  1  -0.619699  0  -0.093797  -0.130797  0  1.32009  0
F  F172  1  0.48693465  0.60909173  0.89044557  1  -0.619721  0  -0.093951  -0.130885  0  1.320185  0
F  F173  1  0.70557336  0.39046954  0.10910564  1  -0.623993  0  -0.093876  -0.130735  0  1.319969  0
F  F174  1  0.70560858  0.90400589  0.59654482  1  -0.62626  0  -0.09372  -0.130668  0  1.320754  0
F  F175  1  0.48696657  0.90406458  0.59662023  1  -0.62678  0  -0.09375  -0.130715  0  1.320771  0
F  F176  1  0.51306769  0.09651893  0.40400225  1  -0.626673  0  -0.093855  -0.130791  0  1.320639  0
F  F177  1  0.29443176  0.09651951  0.40401585  1  -0.626279  0  -0.093832  -0.13082  0  1.320635  0
F  F178  1  0.00050794  0.60908353  0.40397608  1  -0.623168  0  -0.093839  -0.130753  0  1.320717  0
F  F179  1  0.00058901  0.39039624  0.40403176  1  -0.622575  0  -0.093752  -0.13068  0  1.320449  0
F  F180  1  0.00050343  0.60906705  0.59650241  1  -0.623166  0  -0.093944  -0.130913  0  1.320354  0
F  F181  1  0.00047533  0.39043723  0.59649361  1  -0.622844  0  -0.093957  -0.130897  0  1.320081  0
F  F182  1  0.99949580  0.90397360  0.10913294  1  -0.623414  0  -0.09392  -0.130851  0  1.320232  0
F  F183  1  0.99942469  0.90405552  0.89045099  1  -0.623328  0  -0.093697  -0.130572  0  1.320546  0
F  F184  1  0.99950026  0.09653291  0.10911391  1  -0.622665  0  -0.093835  -0.130712  0  1.320415  0
F  F185  1  0.99953295  0.09648479  0.89048484  1  -0.622422  0  -0.093795  -0.130785  0  1.31997  0
