# generated using pymatgen
data_HgH14C18N4(ClO)2
_symmetry_space_group_name_H-M   'P 1'
_cell_length_a   8.33531828
_cell_length_b   9.18414918
_cell_length_c   11.46422163
_cell_angle_alpha   89.99984115
_cell_angle_beta   85.81415213
_cell_angle_gamma   89.99987553
_symmetry_Int_Tables_number   1
_chemical_formula_structural   HgH14C18N4(ClO)2
_chemical_formula_sum   'Hg2 H28 C36 N8 Cl4 O4'
_cell_volume   875.27732589
_cell_formula_units_Z   2
loop_
 _symmetry_equiv_pos_site_id
 _symmetry_equiv_pos_as_xyz
  1  'x, y, z'
loop_
 _atom_site_type_symbol
 _atom_site_label
 _atom_site_symmetry_multiplicity
 _atom_site_fract_x
 _atom_site_fract_y
 _atom_site_fract_z
 _atom_site_occupancy
 _atom_site_pbe_bader_charge
 _atom_site_pbe_bader_spin_density
 _atom_site_pbe_cm5_charge
 _atom_site_pbe_ddec_charge
 _atom_site_pbe_ddec_spin_density
 _atom_site_pbe_ddec_sum_bond_order
 _atom_site_pbe_magmom
Hg  Hg0  1  0.00000212  0.00000045  0.99999975  1  0.908434  0  0.544207  0.63361  0  2.499425  0
Hg  Hg1  1  0.49999840  0.49999908  0.50000030  1  0.9085  0  0.544215  0.633613  0  2.499432  0
H  H2  1  0.64284842  0.90301740  0.40264797  1  0.480887  0  0.296651  0.266175  0  0.986726  0
H  H3  1  0.85715586  0.40301914  0.09735119  1  0.480863  0  0.296627  0.266088  0  0.986824  0
H  H4  1  0.35715559  0.09698186  0.59735312  1  0.48087  0  0.29664  0.266116  0  0.98678  0
H  H5  1  0.14284695  0.59698011  0.90264647  1  0.480894  0  0.296627  0.266088  0  0.986872  0
H  H6  1  0.31724995  0.20272528  0.04495176  1  0.128223  0  0.100655  0.077775  0  1.04417  0
H  H7  1  0.18275125  0.70272563  0.45504679  1  0.128239  0  0.100647  0.077743  0  1.044175  0
H  H8  1  0.68275166  0.79727289  0.95505120  1  0.128478  0  0.100635  0.077754  0  1.044219  0
H  H9  1  0.81724554  0.29727472  0.54495468  1  0.128216  0  0.100657  0.077797  0  1.044162  0
H  H10  1  0.58901664  0.21230690  0.12756276  1  0.13465  0  0.105109  0.112997  0  1.04807  0
H  H11  1  0.91098599  0.71230945  0.37243368  1  0.134689  0  0.105138  0.113079  0  1.048018  0
H  H12  1  0.41098377  0.78769236  0.87244288  1  0.134652  0  0.105099  0.112988  0  1.048087  0
H  H13  1  0.08901320  0.28768981  0.62756592  1  0.134693  0  0.105135  0.113107  0  1.048026  0
H  H14  1  0.50009780  0.77967239  0.26420615  1  0.146854  0  0.106333  0.12723  0  1.039203  0
H  H15  1  0.99990215  0.27967391  0.23579281  1  0.146868  0  0.106347  0.127236  0  1.039188  0
H  H16  1  0.49990380  0.22032469  0.73579507  1  0.14691  0  0.106334  0.127204  0  1.039174  0
H  H17  1  0.00010306  0.72032971  0.76420036  1  0.146839  0  0.106339  0.127214  0  1.039158  0
H  H18  1  0.23574196  0.78611295  0.17235188  1  0.094256  0  0.103426  0.074274  0  1.035761  0
H  H19  1  0.26426131  0.28611443  0.32764451  1  0.094239  0  0.103422  0.074318  0  1.035726  0
H  H20  1  0.76426325  0.21388304  0.82764566  1  0.094217  0  0.103406  0.074278  0  1.035792  0
H  H21  1  0.73573789  0.71388592  0.67235596  1  0.094234  0  0.103418  0.074299  0  1.035764  0
H  H22  1  0.05292573  0.99604743  0.28417312  1  0.072454  0  0.101798  0.113848  0  1.051669  0
H  H23  1  0.44707790  0.49605008  0.21582510  1  0.072491  0  0.101799  0.11384  0  1.051705  0
H  H24  1  0.94707707  0.00395291  0.71582628  1  0.072464  0  0.101792  0.113833  0  1.051729  0
H  H25  1  0.55292490  0.50395135  0.78417168  1  0.07243  0  0.101804  0.113846  0  1.051686  0
H  H26  1  0.72271697  0.96427825  0.58965522  1  0.065997  0  0.094909  0.103854  0  1.041533  0
H  H27  1  0.77728558  0.46427962  0.91034367  1  0.065953  0  0.094924  0.103895  0  1.041513  0
H  H28  1  0.27728704  0.03571992  0.41034412  1  0.065946  0  0.094913  0.10388  0  1.041517  0
H  H29  1  0.22271602  0.53572291  0.08965406  1  0.066004  0  0.094889  0.103829  0  1.041554  0
C  C30  1  0.36300618  0.11164875  0.09395863  1  0.449381  0  0.038391  0.085606  0  3.960464  0
C  C31  1  0.13699658  0.61164810  0.40604016  1  0.44943  0  0.038462  0.085763  0  3.960472  0
C  C32  1  0.63699542  0.88835050  0.90604607  1  0.449257  0  0.038398  0.085629  0  3.960422  0
C  C33  1  0.86300021  0.38835116  0.59396043  1  0.449599  0  0.038441  0.085649  0  3.960627  0
C  C34  1  0.51212988  0.11733240  0.14023617  1  0.021669  0  -0.079825  -0.134159  0  3.93724  0
C  C35  1  0.98787553  0.61733494  0.35976133  1  0.02156  0  -0.079898  -0.134285  0  3.937393  0
C  C36  1  0.48786932  0.88266794  0.85976691  1  0.021592  0  -0.079812  -0.13415  0  3.937246  0
C  C37  1  0.01212366  0.38266541  0.64023826  1  0.021553  0  -0.079923  -0.13437  0  3.937484  0
C  C38  1  0.56313532  0.99909068  0.20510375  1  -0.091161  0  0.003141  0.013875  0  3.967737  0
C  C39  1  0.93686737  0.49909322  0.29489426  1  -0.091143  0  0.003128  0.013771  0  3.967813  0
C  C40  1  0.43686508  0.00090749  0.79489927  1  -0.091097  0  0.003158  0.013864  0  3.96783  0
C  C41  1  0.06313424  0.50090712  0.70510346  1  -0.091176  0  0.003173  0.013889  0  3.967772  0
C  C42  1  0.46364916  0.87668958  0.21812380  1  -0.058611  0  -0.080905  -0.152497  0  3.913387  0
C  C43  1  0.03635375  0.37669121  0.28187315  1  -0.058609  0  -0.080898  -0.152423  0  3.913339  0
C  C44  1  0.53635244  0.12330859  0.78187829  1  -0.058584  0  -0.080893  -0.152444  0  3.913412  0
C  C45  1  0.96364906  0.62331131  0.71812189  1  -0.058535  0  -0.080942  -0.152477  0  3.913409  0
C  C46  1  0.31718658  0.87925493  0.16627047  1  0.525758  0  0.044312  0.096838  0  3.954369  0
C  C47  1  0.18281512  0.37925644  0.33372741  1  0.525622  0  0.044317  0.096771  0  3.954376  0
C  C48  1  0.68281743  0.12074215  0.83372974  1  0.525677  0  0.0443  0.096799  0  3.954443  0
C  C49  1  0.81718528  0.62074391  0.66627212  1  0.525634  0  0.044333  0.096804  0  3.954355  0
C  C50  1  0.72349210  0.01484158  0.25438407  1  1.416969  0  0.245896  0.485683  0  4.085027  0
C  C51  1  0.77651131  0.51484325  0.24561391  1  1.416959  0  0.245916  0.485741  0  4.084921  0
C  C52  1  0.27651070  0.98515768  0.74561708  1  1.416819  0  0.24592  0.485759  0  4.084794  0
C  C53  1  0.22349149  0.48515819  0.75438375  1  1.416969  0  0.245904  0.485727  0  4.084755  0
C  C54  1  0.87254697  0.97704815  0.42842277  1  0.358635  0  0.09053  0.227955  0  4.013589  0
C  C55  1  0.62745581  0.47705219  0.07157445  1  0.358109  0  0.090498  0.227858  0  4.013412  0
C  C56  1  0.12745704  0.02295002  0.57157657  1  0.358564  0  0.090519  0.227907  0  4.013402  0
C  C57  1  0.37254580  0.52295033  0.92842240  1  0.358493  0  0.090538  0.227952  0  4.013495  0
C  C58  1  0.02941143  0.99864642  0.37839328  1  -0.007784  0  -0.093794  -0.154363  0  3.96403  0
C  C59  1  0.47059219  0.49864809  0.12160668  1  -0.007754  0  -0.093722  -0.15422  0  3.963941  0
C  C60  1  0.97059258  0.00135284  0.62160780  1  -0.007799  0  -0.093731  -0.154277  0  3.963959  0
C  C61  1  0.52941061  0.50135225  0.87839185  1  -0.007694  0  -0.093779  -0.154335  0  3.964015  0
C  C62  1  0.84482240  0.97871617  0.55047874  1  -0.01309  0  -0.095401  -0.167005  0  3.987974  0
C  C63  1  0.65518129  0.47871753  0.94951916  1  -0.012683  0  -0.095429  -0.167039  0  3.987951  0
C  C64  1  0.15518161  0.02128309  0.44952059  1  -0.01302  0  -0.095401  -0.167018  0  3.988018  0
C  C65  1  0.34482152  0.52128499  0.05047763  1  -0.013025  0  -0.095421  -0.167046  0  3.988073  0
N  N66  1  0.26677915  0.99440337  0.10682802  1  -1.233472  0  -0.310511  -0.233998  0  3.466193  0
N  N67  1  0.23322450  0.49440478  0.39316847  1  -1.233413  0  -0.310549  -0.234058  0  3.466152  0
N  N68  1  0.73322366  0.00559371  0.89317226  1  -1.23363  0  -0.310512  -0.234004  0  3.466254  0
N  N69  1  0.76677350  0.50559448  0.60683294  1  -1.233633  0  -0.310512  -0.233991  0  3.466263  0
N  N70  1  0.74086571  0.95265837  0.36041763  1  -1.250485  0  -0.390808  -0.356346  0  3.579464  0
N  N71  1  0.75913717  0.45266119  0.13958055  1  -1.250454  0  -0.390784  -0.356174  0  3.579304  0
N  N72  1  0.25913830  0.04733980  0.63958346  1  -1.250454  0  -0.39082  -0.356232  0  3.579246  0
N  N73  1  0.24086444  0.54733916  0.86041718  1  -1.250478  0  -0.3908  -0.356238  0  3.579421  0
Cl  Cl74  1  0.03286950  0.25977848  0.95901341  1  -0.542968  0  -0.259617  -0.408407  0  1.239596  0
Cl  Cl75  1  0.46713239  0.75977816  0.54098475  1  -0.542982  0  -0.259627  -0.408419  0  1.239579  0
Cl  Cl76  1  0.96713812  0.74022078  0.04098574  1  -0.542994  0  -0.259619  -0.408406  0  1.239594  0
Cl  Cl77  1  0.53286922  0.24022109  0.45901471  1  -0.542963  0  -0.259619  -0.408413  0  1.239575  0
O  O78  1  0.83065930  0.08857950  0.20077163  1  -1.152276  0  -0.292411  -0.496184  0  2.265574  0
O  O79  1  0.66934142  0.58858006  0.29922710  1  -1.15223  0  -0.292415  -0.496233  0  2.265576  0
O  O80  1  0.16934111  0.91141975  0.79922877  1  -1.152202  0  -0.292398  -0.496234  0  2.265491  0
O  O81  1  0.33065898  0.41141702  0.70077156  1  -1.152292  0  -0.292393  -0.496198  0  2.265388  0
