# generated using pymatgen
data_Al6H71C95N5O28
_symmetry_space_group_name_H-M   'P 1'
_cell_length_a   12.80310832
_cell_length_b   12.86289990
_cell_length_c   27.70839458
_cell_angle_alpha   88.71074335
_cell_angle_beta   89.23834480
_cell_angle_gamma   60.35352530
_symmetry_Int_Tables_number   1
_chemical_formula_structural   Al6H71C95N5O28
_chemical_formula_sum   'Al6 H71 C95 N5 O28'
_cell_volume   3964.79845805
_cell_formula_units_Z   1
loop_
 _symmetry_equiv_pos_site_id
 _symmetry_equiv_pos_as_xyz
  1  'x, y, z'
loop_
 _atom_site_type_symbol
 _atom_site_label
 _atom_site_symmetry_multiplicity
 _atom_site_fract_x
 _atom_site_fract_y
 _atom_site_fract_z
 _atom_site_occupancy
 _atom_site_pbe_bader_charge
 _atom_site_pbe_bader_spin_density
 _atom_site_pbe_cm5_charge
 _atom_site_pbe_ddec_charge
 _atom_site_pbe_ddec_spin_density
 _atom_site_pbe_ddec_sum_bond_order
 _atom_site_pbe_magmom
Al  Al0  1  0.58018480  0.81899822  0.50195321  1  2.492573  0  0.393919  1.688262  0  2.558778  0
Al  Al1  1  0.33738289  0.07287494  0.50054292  1  2.482422  0  0.50275  1.66189  0  2.509488  0
Al  Al2  1  0.57052026  0.07348777  0.49978968  1  2.482175  0  0.505668  1.65892  0  2.510585  0
Al  Al3  1  0.10025417  0.83582524  0.01511931  1  2.491799  0  0.393634  1.687004  0  2.55973  0
Al  Al4  1  0.08914647  0.59277737  0.01428689  1  2.484377  0  0.503542  1.663272  0  2.509736  0
Al  Al5  1  0.33189739  0.57567777  0.01552942  1  2.480173  0  0.504983  1.656004  0  2.50756  0
H  H6  1  0.12633166  0.42872048  0.78160808  1  0.063319  0  0.09803  0.096569  0  1.003894  0
H  H7  1  0.24713731  0.20186731  0.73879289  1  0.069088  0  0.100852  0.090898  0  1.006559  0
H  H8  1  0.44263103  0.13321672  0.80322416  1  0.084569  0  0.102279  0.090924  0  1.002949  0
H  H9  1  0.55181769  0.21774907  0.73442524  1  0.107395  0  0.102866  0.092416  0  1.006836  0
H  H10  1  0.43493079  0.44158769  0.77623064  1  0.051648  0  0.101767  0.093058  0  1.038235  0
H  H11  1  0.87316165  0.98878302  0.78569052  1  0.076031  0  0.103144  0.094175  0  0.989034  0
H  H12  1  0.99700446  0.80935241  0.71536684  1  0.073576  0  0.102635  0.093834  0  1.003126  0
H  H13  1  0.65202566  0.04102578  0.74225846  1  0.059724  0  0.097598  0.084686  0  1.04027  0
H  H14  1  0.63945868  0.87186249  0.80556384  1  0.068102  0  0.101374  0.089952  0  1.008005  0
H  H15  1  0.76240277  0.69250914  0.73505626  1  0.067029  0  0.102245  0.093602  0  0.992794  0
H  H16  1  0.98384260  0.63884455  0.77830437  1  0.036052  0  0.098248  0.084961  0  1.020941  0
H  H17  1  0.54488972  0.77383209  0.78776939  1  0.068805  0  0.098058  0.08913  0  1.02264  0
H  H18  1  0.40242566  0.99237774  0.73721579  1  0.064027  0  0.098608  0.102116  0  1.005874  0
H  H19  1  0.12954872  0.92286449  0.73615367  1  0.050498  0  0.105308  0.110177  0  0.985564  0
H  H20  1  0.19776547  0.24598376  0.38011309  1  0.091246  0  0.11065  0.110951  0  1.003532  0
H  H21  1  0.47365931  0.28466814  0.12540323  1  0.06899  0  0.112644  0.120722  0  0.992759  0
H  H22  1  0.17406266  0.28340430  0.29129919  1  0.037842  0  0.100124  0.097471  0  1.009718  0
H  H23  1  0.12299077  0.44626164  0.23571256  1  0.052425  0  0.096565  0.091221  0  1.023165  0
H  H24  1  0.09242170  0.49778549  0.14802609  1  0.103695  0  0.103604  0.109373  0  1.028468  0
H  H25  1  0.47664770  0.34291980  0.28930451  1  0.076547  0  0.105932  0.106499  0  1.008288  0
H  H26  1  0.50008970  0.30442796  0.37781157  1  0.058114  0  0.113079  0.115724  0  0.995919  0
H  H27  1  0.78057370  0.70235672  0.22026001  1  0.08363  0  0.101364  0.100903  0  1.020881  0
H  H28  1  0.83591309  0.67936228  0.13313036  1  0.081701  0  0.108718  0.111847  0  0.990975  0
H  H29  1  0.82460882  0.98738764  0.28250213  1  0.062911  0  0.096494  0.093385  0  1.05339  0
H  H30  1  0.99011672  0.87647609  0.24101304  1  0.052019  0  0.102762  0.103685  0  1.005782  0
H  H31  1  0.03308522  0.86465588  0.15304036  1  0.107439  0  0.108308  0.109267  0  1.030705  0
H  H32  1  0.78407193  0.70201096  0.39123170  1  0.105155  0  0.113672  0.128766  0  1.020459  0
H  H33  1  0.50730266  0.69951282  0.38468912  1  0.145595  0  0.117722  0.124606  0  0.98091  0
H  H34  1  0.16914602  0.96345933  0.21790431  1  0.020734  0  0.100611  0.099545  0  1.011874  0
H  H35  1  0.16400190  0.91874143  0.13175710  1  0.116227  0  0.118467  0.125803  0  0.991268  0
H  H36  1  0.49634653  0.66049520  0.29790483  1  0.032055  0  0.101728  0.099955  0  1.010335  0
H  H37  1  0.53590299  0.67605865  0.22500448  1  0.023872  0  0.099172  0.098168  0  1.022998  0
H  H38  1  0.21778520  0.02768792  0.27716428  1  0.05893  0  0.099087  0.095392  0  1.019017  0
H  H39  1  0.22257031  0.06086158  0.36467946  1  0.109444  0  0.104199  0.103945  0  1.01932  0
H  H40  1  0.65085124  0.55780436  0.76244645  1  0.03498  0  0.084508  0.105513  0  1.01916  0
H  H41  1  0.54576996  0.51534632  0.78223588  1  0.004024  0  0.08254  0.101678  0  1.027173  0
H  H42  1  0.63871810  0.44463665  0.73164396  1  -0.002358  0  0.090938  0.119587  0  0.994755  0
H  H43  1  0.43857754  0.59198605  0.69898185  1  0.028176  0  0.095926  0.094397  0  0.990449  0
H  H44  1  0.53930818  0.64434204  0.68561163  1  0.047737  0  0.101521  0.103757  0  0.960583  0
H  H45  1  0.11419101  0.11916853  0.78512769  1  0.393771  0  0.298007  0.238263  0  0.962493  0
H  H46  1  0.13860274  0.17958310  0.86259866  1  0.063511  0  0.107549  0.117978  0  0.971911  0
H  H47  1  0.27715422  0.13762340  0.83212141  1  -0.001646  0  0.082219  0.077557  0  1.049607  0
H  H48  1  0.26423948  0.03594449  0.87330749  1  0.08404  0  0.104563  0.118641  0  0.997783  0
H  H49  1  0.33019515  0.61073996  0.80284892  1  0.416162  0  0.297213  0.234703  0  0.967955  0
H  H50  1  0.13190375  0.66421587  0.82534270  1  0.07445  0  0.100023  0.108105  0  1.003775  0
H  H51  1  0.07965613  0.80706051  0.79713309  1  0.062071  0  0.099227  0.105662  0  1.031353  0
H  H52  1  0.16459503  0.77081426  0.85118671  1  0.067102  0  0.098265  0.111351  0  1.006089  0
H  H53  1  0.23239966  0.60513619  0.72654363  1  0.465775  0  0.277673  0.21425  0  1.059693  0
H  H54  1  0.11558056  0.64849515  0.65353764  1  0.062825  0  0.105566  0.114312  0  0.978779  0
H  H55  1  0.05588416  0.58026115  0.69382429  1  0.010405  0  0.082331  0.076913  0  1.018973  0
H  H56  1  0.16226105  0.49462107  0.64852149  1  0.057721  0  0.101671  0.111293  0  0.998128  0
H  H57  1  0.58886880  0.17201697  0.18561273  1  0.426035  0  0.310413  0.252377  0  0.93998  0
H  H58  1  0.64028613  0.01807409  0.23608921  1  0.0626  0  0.102133  0.113709  0  1.011122  0
H  H59  1  0.48598993  0.05840203  0.23137495  1  0.043428  0  0.094494  0.099226  0  0.987887  0
H  H60  1  0.53705578  0.10769884  0.28087263  1  0.075656  0  0.094179  0.103845  0  1.021209  0
H  H61  1  0.84818193  0.12848231  0.31728828  1  0.009294  0  0.081754  0.105714  0  1.009741  0
H  H62  1  0.69681742  0.17939718  0.30041344  1  0.034675  0  0.081457  0.106185  0  1.034176  0
H  H63  1  0.72951439  0.25258892  0.34647013  1  0.030026  0  0.086169  0.113372  0  0.999932  0
H  H64  1  0.65592268  0.12751521  0.38544605  1  0.047109  0  0.092934  0.090074  0  1.034213  0
H  H65  1  0.80482726  0.07437589  0.40080384  1  0.050602  0  0.098291  0.102619  0  0.960388  0
H  H66  1  0.92433120  0.58734499  0.27438503  1  0.419371  0  0.298969  0.234853  0  0.991012  0
H  H67  1  0.92273609  0.43520466  0.31857328  1  0.049123  0  0.102358  0.105953  0  0.989016  0
H  H68  1  0.80443047  0.53803510  0.35588659  1  0.047509  0  0.106465  0.11608  0  0.976395  0
H  H69  1  0.95446636  0.50531827  0.36690119  1  0.035584  0  0.096677  0.100091  0  0.986479  0
H  H70  1  0.56357682  0.45981526  0.18901071  1  0.017906  0  0.078216  0.101493  0  1.015912  0
H  H71  1  0.49015073  0.46977829  0.13368435  1  0.055182  0  0.084591  0.118814  0  1.045136  0
H  H72  1  0.64979734  0.39739598  0.13573570  1  0.029384  0  0.086536  0.11425  0  0.997198  0
H  H73  1  0.56591797  0.60161586  0.09816713  1  0.023921  0  0.097661  0.101352  0  0.986411  0
H  H74  1  0.63880579  0.59284390  0.15321712  1  -0.013444  0  0.088578  0.080178  0  0.983231  0
H  H75  1  0.69680134  0.62210590  0.53133684  1  0.597701  0  0.289673  0.37998  0  0.928041  0
H  H76  1  0.01054257  0.03355123  0.98566976  1  0.585048  0  0.291173  0.381807  0  0.924923  0
C  C77  1  0.36824570  0.90364417  0.56997351  1  1.659887  0  0.275912  0.713246  0  4.162676  0
C  C78  1  0.38642619  0.20712884  0.56838311  1  1.646191  0  0.279162  0.720619  0  4.158097  0
C  C79  1  0.70482263  0.90346195  0.57009744  1  1.676918  0  0.275457  0.713613  0  4.167175  0
C  C80  1  0.37895137  0.90589028  0.43085335  1  1.554955  0  0.272395  0.634951  0  4.099738  0
C  C81  1  0.38114581  0.22039502  0.43442834  1  1.533462  0  0.276052  0.64475  0  4.081098  0
C  C82  1  0.70746689  0.90256373  0.43239873  1  1.530708  0  0.272001  0.643788  0  4.072742  0
C  C83  1  0.28387233  0.43041230  0.73273495  1  0.509837  0  0.109417  0.207358  0  3.721894  0
C  C84  1  0.22072369  0.38228070  0.77044397  1  -0.077096  0  -0.081258  -0.157064  0  3.60969  0
C  C85  1  0.30394237  0.39881112  0.89889686  1  0.191509  0  -0.046276  -0.209397  0  3.957576  0
C  C86  1  0.36676623  0.25389592  0.61612315  1  0.192359  0  -0.043839  -0.215034  0  3.962619  0
C  C87  1  0.39144890  0.38961682  0.76791933  1  -0.032196  0  -0.073217  -0.133418  0  3.643184  0
C  C88  1  0.32880285  0.34572400  0.80650604  1  0.137287  0  0.005135  0.119306  0  3.810445  0
C  C89  1  0.45736356  0.26375464  0.74520150  1  -0.047079  0  -0.069618  -0.067649  0  3.647134  0
C  C90  1  0.35020022  0.29936127  0.70886643  1  0.106631  0  0.003813  0.059518  0  3.782661  0
C  C91  1  0.39668924  0.21731395  0.78256133  1  -0.050068  0  -0.068873  -0.084198  0  3.636898  0
C  C92  1  0.28798743  0.25609861  0.74771361  1  -0.014976  0  -0.07611  -0.079572  0  3.683112  0
C  C93  1  0.31727032  0.37145626  0.85642131  1  -0.494529  0  -0.021107  -0.026059  0  4.061346  0
C  C94  1  0.35985316  0.27549796  0.65909419  1  -0.481006  0  -0.015528  -0.005059  0  4.071564  0
C  C95  1  0.91806896  0.82317278  0.73607377  1  -0.024263  0  -0.071495  -0.090546  0  3.652881  0
C  C96  1  0.84870794  0.92308248  0.77390507  1  -0.043605  0  -0.073617  -0.088914  0  3.645289  0
C  C97  1  0.89838911  0.79563060  0.90112193  1  -0.286821  0  -0.042352  -0.197698  0  3.970028  0
C  C98  1  0.75108406  0.88287036  0.61849430  1  0.188497  0  -0.043091  -0.19911  0  3.975874  0
C  C99  1  0.90996716  0.72839134  0.76974987  1  -0.003221  0  -0.071908  -0.087745  0  3.655547  0
C  C100  1  0.84172233  0.82794498  0.80900609  1  0.11008  0  0.006932  0.116464  0  3.809284  0
C  C101  1  0.78734422  0.75788823  0.74679742  1  -0.026285  0  -0.071777  -0.083721  0  3.630883  0
C  C102  1  0.79485874  0.85291024  0.71175173  1  0.132173  0  0.008653  0.125178  0  3.802598  0
C  C103  1  0.71845502  0.85759811  0.78478077  1  -0.031939  0  -0.068919  -0.075069  0  3.628816  0
C  C104  1  0.72631892  0.95204790  0.75089781  1  -0.025452  0  -0.071077  -0.07353  0  3.628892  0
C  C105  1  0.86885249  0.81197694  0.85879768  1  0.022373  0  -0.024573  -0.036523  0  4.079956  0
C  C106  1  0.77207625  0.86817270  0.66162710  1  -0.496009  0  -0.028594  -0.042271  0  4.083917  0
C  C107  1  0.41217950  0.74084240  0.74046087  1  0.031049  0  0.005543  0.042655  0  3.612365  0
C  C108  1  0.45251593  0.80755548  0.77581517  1  -0.042827  0  -0.079184  -0.10452  0  3.691425  0
C  C109  1  0.34894447  0.77795582  0.90341187  1  -0.341611  0  -0.053396  -0.229143  0  3.969755  0
C  C110  1  0.33576488  0.88949606  0.61855942  1  -0.441525  0  -0.045106  -0.206632  0  3.96954  0
C  C111  1  0.30222608  0.76690566  0.77412565  1  0.430367  0  0.105607  0.167567  0  3.710745  0
C  C112  1  0.34737440  0.83251230  0.81168938  1  0.074352  0  -0.006654  0.000972  0  3.820257  0
C  C113  1  0.22232220  0.88896018  0.74785622  1  -0.037385  0  -0.075918  -0.190405  0  3.653362  0
C  C114  1  0.32953237  0.86455649  0.71283551  1  0.097536  0  0.00608  0.105799  0  3.819684  0
C  C115  1  0.26185532  0.95448315  0.78380851  1  0.490573  0  0.100469  0.194194  0  3.771501  0
C  C116  1  0.37328463  0.92897397  0.74895759  1  -0.068334  0  -0.079395  -0.150249  0  3.598903  0
C  C117  1  0.35273091  0.80635520  0.86128861  1  0.000106  0  -0.027129  -0.016085  0  4.123707  0
C  C118  1  0.32717622  0.88038395  0.66215653  1  0.174487  0  -0.027395  -0.033233  0  4.082262  0
C  C119  1  0.35227929  0.26943932  0.38439859  1  -0.035288  0  -0.016745  -0.058199  0  3.982905  0
C  C120  1  0.25740676  0.26879186  0.35990386  1  -0.075055  0  -0.076696  -0.079684  0  3.982665  0
C  C121  1  0.24457089  0.29002178  0.31030373  1  -0.031036  0  -0.090323  -0.142993  0  3.983642  0
C  C122  1  0.32540582  0.31318733  0.28366346  1  0.034913  0  0.005447  0.099072  0  3.977048  0
C  C123  1  0.41519466  0.32188614  0.30915897  1  -0.053516  0  -0.083641  -0.129767  0  3.962322  0
C  C124  1  0.42862043  0.30024184  0.35865857  1  0.072848  0  -0.073753  -0.075768  0  3.963739  0
C  C125  1  0.41449071  0.28087307  0.19856805  1  0.394468  0  0.10181  0.190322  0  4.034341  0
C  C126  1  0.39671438  0.31902892  0.14990348  1  0.023896  0  -0.087729  -0.200641  0  3.963531  0
C  C127  1  0.18167322  0.43782987  0.16229733  1  0.012719  0  -0.096924  -0.119043  0  4.003182  0
C  C128  1  0.19947652  0.40711196  0.21101927  1  -0.123814  0  -0.091238  -0.116867  0  4.026827  0
C  C129  1  0.31408241  0.33161098  0.23063520  1  -0.014549  0  -0.009146  -0.021812  0  3.928854  0
C  C130  1  0.28237648  0.39608326  0.13172117  1  -0.007869  0  -0.015591  -0.029225  0  4.021843  0
C  C131  1  0.76372184  0.87599542  0.38363322  1  -0.015795  0  -0.018523  -0.09369  0  3.974295  0
C  C132  1  0.77737166  0.95993494  0.35411626  1  -0.007369  0  -0.010873  0.096603  0  3.929228  0
C  C133  1  0.81806684  0.92385938  0.30721030  1  -0.011761  0  -0.098535  -0.189928  0  4.009467  0
C  C134  1  0.84618469  0.81255920  0.28846707  1  -0.04348  0  -0.017718  -0.03291  0  3.995621  0
C  C135  1  0.83858140  0.72707169  0.31953840  1  0.351553  0  0.09433  0.187484  0  4.073807  0
C  C136  1  0.79572432  0.76235616  0.36647780  1  0.014639  0  -0.097148  -0.201815  0  3.958441  0
C  C137  1  0.83907554  0.73493637  0.20597965  1  -0.093535  0  -0.096246  -0.152486  0  3.990584  0
C  C138  1  0.86800062  0.72374399  0.15701042  1  -0.030971  0  -0.082193  -0.088122  0  3.99787  0
C  C139  1  0.97837486  0.82903160  0.16834513  1  0.013041  0  -0.079767  -0.079127  0  3.981749  0
C  C140  1  0.95313544  0.83632729  0.21729034  1  -0.066992  0  -0.091062  -0.134833  0  3.984684  0
C  C141  1  0.88107629  0.79152953  0.23717226  1  -0.016803  0  -0.003913  0.083338  0  4.006652  0
C  C142  1  0.93673763  0.77211283  0.13772815  1  -0.042422  0  -0.018062  -0.053168  0  3.997434  0
C  C143  1  0.36494963  0.88214927  0.37986126  1  -0.049202  0  -0.014891  -0.049014  0  3.982982  0
C  C144  1  0.44297617  0.76961507  0.36064746  1  -0.043504  0  -0.072314  -0.073067  0  3.961833  0
C  C145  1  0.43761889  0.74945795  0.31195839  1  -0.024742  0  -0.088521  -0.131036  0  3.976751  0
C  C146  1  0.35687464  0.84144326  0.28069258  1  -0.095267  0  -0.000291  0.077017  0  3.988131  0
C  C147  1  0.27932791  0.95393767  0.30057115  1  0.003775  0  -0.092524  -0.138765  0  3.991229  0
C  C148  1  0.28214996  0.97363154  0.34949758  1  -0.016651  0  -0.082295  -0.083092  0  3.993417  0
C  C149  1  0.24829960  0.89019191  0.20137274  1  -0.009611  0  -0.09396  -0.143241  0  4.003287  0
C  C150  1  0.24402168  0.86452104  0.15342813  1  -0.072748  0  -0.077134  -0.077483  0  3.992592  0
C  C151  1  0.44865623  0.69698557  0.15737679  1  -0.03149  0  0.007413  0.132977  0  3.908106  0
C  C152  1  0.45164650  0.72736703  0.20532943  1  -0.015769  0  -0.091665  -0.198937  0  3.942575  0
C  C153  1  0.35244909  0.81977622  0.22886663  1  0.006938  0  -0.003355  0.081393  0  4.019747  0
C  C154  1  0.34074977  0.76570380  0.13135109  1  0.025576  0  -0.014728  -0.107313  0  3.924863  0
C  C155  1  0.95503050  0.76640586  0.94770555  1  1.645866  0  0.275046  0.708235  0  4.172107  0
C  C156  1  0.27980521  0.44912527  0.94637413  1  1.634903  0  0.279389  0.719608  0  4.15131  0
C  C157  1  0.30964953  0.75096147  0.94820018  1  1.675597  0  0.269208  0.708174  0  4.176219  0
C  C158  1  0.97446609  0.75962147  0.08636291  1  1.54934  0  0.26919  0.631719  0  4.104974  0
C  C159  1  0.26495459  0.44153278  0.08112852  1  1.529503  0  0.281493  0.655023  0  4.063878  0
C  C160  1  0.31548806  0.73727375  0.08255925  1  1.546959  0  0.271028  0.633586  0  4.091146  0
C  C161  1  0.49354399  0.62557269  0.71572851  1  0.014452  0  -0.159988  -0.143234  0  3.981787  0
C  C162  1  0.58708470  0.53064602  0.74976053  1  -0.037377  0  -0.240623  -0.34439  0  3.97951  0
C  C163  1  0.21660847  0.10513547  0.84544309  1  0.263111  0  -0.14231  -0.211155  0  3.987964  0
C  C164  1  0.15448731  0.73450458  0.81707814  1  0.191794  0  -0.145093  -0.223141  0  3.934297  0
C  C165  1  0.13766724  0.56669154  0.67436571  1  0.261857  0  -0.142197  -0.205265  0  3.993329  0
C  C166  1  0.54804828  0.09004029  0.24205669  1  0.241844  0  -0.14288  -0.215666  0  3.958051  0
C  C167  1  0.74695852  0.08349482  0.37010577  1  0.007011  0  -0.16427  -0.148298  0  3.985781  0
C  C168  1  0.75610230  0.16472425  0.33125967  1  -0.090006  0  -0.247672  -0.352598  0  3.99446  0
C  C169  1  0.88945100  0.51877149  0.33827078  1  0.301889  0  -0.134844  -0.211893  0  4.000987  0
C  C170  1  0.56064693  0.59222121  0.13739085  1  0.053663  0  -0.16057  -0.146991  0  3.979819  0
C  C171  1  0.56650145  0.47252524  0.14972776  1  -0.062635  0  -0.245679  -0.348792  0  3.955246  0
N  N172  1  0.17550541  0.05596208  0.80797665  1  -1.141386  0  -0.469904  -0.351037  0  3.558968  0
N  N173  1  0.26258123  0.68511778  0.78640259  1  -1.138574  0  -0.457202  -0.322338  0  3.489156  0
N  N174  1  0.23925150  0.53666708  0.70583073  1  -1.193791  0  -0.473966  -0.352119  0  3.57199  0
N  N175  1  0.52950791  0.19508544  0.21342227  1  -1.180064  0  -0.453254  -0.320039  0  3.529311  0
N  N176  1  0.87097973  0.61345370  0.30408802  1  -1.192509  0  -0.455564  -0.307842  0  3.606189  0
O  O177  1  0.68476432  0.82486482  0.55300837  1  -1.219165  0  -0.212741  -0.566086  0  2.294029  0
O  O178  1  0.47348236  0.82925474  0.55680431  1  -1.21682  0  -0.209043  -0.557172  0  2.295334  0
O  O179  1  0.28980533  0.99368538  0.54463490  1  -1.261588  0  -0.247956  -0.612313  0  2.220686  0
O  O180  1  0.31047923  0.17901433  0.55240541  1  -1.246042  0  -0.230828  -0.592446  0  2.248281  0
O  O181  1  0.48125724  0.19181328  0.54619996  1  -1.250853  0  -0.230822  -0.592556  0  2.251321  0
O  O182  1  0.68330177  0.00274693  0.54931253  1  -1.255717  0  -0.241932  -0.60148  0  2.234237  0
O  O183  1  0.67818708  0.82939094  0.45038935  1  -1.250104  0  -0.217406  -0.56947  0  2.38323  0
O  O184  1  0.46891014  0.82662628  0.45367372  1  -1.250968  0  -0.211022  -0.553142  0  2.352363  0
O  O185  1  0.30111743  0.00851163  0.44792463  1  -1.283741  0  -0.250695  -0.61845  0  2.283889  0
O  O186  1  0.30438523  0.20118186  0.45725455  1  -1.269063  0  -0.237263  -0.602716  0  2.304995  0
O  O187  1  0.48557282  0.19110143  0.45080191  1  -1.267883  0  -0.23285  -0.594864  0  2.296811  0
O  O188  1  0.68795127  0.99968762  0.45328856  1  -1.274061  0  -0.244822  -0.614043  0  2.316778  0
O  O189  1  0.49521787  0.99045651  0.50139154  1  -1.61029  0  -0.391875  -1.26723  0  2.29579  0
O  O190  1  0.20230098  0.82448457  0.95998387  1  -1.23146  0  -0.215803  -0.571113  0  2.307404  0
O  O191  1  0.98444765  0.83751819  0.96547288  1  -1.21209  0  -0.209218  -0.558078  0  2.281561  0
O  O192  1  0.97578819  0.66469617  0.96631300  1  -1.25131  0  -0.244736  -0.60647  0  2.230252  0
O  O193  1  0.17896540  0.47523638  0.96575301  1  -1.236271  0  -0.226581  -0.585139  0  2.244707  0
O  O194  1  0.35983972  0.46884274  0.96459447  1  -1.246961  0  -0.231418  -0.590143  0  2.23978  0
O  O195  1  0.38228799  0.65417944  0.97149004  1  -1.267039  0  -0.247509  -0.612909  0  2.241981  0
O  O196  1  0.22463979  0.81729602  0.06040879  1  -1.250223  0  -0.215535  -0.565682  0  2.368073  0
O  O197  1  0.00985654  0.82968630  0.07028888  1  -1.246982  0  -0.212196  -0.551458  0  2.362032  0
O  O198  1  0.97353356  0.67561872  0.06197973  1  -1.276385  0  -0.252323  -0.619575  0  2.273686  0
O  O199  1  0.16255575  0.47384588  0.06187921  1  -1.272404  0  -0.23545  -0.599894  0  2.300886  0
O  O200  1  0.34910246  0.45242575  0.06038174  1  -1.26835  0  -0.23469  -0.597879  0  2.285245  0
O  O201  1  0.38298332  0.63008696  0.06661611  1  -1.278979  0  -0.24044  -0.601515  0  2.309237  0
O  O202  1  0.17460043  0.66557962  0.01433318  1  -1.6115  0  -0.392272  -1.268819  0  2.302825  0
O  O203  1  0.65656574  0.66173701  0.50166979  1  -1.389342  0  -0.582216  -1.000259  0  1.794675  0
O  O204  1  0.02700039  0.99257387  0.01664377  1  -1.373503  0  -0.581284  -0.998969  0  1.795589  0
