# generated using pymatgen
data_H12PbC13Br2N4O
_symmetry_space_group_name_H-M   'P 1'
_cell_length_a   9.39895091
_cell_length_b   10.33926510
_cell_length_c   16.17410000
_cell_angle_alpha   90.00000000
_cell_angle_beta   90.00000000
_cell_angle_gamma   100.33429226
_symmetry_Int_Tables_number   1
_chemical_formula_structural   H12PbC13Br2N4O
_chemical_formula_sum   'H48 Pb4 C52 Br8 N16 O4'
_cell_volume   1546.27314936
_cell_formula_units_Z   4
loop_
 _symmetry_equiv_pos_site_id
 _symmetry_equiv_pos_as_xyz
  1  'x, y, z'
loop_
 _atom_site_type_symbol
 _atom_site_label
 _atom_site_symmetry_multiplicity
 _atom_site_fract_x
 _atom_site_fract_y
 _atom_site_fract_z
 _atom_site_occupancy
 _atom_site_pbe_bader_charge
 _atom_site_pbe_bader_spin_density
 _atom_site_pbe_cm5_charge
 _atom_site_pbe_ddec_charge
 _atom_site_pbe_ddec_spin_density
 _atom_site_pbe_ddec_sum_bond_order
 _atom_site_pbe_magmom
H  H0  1  0.74949825  0.67548867  0.76900909  1  0.486449  0  0.314305  0.254992  0  0.977596  0
H  H1  1  0.25054101  0.82445333  0.26897818  1  0.486021  0  0.314217  0.25492  0  0.977752  0
H  H2  1  0.25051368  0.32442580  0.23102120  1  0.485713  0  0.314323  0.255032  0  0.977471  0
H  H3  1  0.74948015  0.17553488  0.73098225  1  0.486108  0  0.314275  0.254963  0  0.977655  0
H  H4  1  0.10335142  0.49411200  0.59803389  1  0.120983  0  0.093138  0.068085  0  1.076737  0
H  H5  1  0.89662564  0.00596861  0.09797083  1  0.120586  0  0.093048  0.068054  0  1.076628  0
H  H6  1  0.89664559  0.50593716  0.40200011  1  0.120962  0  0.093141  0.068018  0  1.07662  0
H  H7  1  0.10336289  0.99413462  0.90197971  1  0.121001  0  0.093151  0.068009  0  1.076545  0
H  H8  1  0.12177645  0.55310897  0.44554566  1  0.111475  0  0.096149  0.104807  0  1.041622  0
H  H9  1  0.87823965  0.94692053  0.94548630  1  0.111678  0  0.096137  0.104797  0  1.041625  0
H  H10  1  0.87826110  0.44695690  0.55449824  1  0.11167  0  0.096096  0.104768  0  1.041639  0
H  H11  1  0.12180646  0.05306473  0.05448031  1  0.112567  0  0.096203  0.105032  0  1.041287  0
H  H12  1  0.36465400  0.65926989  0.39022759  1  0.123412  0  0.097993  0.098226  0  1.015171  0
H  H13  1  0.63538379  0.84065933  0.89017998  1  0.12303  0  0.097932  0.098036  0  1.015005  0
H  H14  1  0.63539253  0.34078222  0.60983239  1  0.122914  0  0.097864  0.098104  0  1.015256  0
H  H15  1  0.36469985  0.15916567  0.10979344  1  0.123054  0  0.097944  0.098298  0  1.015295  0
H  H16  1  0.57197469  0.70214147  0.48402508  1  0.084395  0  0.091506  0.108047  0  1.068353  0
H  H17  1  0.42806859  0.79773466  0.98398860  1  0.083195  0  0.091537  0.108091  0  1.068115  0
H  H18  1  0.42807123  0.29786443  0.51603613  1  0.084409  0  0.091508  0.108184  0  1.068446  0
H  H19  1  0.57201204  0.20205888  0.01598914  1  0.084192  0  0.091594  0.108308  0  1.067945  0
H  H20  1  0.75297733  0.79866274  0.66535881  1  0.111063  0  0.086306  0.142107  0  1.048144  0
H  H21  1  0.24704559  0.70130974  0.16534892  1  0.110892  0  0.086301  0.142087  0  1.048094  0
H  H22  1  0.24702100  0.20132841  0.33470363  1  0.111193  0  0.086294  0.142167  0  1.048232  0
H  H23  1  0.75301751  0.29862145  0.83461460  1  0.111238  0  0.086376  0.14209  0  1.048413  0
H  H24  1  0.72088121  0.74952466  0.56132706  1  0.047199  0  0.098224  0.148227  0  1.021457  0
H  H25  1  0.27916487  0.75033869  0.06130295  1  0.046176  0  0.098188  0.148246  0  1.021505  0
H  H26  1  0.27913877  0.25043602  0.43873539  1  0.045687  0  0.098231  0.148247  0  1.02126  0
H  H27  1  0.72085277  0.24958856  0.93866181  1  0.047124  0  0.098202  0.148268  0  1.021416  0
H  H28  1  0.80052747  0.64978263  0.63124502  1  0.076198  0  0.097422  0.143278  0  1.011051  0
H  H29  1  0.19949224  0.85014659  0.13116588  1  0.076751  0  0.09729  0.14296  0  1.011403  0
H  H30  1  0.19947569  0.35018985  0.36883722  1  0.076261  0  0.0974  0.143284  0  1.011252  0
H  H31  1  0.80051929  0.14975510  0.86880321  1  0.076324  0  0.09752  0.143388  0  1.011038  0
H  H32  1  0.60649999  0.50246276  0.01438040  1  0.150816  0  0.113064  0.083719  0  1.043902  0
H  H33  1  0.39349136  0.99760312  0.51432104  1  0.15058  0  0.113155  0.083991  0  1.043559  0
H  H34  1  0.39350724  0.49753037  0.98568576  1  0.150164  0  0.113146  0.083841  0  1.043807  0
H  H35  1  0.60646854  0.00249520  0.48561342  1  0.150091  0  0.113191  0.083877  0  1.043847  0
H  H36  1  0.01136084  0.67145192  0.09837085  1  0.112383  0  0.104158  0.075858  0  1.043964  0
H  H37  1  0.98861226  0.82866705  0.59832448  1  0.113452  0  0.104066  0.07581  0  1.044041  0
H  H38  1  0.98862654  0.32866705  0.90166315  1  0.113516  0  0.1041  0.075882  0  1.044037  0
H  H39  1  0.01135401  0.17140964  0.40161369  1  0.112123  0  0.104097  0.07589  0  1.043997  0
H  H40  1  0.10282726  0.71979661  0.95193303  1  0.089314  0  0.091779  0.10545  0  1.051429  0
H  H41  1  0.89717173  0.78024862  0.45189037  1  0.089667  0  0.091851  0.105393  0  1.051326  0
H  H42  1  0.89712576  0.28028303  0.04809418  1  0.089277  0  0.091813  0.105345  0  1.051225  0
H  H43  1  0.10282372  0.21977105  0.54805090  1  0.088874  0  0.091798  0.105534  0  1.051231  0
H  H44  1  0.93677935  0.65637357  0.83538682  1  0.128643  0  0.092266  0.095894  0  1.059213  0
H  H45  1  0.06322772  0.84359399  0.33534663  1  0.127975  0  0.092145  0.095799  0  1.059296  0
H  H46  1  0.06319364  0.34360775  0.16464904  1  0.128053  0  0.092158  0.09577  0  1.059329  0
H  H47  1  0.93676974  0.15638733  0.66459772  1  0.128959  0  0.092207  0.095716  0  1.059271  0
Pb  Pb48  1  0.28181654  0.45966294  0.77312246  1  1.253987  0  0.471097  0.835768  0  2.130901  0
Pb  Pb49  1  0.71809122  0.04032526  0.27307671  1  1.253718  0  0.471188  0.835754  0  2.130884  0
Pb  Pb50  1  0.71806961  0.54034198  0.22689918  1  1.253892  0  0.471204  0.835795  0  2.130735  0
Pb  Pb51  1  0.28184007  0.95964427  0.72686146  1  1.253959  0  0.471115  0.835855  0  2.130586  0
C  C52  1  0.20561063  0.54061332  0.56984129  1  0.472034  0  0.044317  0.09334  0  3.958606  0
C  C53  1  0.79438332  0.95943879  0.06978008  1  0.473974  0  0.044471  0.093709  0  3.958028  0
C  C54  1  0.79438541  0.45943092  0.43020199  1  0.473099  0  0.044242  0.093417  0  3.957983  0
C  C55  1  0.20562587  0.04059661  0.93017293  1  0.471854  0  0.044281  0.093782  0  3.95828  0
C  C56  1  0.21577819  0.57323965  0.48602333  1  -0.061862  0  -0.085574  -0.117269  0  3.950536  0
C  C57  1  0.78423402  0.92677019  0.98596831  1  -0.06374  0  -0.085652  -0.117723  0  3.950148  0
C  C58  1  0.78424087  0.42680263  0.51402427  1  -0.06298  0  -0.085601  -0.117512  0  3.949862  0
C  C59  1  0.21580608  0.07319541  0.01399336  1  -0.063082  0  -0.085683  -0.117895  0  3.950519  0
C  C60  1  0.34981502  0.63268394  0.45531127  1  -0.056397  0  -0.071735  -0.022485  0  3.965526  0
C  C61  1  0.65022027  0.86726494  0.95526428  1  -0.056267  0  -0.071657  -0.021898  0  3.964851  0
C  C62  1  0.65021293  0.36734949  0.54474190  1  -0.05654  0  -0.071496  -0.022117  0  3.965148  0
C  C63  1  0.34984667  0.13261021  0.04470419  1  -0.055245  0  -0.071559  -0.022224  0  3.965602  0
C  C64  1  0.46747907  0.65683171  0.50885675  1  -0.007934  0  -0.082127  -0.142633  0  3.916631  0
C  C65  1  0.53255273  0.84308866  0.00881224  1  -0.004093  0  -0.08211  -0.142698  0  3.915925  0
C  C66  1  0.53254480  0.34317026  0.49119456  1  -0.006115  0  -0.082218  -0.143007  0  3.916913  0
C  C67  1  0.46750618  0.15677272  0.99115809  1  -0.008158  0  -0.082419  -0.143232  0  3.916146  0
C  C68  1  0.44981523  0.62002313  0.59204160  1  0.489356  0  0.123478  0.166042  0  3.970508  0
C  C69  1  0.55020605  0.87995722  0.09198472  1  0.486523  0  0.123462  0.165765  0  3.969956  0
C  C70  1  0.55018108  0.37998474  0.40801467  1  0.487267  0  0.123414  0.166026  0  3.970173  0
C  C71  1  0.44981721  0.11998773  0.90796768  1  0.489234  0  0.123672  0.166445  0  3.969806  0
C  C72  1  0.57407832  0.63886786  0.64948343  1  0.617384  0  0.148493  0.225444  0  3.908595  0
C  C73  1  0.42593357  0.86109183  0.14942284  1  0.617523  0  0.148764  0.225635  0  3.907198  0
C  C74  1  0.42591294  0.36111444  0.35058334  1  0.617297  0  0.148782  0.225723  0  3.907256  0
C  C75  1  0.57407170  0.13885901  0.85051780  1  0.617299  0  0.148441  0.22543  0  3.908202  0
C  C76  1  0.71876051  0.71323320  0.62469318  1  -0.112449  0  -0.245749  -0.46324  0  3.934802  0
C  C77  1  0.28126404  0.78669897  0.12464805  1  -0.111679  0  -0.245579  -0.462912  0  3.935192  0
C  C78  1  0.28124323  0.28674223  0.37537730  1  -0.111022  0  -0.245621  -0.463284  0  3.93501  0
C  C79  1  0.71875872  0.21322730  0.87530805  1  -0.112654  0  -0.245886  -0.463506  0  3.935226  0
C  C80  1  0.63947653  0.53920842  0.85242146  1  1.367449  0  0.248712  0.45315  0  4.106026  0
C  C81  1  0.36052185  0.96079060  0.35236335  1  1.366276  0  0.248455  0.452794  0  4.10614  0
C  C82  1  0.36050352  0.46077094  0.14764593  1  1.366375  0  0.248674  0.452866  0  4.106152  0
C  C83  1  0.63947805  0.03923005  0.64757544  1  1.367287  0  0.248779  0.453298  0  4.10623  0
C  C84  1  0.75475222  0.57635619  0.91543888  1  -0.011514  0  -0.015291  -0.087192  0  3.985968  0
C  C85  1  0.24523667  0.92364873  0.41538385  1  -0.011475  0  -0.015238  -0.086792  0  3.984603  0
C  C86  1  0.24524832  0.42360842  0.08461367  1  -0.011116  0  -0.015194  -0.0869  0  3.985151  0
C  C87  1  0.75473963  0.07639256  0.58455061  1  -0.011717  0  -0.015223  -0.087511  0  3.986357  0
C  C88  1  0.71551069  0.55124298  0.99842711  1  0.501288  0  0.057257  0.086548  0  3.919269  0
C  C89  1  0.28447969  0.94880717  0.49836838  1  0.501662  0  0.057247  0.08616  0  3.918725  0
C  C90  1  0.28448388  0.44876686  0.00162791  1  0.502074  0  0.057264  0.086439  0  3.91901  0
C  C91  1  0.71548987  0.05126461  0.50156299  1  0.501714  0  0.057023  0.086463  0  3.919401  0
C  C92  1  0.94154008  0.64687157  0.04460650  1  0.461146  0  0.047735  0.096115  0  3.950145  0
C  C93  1  0.05844102  0.85320709  0.54455889  1  0.460004  0  0.047856  0.096113  0  3.950349  0
C  C94  1  0.05845143  0.35320905  0.95542998  1  0.460207  0  0.047889  0.096149  0  3.95008  0
C  C95  1  0.94153017  0.14685682  0.45537681  1  0.461223  0  0.047804  0.096011  0  3.950137  0
C  C96  1  0.99135194  0.67348897  0.96424407  1  0.018169  0  -0.086867  -0.118982  0  3.956815  0
C  C97  1  0.00864279  0.82656707  0.46420450  1  0.019071  0  -0.087256  -0.11915  0  3.957576  0
C  C98  1  0.00863144  0.32657199  0.03578994  1  0.019287  0  -0.087099  -0.118955  0  3.957097  0
C  C99  1  0.99134271  0.17348307  0.53573491  1  0.019254  0  -0.086983  -0.119186  0  3.956363  0
C  C100  1  0.89715747  0.63777068  0.89831954  1  -0.064047  0  -0.065581  -0.047285  0  3.936334  0
C  C101  1  0.10283888  0.86222342  0.39827502  1  -0.065823  0  -0.065157  -0.046835  0  3.937055  0
C  C102  1  0.10282569  0.36223522  0.10172436  1  -0.066365  0  -0.065321  -0.046996  0  3.937525  0
C  C103  1  0.89714999  0.13778445  0.60166439  1  -0.064544  0  -0.065447  -0.04682  0  3.936124  0
Br  Br104  1  0.95611772  0.42231265  0.73168461  1  -0.692096  0  -0.308033  -0.559773  0  1.01706  0
Br  Br105  1  0.04389951  0.07764803  0.23166482  1  -0.692159  0  -0.308265  -0.560027  0  1.016446  0
Br  Br106  1  0.04385162  0.57772570  0.26831107  1  -0.692138  0  -0.308216  -0.559935  0  1.016477  0
Br  Br107  1  0.95610463  0.92235100  0.76831910  1  -0.692253  0  -0.308142  -0.55986  0  1.016633  0
Br  Br108  1  0.31819773  0.22713572  0.66242264  1  -0.612491  0  -0.215121  -0.473978  0  1.29185  0
Br  Br109  1  0.68174274  0.27288887  0.16239111  1  -0.612404  0  -0.215081  -0.473913  0  1.291806  0
Br  Br110  1  0.68172053  0.77289182  0.33761322  1  -0.612501  0  -0.215137  -0.47395  0  1.291776  0
Br  Br111  1  0.31822651  0.72715440  0.83759282  1  -0.612531  0  -0.215172  -0.47404  0  1.2918  0
N  N112  1  0.31848745  0.56317333  0.62153937  1  -1.21951  0  -0.294426  -0.272833  0  3.442998  0
N  N113  1  0.68151636  0.93686404  0.12147631  1  -1.219517  0  -0.29434  -0.272648  0  3.442728  0
N  N114  1  0.68149900  0.43684929  0.37851194  1  -1.219282  0  -0.294214  -0.272576  0  3.442542  0
N  N115  1  0.31848509  0.06316448  0.87846495  1  -1.219652  0  -0.294444  -0.273011  0  3.443042  0
N  N116  1  0.55074706  0.58494781  0.72202781  1  -0.754643  0  -0.19159  -0.158993  0  3.411626  0
N  N117  1  0.44925487  0.91502074  0.22197031  1  -0.755396  0  -0.191871  -0.159129  0  3.410864  0
N  N118  1  0.44923935  0.41500992  0.27803154  1  -0.755477  0  -0.191925  -0.159216  0  3.410776  0
N  N119  1  0.55075438  0.08496649  0.77796724  1  -0.754593  0  -0.191653  -0.159125  0  3.411445  0
N  N120  1  0.65897344  0.60513059  0.77850947  1  -0.817853  0  -0.282834  -0.209497  0  3.661087  0
N  N121  1  0.34104038  0.89482812  0.27846372  1  -0.81614  0  -0.282878  -0.209719  0  3.661418  0
N  N122  1  0.34102640  0.39480354  0.22154185  1  -0.816146  0  -0.283072  -0.209799  0  3.661499  0
N  N123  1  0.65896414  0.10517287  0.72148002  1  -0.817136  0  -0.282866  -0.209486  0  3.660767  0
N  N124  1  0.80577902  0.58648052  0.06157128  1  -1.265925  0  -0.306175  -0.251402  0  3.435763  0
N  N125  1  0.19419881  0.91361387  0.56151440  1  -1.26464  0  -0.30613  -0.251378  0  3.435759  0
N  N126  1  0.19422845  0.41357848  0.93847076  1  -1.264694  0  -0.306259  -0.251502  0  3.43571  0
N  N127  1  0.80575828  0.08648641  0.43841883  1  -1.266016  0  -0.306133  -0.251323  0  3.435603  0
O  O128  1  0.52882073  0.45618559  0.86701146  1  -1.146191  0  -0.26621  -0.459494  0  2.219231  0
O  O129  1  0.47116364  0.04382424  0.36693850  1  -1.145453  0  -0.266084  -0.4593  0  2.219798  0
O  O130  1  0.47114693  0.54379573  0.13305594  1  -1.14505  0  -0.266109  -0.459292  0  2.219542  0
O  O131  1  0.52883142  0.95620428  0.63299040  1  -1.145983  0  -0.266221  -0.459486  0  2.219664  0
