# generated using pymatgen
data_AgH11C8(N2O)3
_symmetry_space_group_name_H-M   'P 1'
_cell_length_a   7.66710323
_cell_length_b   13.13766928
_cell_length_c   13.14441695
_cell_angle_alpha   85.12237235
_cell_angle_beta   73.05880850
_cell_angle_gamma   73.03427608
_symmetry_Int_Tables_number   1
_chemical_formula_structural   AgH11C8(N2O)3
_chemical_formula_sum   'Ag4 H44 C32 N24 O12'
_cell_volume   1211.43180770
_cell_formula_units_Z   4
loop_
 _symmetry_equiv_pos_site_id
 _symmetry_equiv_pos_as_xyz
  1  'x, y, z'
loop_
 _atom_site_type_symbol
 _atom_site_label
 _atom_site_symmetry_multiplicity
 _atom_site_fract_x
 _atom_site_fract_y
 _atom_site_fract_z
 _atom_site_occupancy
 _atom_site_hle17_bader_spin_density
 _atom_site_hle17_ddec_charge
 _atom_site_hle17_ddec_spin_density
 _atom_site_hle17_ddec_sum_bond_order
 _atom_site_hle17_magmom
 _atom_site_hse06_10hf_bader_spin_density
 _atom_site_hse06_10hf_ddec_charge
 _atom_site_hse06_10hf_ddec_spin_density
 _atom_site_hse06_10hf_ddec_sum_bond_order
 _atom_site_hse06_10hf_magmom
 _atom_site_hse06_bader_spin_density
 _atom_site_hse06_ddec_charge
 _atom_site_hse06_ddec_spin_density
 _atom_site_hse06_ddec_sum_bond_order
 _atom_site_hse06_magmom
 _atom_site_pbe_bader_charge
 _atom_site_pbe_bader_spin_density
 _atom_site_pbe_cm5_charge
 _atom_site_pbe_ddec_charge
 _atom_site_pbe_ddec_spin_density
 _atom_site_pbe_ddec_sum_bond_order
 _atom_site_pbe_magmom
Ag  Ag0  1  0.71223215  0.66253532  0.91210858  1  0  0.491475  0  1.497955  0  0  0.341546  0  1.950945  0  0  0.370711  0  1.907071  0  0.575654  0  0.466826  0.321506  0  1.981124  0
Ag  Ag1  1  0.28665106  0.33755053  0.08790435  1  0  0.491604  0  1.498187  0  0  0.341844  0  1.951255  0  0  0.370922  0  1.907428  0  0.572435  0  0.467107  0.321879  0  1.981335  0
Ag  Ag2  1  0.12444250  0.83750791  0.41216037  1  0  0.492662  0  1.496484  0  0  0.342996  0  1.949024  0  0  0.372003  0  1.905249  0  0.575783  0  0.467101  0.322981  0  1.979204  0
Ag  Ag3  1  0.37403661  0.16244106  0.58792677  1  0  0.490975  0  1.498768  0  0  0.341162  0  1.95163  0  0  0.370345  0  1.907758  0  0.574398  0  0.466973  0.321203  0  1.981739  0
H  H4  1  0.45960040  0.77845290  0.25458394  1  0  0.326914  0  0.911598  0  0  0.307055  0  0.986336  0  0  0.315393  0  0.977941  0  0.494949  0  0.298415  0.300979  0  0.99253  0
H  H5  1  0.49244952  0.22168388  0.74549645  1  0  0.327248  0  0.911217  0  0  0.307152  0  0.98606  0  0  0.315467  0  0.97775  0  0.497483  0  0.298692  0.301124  0  0.992158  0
H  H6  1  0.98811414  0.72156407  0.75459138  1  0  0.326393  0  0.913315  0  0  0.306939  0  0.987269  0  0  0.315293  0  0.978843  0  0.490447  0  0.29831  0.300867  0  0.993461  0
H  H7  1  0.46425170  0.27828463  0.24563363  1  0  0.325833  0  0.913631  0  0  0.306039  0  0.987951  0  0  0.314346  0  0.97969  0  0.491656  0  0.298321  0.299972  0  0.994106  0
H  H8  1  0.62416913  0.75134066  0.13050886  1  0  0.33787  0  0.912691  0  0  0.319893  0  0.979047  0  0  0.32778  0  0.972303  0  0.521195  0  0.303016  0.314265  0  0.983813  0
H  H9  1  0.50597884  0.24866800  0.86963798  1  0  0.339093  0  0.913266  0  0  0.32108  0  0.979415  0  0  0.329005  0  0.972636  0  0.508985  0  0.303562  0.31541  0  0.984256  0
H  H10  1  0.12547502  0.74873520  0.63048934  1  0  0.340769  0  0.908767  0  0  0.322276  0  0.975761  0  0  0.330179  0  0.968987  0  0.514204  0  0.303937  0.316605  0  0.980619  0
H  H11  1  0.50478456  0.25134110  0.36978056  1  0  0.338734  0  0.909829  0  0  0.320739  0  0.976341  0  0  0.32864  0  0.969567  0  0.507715  0  0.30337  0.315123  0  0.981102  0
H  H12  1  0.51795263  0.48514667  0.98904259  1  0  0.062591  0  0.968767  0  0  0.067142  0  1.042997  0  0  0.069488  0  1.038793  0  0.127502  0  0.11976  0.065331  0  1.046092  0
H  H13  1  0.99188767  0.51497897  0.01084810  1  0  0.062942  0  0.968623  0  0  0.067453  0  1.042768  0  0  0.069831  0  1.038507  0  0.137704  0  0.119785  0.065645  0  1.045857  0
H  H14  1  0.75275731  0.01485845  0.48909924  1  0  0.06292  0  0.96871  0  0  0.067556  0  1.04278  0  0  0.069897  0  1.038582  0  0.128868  0  0.119858  0.065776  0  1.045812  0
H  H15  1  0.25673005  0.98502924  0.51104914  1  0  0.063245  0  0.968785  0  0  0.067834  0  1.042801  0  0  0.07017  0  1.038633  0  0.10555  0  0.11983  0.066023  0  1.045885  0
H  H16  1  0.89951466  0.65144579  0.43757000  1  0  0.106616  0  0.971006  0  0  0.109026  0  1.044792  0  0  0.113456  0  1.038813  0  0.228976  0  0.133444  0.105566  0  1.049364  0
H  H17  1  0.98851919  0.34829309  0.56233429  1  0  0.106149  0  0.97145  0  0  0.108632  0  1.045291  0  0  0.113263  0  1.039036  0  0.225691  0  0.133078  0.105218  0  1.049773  0
H  H18  1  0.30088867  0.84838018  0.93759883  1  0  0.10693  0  0.971544  0  0  0.109853  0  1.04467  0  0  0.114468  0  1.038468  0  0.230819  0  0.133835  0.106403  0  1.049193  0
H  H19  1  0.08730797  0.15163882  0.06236218  1  0  0.106264  0  0.970688  0  0  0.108097  0  1.045297  0  0  0.112708  0  1.039095  0  0.214713  0  0.133017  0.104635  0  1.04985  0
H  H20  1  0.88864580  0.46808862  0.39990496  1  0  0.078455  0  0.920227  0  0  0.095197  0  0.979783  0  0  0.095892  0  0.979381  0  0.073567  0  0.112384  0.094568  0  0.980209  0
H  H21  1  0.75627169  0.53197018  0.59999891  1  0  0.078081  0  0.921159  0  0  0.09451  0  0.980162  0  0  0.095109  0  0.979818  0  0.065895  0  0.11243  0.093925  0  0.980599  0
H  H22  1  0.10648600  0.03186478  0.89993882  1  0  0.077577  0  0.921267  0  0  0.094147  0  0.980659  0  0  0.09486  0  0.980222  0  0.073997  0  0.112188  0.093507  0  0.981144  0
H  H23  1  0.03859815  0.96805315  0.10002521  1  0  0.078251  0  0.920965  0  0  0.094875  0  0.980211  0  0  0.095572  0  0.979812  0  0.067146  0  0.112211  0.094227  0  0.980682  0
H  H24  1  0.05700233  0.39586226  0.28936255  1  0  0.069347  0  0.9478  0  0  0.080277  0  1.026021  0  0  0.082019  0  1.023307  0  0.084545  0  0.101447  0.078888  0  1.028069  0
H  H25  1  0.74243220  0.60400236  0.71058134  1  0  0.069347  0  0.947939  0  0  0.079735  0  1.025791  0  0  0.081414  0  1.023087  0  0.06521  0  0.101357  0.078369  0  1.027868  0
H  H26  1  0.20268514  0.10403623  0.78938896  1  0  0.068269  0  0.947277  0  0  0.078581  0  1.025809  0  0  0.080266  0  1.023179  0  0.09322  0  0.101489  0.077239  0  1.027828  0
H  H27  1  0.09670201  0.89602654  0.21063126  1  0  0.069305  0  0.948377  0  0  0.080066  0  1.026379  0  0  0.081784  0  1.023678  0  0.063747  0  0.101735  0.078704  0  1.028392  0
H  H28  1  0.87554357  0.50909798  0.16846346  1  0  0.060752  0  0.957693  0  0  0.078448  0  1.024084  0  0  0.07914  0  1.023611  0  0.042719  0  0.085403  0.077789  0  1.024653  0
H  H29  1  0.55351979  0.49087646  0.83146872  1  0  0.060881  0  0.957246  0  0  0.078445  0  1.02391  0  0  0.079157  0  1.023397  0  0.001825  0  0.085161  0.077788  0  1.024477  0
H  H30  1  0.13455668  0.99082508  0.66848487  1  0  0.060673  0  0.957982  0  0  0.078266  0  1.024186  0  0  0.078952  0  1.023736  0  0.012071  0  0.085304  0.077631  0  1.02472  0
H  H31  1  0.79458403  0.00924485  0.33145162  1  0  0.059989  0  0.958443  0  0  0.077323  0  1.025346  0  0  0.078072  0  1.024823  0  -0.000687  0  0.084877  0.076654  0  1.025904  0
H  H32  1  0.70838531  0.58085163  0.27976458  1  0  0.077875  0  0.953268  0  0  0.094721  0  1.014133  0  0  0.095713  0  1.014732  0  0.040728  0  0.089114  0.093884  0  1.013873  0
H  H33  1  0.56900380  0.41912997  0.72022257  1  0  0.079123  0  0.952905  0  0  0.095984  0  1.013642  0  0  0.09708  0  1.014106  0  0.066452  0  0.089137  0.095114  0  1.013403  0
H  H34  1  0.03897923  0.91909610  0.77976408  1  0  0.079009  0  0.952956  0  0  0.095455  0  1.013952  0  0  0.096548  0  1.014427  0  0.06922  0  0.089267  0.094572  0  1.013736  0
H  H35  1  0.73842989  0.08091415  0.22013542  1  0  0.078734  0  0.952781  0  0  0.095805  0  1.013464  0  0  0.096842  0  1.014019  0  0.06731  0  0.089335  0.094916  0  1.013259  0
H  H36  1  0.59524634  0.43716527  0.22272703  1  0  0.087185  0  0.983116  0  0  0.106181  0  1.049285  0  0  0.106079  0  1.052305  0  0.039764  0  0.078632  0.106164  0  1.047279  0
H  H37  1  0.25542990  0.56286965  0.77724221  1  0  0.08725  0  0.984231  0  0  0.105878  0  1.050898  0  0  0.105795  0  1.053867  0  0.018698  0  0.078727  0.105872  0  1.048872  0
H  H38  1  0.78239363  0.06292580  0.72264040  1  0  0.086378  0  0.984734  0  0  0.105319  0  1.05112  0  0  0.105266  0  1.054074  0  0.015898  0  0.078449  0.105314  0  1.049061  0
H  H39  1  0.56845366  0.93723406  0.27735318  1  0  0.0875  0  0.984161  0  0  0.106156  0  1.050738  0  0  0.106062  0  1.053743  0  0.037016  0  0.078648  0.106156  0  1.048704  0
H  H40  1  0.61675438  0.41544858  0.35441618  1  0  0.092335  0  0.944626  0  0  0.115001  0  1.000138  0  0  0.116261  0  1.000417  0  0.024453  0  0.083053  0.114009  0  1.000022  0
H  H41  1  0.38672142  0.58464523  0.64556429  1  0  0.092708  0  0.944345  0  0  0.115278  0  0.999912  0  0  0.116507  0  1.00023  0  0.017734  0  0.083541  0.114295  0  0.999787  0
H  H42  1  0.78210175  0.08465522  0.85434770  1  0  0.092211  0  0.945265  0  0  0.114887  0  1.000711  0  0  0.116107  0  1.001052  0  0.024357  0  0.08312  0.113906  0  1.000577  0
H  H43  1  0.72145024  0.91534309  0.14565630  1  0  0.0928  0  0.944209  0  0  0.11513  0  1.000011  0  0  0.116358  0  1.000331  0  0.01869  0  0.083365  0.114156  0  0.999875  0
H  H44  1  0.79236335  0.33884849  0.24760947  1  0  0.100946  0  0.95176  0  0  0.120915  0  1.014505  0  0  0.122395  0  1.014419  0  0.032314  0  0.084259  0.11975  0  1.014693  0
H  H45  1  0.37918189  0.66117609  0.75238927  1  0  0.100795  0  0.952123  0  0  0.120414  0  1.015193  0  0  0.121855  0  1.015189  0  0.031232  0  0.084342  0.119246  0  1.01537  0
H  H46  1  0.88142024  0.16114788  0.74753022  1  0  0.101392  0  0.951979  0  0  0.121163  0  1.014887  0  0  0.122642  0  1.014823  0  0.031521  0  0.084597  0.119963  0  1.015098  0
H  H47  1  0.79046464  0.83890215  0.25251174  1  0  0.100792  0  0.952112  0  0  0.120863  0  1.014616  0  0  0.122338  0  1.014545  0  0.037589  0  0.084247  0.119684  0  1.01482  0
C  C48  1  0.44174310  0.53256782  0.06092540  1  0  0.306196  0  3.745725  0  0  0.250501  0  4.019603  0  0  0.269582  0  4.030163  0  1.081245  0  0.16476  0.237894  0  4.012181  0
C  C49  1  0.03506537  0.46756975  0.93894426  1  0  0.302202  0  3.750198  0  0  0.246856  0  4.024265  0  0  0.265906  0  4.034858  0  1.083665  0  0.162677  0.234261  0  4.016825  0
C  C50  1  0.72403229  0.96743004  0.56098220  1  0  0.30393  0  3.747858  0  0  0.248368  0  4.02174  0  0  0.267426  0  4.032321  0  1.082284  0  0.163637  0.235784  0  4.014294  0
C  C51  1  0.25259625  0.03242184  0.43912312  1  0  0.300463  0  3.748128  0  0  0.244633  0  4.022305  0  0  0.263697  0  4.032897  0  1.098301  0  0.161996  0.232035  0  4.014877  0
C  C52  1  0.21243486  0.56088969  0.21544629  1  0  0.298365  0  3.797995  0  0  0.259394  0  4.058488  0  0  0.274844  0  4.076259  0  0.898516  0  0.224053  0.249227  0  4.046452  0
C  C53  1  0.98889392  0.43918184  0.78433248  1  0  0.297256  0  3.796904  0  0  0.259569  0  4.056505  0  0  0.275014  0  4.074256  0  0.958989  0  0.224481  0.249399  0  4.044476  0
C  C54  1  0.52321079  0.93910659  0.71554776  1  0  0.298608  0  3.796886  0  0  0.259153  0  4.058495  0  0  0.274601  0  4.076258  0  0.949875  0  0.22421  0.248987  0  4.046471  0
C  C55  1  0.17823243  0.06083204  0.28446242  1  0  0.29727  0  3.796006  0  0  0.258191  0  4.056854  0  0  0.273618  0  4.074614  0  0.91372  0  0.224183  0.248035  0  4.044812  0
C  C56  1  0.26372074  0.64884909  0.23784686  1  0  -0.048649  0  3.802635  0  0  -0.044667  0  4.045681  0  0  -0.051903  0  4.068832  0  0.485535  0  0.083707  -0.040476  0  4.030573  0
C  C57  1  0.15046047  0.35119618  0.76212665  1  0  -0.046438  0  3.800387  0  0  -0.042764  0  4.043265  0  0  -0.05  0  4.066403  0  0.491451  0  0.084142  -0.038542  0  4.028116  0
C  C58  1  0.66251823  0.85117663  0.73790728  1  0  -0.046764  0  3.801805  0  0  -0.043205  0  4.046262  0  0  -0.050483  0  4.069437  0  0.453632  0  0.084036  -0.038997  0  4.03115  0
C  C59  1  0.25217252  0.14867923  0.26214518  1  0  -0.045145  0  3.799519  0  0  -0.041945  0  4.043816  0  0  -0.049205  0  4.06695  0  0.491141  0  0.084027  -0.037701  0  4.028654  0
C  C60  1  0.42098519  0.67415485  0.16411566  1  0  0.478835  0  3.81149  0  0  0.445958  0  4.071735  0  0  0.468643  0  4.083157  0  1.091507  0  0.251008  0.430697  0  4.063788  0
C  C61  1  0.25919095  0.32592145  0.83595079  1  0  0.476207  0  3.81445  0  0  0.443428  0  4.074931  0  0  0.466159  0  4.086301  0  1.062507  0  0.250458  0.428139  0  4.066997  0
C  C62  1  0.84507111  0.82588838  0.66417249  1  0  0.478736  0  3.814743  0  0  0.445566  0  4.076049  0  0  0.468341  0  4.087363  0  1.092124  0  0.251368  0.430248  0  4.06817  0
C  C63  1  0.33542156  0.17397704  0.33605120  1  0  0.476249  0  3.815704  0  0  0.443316  0  4.076527  0  0  0.466103  0  4.087875  0  1.099477  0  0.250387  0.428002  0  4.068585  0
C  C64  1  0.02158263  0.63495753  0.36713170  1  0  0.206086  0  3.608528  0  0  0.14327  0  3.874752  0  0  0.159283  0  3.88457  0  0.944357  0  0.160903  0.132718  0  3.868112  0
C  C65  1  0.02374863  0.36487843  0.63275136  1  0  0.205939  0  3.6082  0  0  0.143078  0  3.87477  0  0  0.158974  0  3.884523  0  0.961761  0  0.160807  0.132556  0  3.868078  0
C  C66  1  0.40645790  0.86493767  0.86718161  1  0  0.204668  0  3.607845  0  0  0.141234  0  3.873943  0  0  0.157112  0  3.883691  0  0.959137  0  0.160279  0.130721  0  3.867271  0
C  C67  1  0.13912532  0.13505189  0.13277375  1  0  0.205364  0  3.608603  0  0  0.142552  0  3.874659  0  0  0.158436  0  3.884412  0  0.958994  0  0.16004  0.132029  0  3.868006  0
C  C68  1  0.95424358  0.47365288  0.31421491  1  0  0.015363  0  3.620434  0  0  -0.048855  0  3.884326  0  0  -0.043727  0  3.894335  0  0.281745  0  -0.053435  -0.052105  0  3.877405  0
C  C69  1  0.74217466  0.52627063  0.68564351  1  0  0.015507  0  3.624805  0  0  -0.045987  0  3.885325  0  0  -0.040643  0  3.895113  0  0.314959  0  -0.05291  -0.049391  0  3.878563  0
C  C70  1  0.17772026  0.02625038  0.81426028  1  0  0.018248  0  3.620765  0  0  -0.044863  0  3.882809  0  0  -0.039705  0  3.892771  0  0.276953  0  -0.052979  -0.048209  0  3.876043  0
C  C71  1  0.01874264  0.97375031  0.18567673  1  0  0.014515  0  3.625481  0  0  -0.049153  0  3.888186  0  0  -0.043999  0  3.898151  0  0.317191  0  -0.053425  -0.052418  0  3.881287  0
C  C72  1  0.80489438  0.50195086  0.25339221  1  0  -0.087598  0  3.698449  0  0  -0.124901  0  3.961143  0  0  -0.126351  0  3.975609  0  -0.000659  0  -0.171357  -0.123709  0  3.95109  0
C  C73  1  0.56040438  0.49801323  0.74657017  1  0  -0.089942  0  3.700878  0  0  -0.127848  0  3.962905  0  0  -0.129374  0  3.977281  0  -0.003044  0  -0.172034  -0.126594  0  3.952889  0
C  C74  1  0.05673148  0.99796583  0.75340612  1  0  -0.089879  0  3.698598  0  0  -0.126455  0  3.959765  0  0  -0.127987  0  3.974266  0  -0.006889  0  -0.171625  -0.125197  0  3.949701  0
C  C75  1  0.80868125  0.00205397  0.24654383  1  0  -0.087864  0  3.698844  0  0  -0.125331  0  3.961469  0  0  -0.126833  0  3.975955  0  0.002793  0  -0.171841  -0.124088  0  3.951441  0
C  C76  1  0.69641866  0.41866681  0.27043049  1  0  -0.279747  0  3.707813  0  0  -0.348066  0  3.948063  0  0  -0.351072  0  3.960897  0  -0.079258  0  -0.252333  -0.345667  0  3.93913  0
C  C77  1  0.38576529  0.58137686  0.72954931  1  0  -0.27942  0  3.709181  0  0  -0.347101  0  3.94946  0  0  -0.350121  0  3.962341  0  -0.038092  0  -0.253042  -0.344715  0  3.94051  0
C  C78  1  0.86508645  0.08136696  0.77037121  1  0  -0.279134  0  3.709712  0  0  -0.347639  0  3.950086  0  0  -0.350676  0  3.962931  0  -0.049131  0  -0.252958  -0.345205  0  3.941149  0
C  C79  1  0.71728546  0.91868865  0.22962482  1  0  -0.280325  0  3.70884  0  0  -0.348157  0  3.949059  0  0  -0.351181  0  3.961944  0  -0.066393  0  -0.252801  -0.345768  0  3.940109  0
N  N80  1  0.50304103  0.61474332  0.07364769  1  0  -0.457483  0  3.151764  0  0  -0.387774  0  3.437504  0  0  -0.412015  0  3.447293  0  -1.207902  0  -0.344335  -0.371463  0  3.430576  0
N  N81  1  0.19120251  0.38535606  0.92639355  1  0  -0.455151  0  3.153562  0  0  -0.385768  0  3.439297  0  0  -0.410009  0  3.449132  0  -1.234549  0  -0.344057  -0.369469  0  3.432372  0
N  N82  1  0.86757636  0.88528558  0.57368276  1  0  -0.456238  0  3.154308  0  0  -0.386338  0  3.440068  0  0  -0.410604  0  3.44986  0  -1.217439  0  -0.34379  -0.37002  0  3.433162  0
N  N83  1  0.32670989  0.11457028  0.42652221  1  0  -0.452752  0  3.151828  0  0  -0.382717  0  3.437389  0  0  -0.406974  0  3.447154  0  -1.226739  0  -0.342669  -0.366412  0  3.430492  0
N  N84  1  0.30048678  0.49900082  0.12813415  1  0  -0.42576  0  3.252649  0  0  -0.354955  0  3.557738  0  0  -0.377665  0  3.567629  0  -1.236791  0  -0.356301  -0.339708  0  3.550686  0
N  N85  1  0.92768588  0.50114074  0.87160228  1  0  -0.422949  0  3.254351  0  0  -0.352527  0  3.558638  0  0  -0.375303  0  3.568683  0  -1.230607  0  -0.354683  -0.337241  0  3.551497  0
N  N86  1  0.54929240  0.00101465  0.62825736  1  0  -0.424915  0  3.251253  0  0  -0.354098  0  3.556517  0  0  -0.376844  0  3.566449  0  -1.23949  0  -0.355899  -0.338827  0  3.549419  0
N  N87  1  0.17869783  0.99892875  0.37178498  1  0  -0.423902  0  3.251707  0  0  -0.352896  0  3.556292  0  0  -0.375622  0  3.566272  0  -1.222962  0  -0.355317  -0.337646  0  3.549206  0
N  N88  1  0.49145991  0.75243887  0.17851288  1  0  -0.641329  0  3.076324  0  0  -0.605562  0  3.308014  0  0  -0.627766  0  3.3041  0  -1.299589  0  -0.562248  -0.590018  0  3.310505  0
N  N89  1  0.42237312  0.24768916  0.82156848  1  0  -0.642308  0  3.078249  0  0  -0.606058  0  3.310466  0  0  -0.628298  0  3.306463  0  -1.297573  0  -0.562714  -0.590484  0  3.312999  0
N  N90  1  0.99388795  0.74765290  0.67854904  1  0  -0.644958  0  3.077326  0  0  -0.608802  0  3.309241  0  0  -0.631097  0  3.305214  0  -1.297976  0  -0.563999  -0.593217  0  3.311839  0
N  N91  1  0.42019687  0.25227856  0.32171442  1  0  -0.641393  0  3.07747  0  0  -0.605451  0  3.309548  0  0  -0.627658  0  3.305626  0  -1.289159  0  -0.562803  -0.589876  0  3.312043  0
N  N92  1  0.14187724  0.69395525  0.33319897  1  0  -0.358735  0  3.306244  0  0  -0.289081  0  3.614511  0  0  -0.307368  0  3.626875  0  -1.165294  0  -0.363303  -0.276566  0  3.605959  0
N  N93  1  0.16906296  0.30597144  0.66682497  1  0  -0.35758  0  3.30693  0  0  -0.287836  0  3.615138  0  0  -0.306141  0  3.627605  0  -1.171655  0  -0.362766  -0.275312  0  3.606513  0
N  N94  1  0.58580972  0.80601954  0.83323167  1  0  -0.356974  0  3.304609  0  0  -0.287085  0  3.613199  0  0  -0.305384  0  3.625658  0  -1.169771  0  -0.362611  -0.274559  0  3.604595  0
N  N95  1  0.22566952  0.19389601  0.16681122  1  0  -0.359738  0  3.304633  0  0  -0.289702  0  3.613076  0  0  -0.307979  0  3.625495  0  -1.167178  0  -0.363315  -0.277201  0  3.6045  0
N  N96  1  0.06035286  0.55247327  0.29951369  1  0  -0.133942  0  3.470724  0  0  -0.041898  0  3.694285  0  0  -0.060055  0  3.716857  0  -1.214914  0  -0.230505  -0.029842  0  3.678658  0
N  N97  1  0.91246761  0.44745422  0.70025731  1  0  -0.133413  0  3.474354  0  0  -0.043053  0  3.697786  0  0  -0.061228  0  3.720336  0  -1.244255  0  -0.230251  -0.030986  0  3.682196  0
N  N98  1  0.36268861  0.94745139  0.79959561  1  0  -0.134468  0  3.474938  0  0  -0.042064  0  3.697569  0  0  -0.060152  0  3.720125  0  -1.229514  0  -0.230045  -0.030038  0  3.681988  0
N  N99  1  0.11014204  0.05256762  0.20034977  1  0  -0.130775  0  3.476728  0  0  -0.038022  0  3.698394  0  0  -0.05614  0  3.721067  0  -1.231081  0  -0.227854  -0.02599  0  3.682723  0
N  N100  1  0.00362997  0.74859195  0.99341693  1  0  0.692142  0  4.16316  0  0  0.729428  0  4.445816  0  0  0.756956  0  4.453212  0  0.837152  0  0.097656  0.710813  0  4.440504  0
N  N101  1  0.74535380  0.25148912  0.00666137  1  0  0.68856  0  4.160112  0  0  0.725824  0  4.442864  0  0  0.753016  0  4.450118  0  0.832208  0  0.09577  0.707126  0  4.437706  0
N  N102  1  0.50217866  0.75148549  0.49325374  1  0  0.691738  0  4.162747  0  0  0.729607  0  4.446605  0  0  0.755592  0  4.453886  0  0.843071  0  0.096012  0.710814  0  4.441468  0
N  N103  1  0.74689089  0.24850088  0.50665946  1  0  0.689844  0  4.159595  0  0  0.727042  0  4.442376  0  0  0.754541  0  4.449791  0  0.84715  0  0.097157  0.710189  0  4.43654  0
O  O104  1  0.88142589  0.69968822  0.04440225  1  0  -0.511298  0  1.819203  0  0  -0.489765  0  2.05622  0  0  -0.506669  0  2.046336  0  -0.591221  0  -0.214591  -0.477811  0  2.062703  0
O  O105  1  0.62529851  0.30036739  0.95560661  1  0  -0.510932  0  1.81522  0  0  -0.489726  0  2.052688  0  0  -0.506463  0  2.042914  0  -0.594923  0  -0.214461  -0.477732  0  2.059166  0
O  O106  1  0.33103526  0.80027065  0.54427918  1  0  -0.513292  0  1.819723  0  0  -0.491904  0  2.056958  0  0  -0.508126  0  2.047012  0  -0.59321  0  -0.215181  -0.479877  0  2.063504  0
O  O107  1  0.67589512  0.19956213  0.45555997  1  0  -0.510059  0  1.817995  0  0  -0.488729  0  2.05509  0  0  -0.505643  0  2.045311  0  -0.609383  0  -0.214167  -0.477487  0  2.061485  0
O  O108  1  0.09794880  0.77908954  0.04248334  1  0  -0.456072  0  1.76175  0  0  -0.448351  0  1.97248  0  0  -0.463883  0  1.969163  0  -0.545723  0  -0.188526  -0.437414  0  1.974552  0
O  O109  1  0.91919921  0.22094060  0.95764323  1  0  -0.452381  0  1.762104  0  0  -0.444309  0  1.97216  0  0  -0.459857  0  1.96922  0  -0.53628  0  -0.185923  -0.433235  0  1.974087  0
O  O110  1  0.62707277  0.72115025  0.54227079  1  0  -0.453955  0  1.762248  0  0  -0.446649  0  1.973027  0  0  -0.461547  0  1.969838  0  -0.548852  0  -0.186205  -0.435576  0  1.975021  0
O  O111  1  0.89034759  0.27895311  0.45773242  1  0  -0.455048  0  1.76036  0  0  -0.447182  0  1.970793  0  0  -0.462767  0  1.967661  0  -0.537701  0  -0.187737  -0.436896  0  1.972642  0
O  O112  1  0.02774382  0.76515979  0.89462453  1  0  -0.489378  0  1.765958  0  0  -0.480856  0  1.984444  0  0  -0.496015  0  1.977872  0  -0.565023  0  -0.201149  -0.470121  0  1.988728  0
O  O113  1  0.68717047  0.23501041  0.10545843  1  0  -0.490112  0  1.766475  0  0  -0.481694  0  1.985149  0  0  -0.496656  0  1.978592  0  -0.564625  0  -0.202443  -0.470952  0  1.989516  0
O  O114  1  0.54281028  0.73486434  0.39447678  1  0  -0.489753  0  1.765621  0  0  -0.481536  0  1.984402  0  0  -0.496006  0  1.977767  0  -0.56578  0  -0.201252  -0.470746  0  1.988766  0
O  O115  1  0.67191449  0.26514193  0.60541418  1  0  -0.489527  0  1.765139  0  0  -0.480977  0  1.983683  0  0  -0.496096  0  1.97711  0  -0.561775  0  -0.201971  -0.470971  0  1.987914  0
