# generated using pymatgen
data_MnH14C21N4O5
_symmetry_space_group_name_H-M   'P 1'
_cell_length_a   13.72417285
_cell_length_b   13.72405141
_cell_length_c   16.67797381
_cell_angle_alpha   91.95411514
_cell_angle_beta   91.95513587
_cell_angle_gamma   119.47715853
_symmetry_Int_Tables_number   1
_chemical_formula_structural   MnH14C21N4O5
_chemical_formula_sum   'Mn4 H56 C84 N16 O20'
_cell_volume   2728.40908044
_cell_formula_units_Z   4
loop_
 _symmetry_equiv_pos_site_id
 _symmetry_equiv_pos_as_xyz
  1  'x, y, z'
loop_
 _atom_site_type_symbol
 _atom_site_label
 _atom_site_symmetry_multiplicity
 _atom_site_fract_x
 _atom_site_fract_y
 _atom_site_fract_z
 _atom_site_occupancy
 _atom_site_pbe_bader_charge
 _atom_site_pbe_bader_spin_density
 _atom_site_pbe_cm5_charge
 _atom_site_pbe_ddec_charge
 _atom_site_pbe_ddec_spin_density
 _atom_site_pbe_ddec_sum_bond_order
 _atom_site_pbe_magmom
Mn  Mn0  1  0.68079088  0.01912342  0.96371161  1  1.467721  4.55745  0.580086  0.855888  4.693182  2.318015  4.475
Mn  Mn1  1  0.98090304  0.31921360  0.53628327  1  1.467691  -4.557696  0.580101  0.855955  -4.686557  2.318027  -4.475
Mn  Mn2  1  0.31920424  0.98089426  0.03628906  1  1.467507  -4.557759  0.580022  0.855787  -4.686621  2.318033  -4.475
Mn  Mn3  1  0.01911394  0.68079304  0.46370995  1  1.467878  -4.557377  0.580131  0.856045  -4.686274  2.318089  -4.475
H  H4  1  0.16604341  0.95977564  0.85935301  1  0.574662  -0.000252  0.308413  0.291766  0.000227  1.006287  0.0
H  H5  1  0.04022356  0.83394234  0.64065175  1  0.57456  -0.000254  0.308412  0.29171  0.000227  1.006352  0.0
H  H6  1  0.83394575  0.04021353  0.14065920  1  0.574686  0.000251  0.30843  0.291854  -0.000227  1.006316  0.0
H  H7  1  0.95977078  0.16604509  0.35934198  1  0.574547  -0.000254  0.308341  0.291709  0.000227  1.006271  0.0
H  H8  1  0.76821836  0.24762412  0.87647840  1  0.074868  0.001744  0.123511  0.095923  0.00086  0.972462  0.001
H  H9  1  0.75239781  0.23179163  0.62351305  1  0.074455  -0.001867  0.123476  0.095961  -0.00097  0.972377  -0.001
H  H10  1  0.23177677  0.75238264  0.12352074  1  0.074888  -0.001752  0.123537  0.095984  -0.000867  0.972307  -0.001
H  H11  1  0.24762002  0.76822345  0.37647865  1  0.074916  -0.001869  0.123538  0.096018  -0.000977  0.97247  -0.001
H  H12  1  0.93153924  0.37363131  0.79682802  1  0.108807  0.000556  0.106239  0.111872  0.000404  1.018735  0.0
H  H13  1  0.62637190  0.06846342  0.70315392  1  0.109408  -0.000582  0.10623  0.111878  -0.000431  1.018553  0.0
H  H14  1  0.06846098  0.62636121  0.20316425  1  0.108847  -0.000697  0.106218  0.111791  -0.000265  1.018477  0.0
H  H15  1  0.37364674  0.93155423  0.29684208  1  0.109287  -0.000719  0.10623  0.11186  -0.000276  1.018444  0.0
H  H16  1  0.07718354  0.31775760  0.76859746  1  0.142765  -7.5e-05  0.113985  0.123674  0.000195  1.004359  0.0
H  H17  1  0.68224069  0.92281522  0.73139682  1  0.142437  7.4e-05  0.113977  0.12362  -0.000196  1.004345  0.0
H  H18  1  0.92282840  0.68224144  0.23139716  1  0.142922  -6.1e-05  0.114048  0.123767  0.000149  1.004524  0.0
H  H19  1  0.31776872  0.07719569  0.26859989  1  0.142317  -6.2e-05  0.113979  0.123674  0.00015  1.004404  0.0
H  H20  1  0.29426208  0.12533259  0.77617087  1  0.102901  -2.6e-05  0.133539  0.093529  -1.2e-05  0.981995  0.0
H  H21  1  0.87466258  0.70573347  0.72382988  1  0.102823  -3.9e-05  0.133562  0.093574  -5e-06  0.981993  0.0
H  H22  1  0.70571369  0.87465215  0.22383839  1  0.103478  1e-05  0.133522  0.09353  -2e-06  0.981712  0.0
H  H23  1  0.12533925  0.29427147  0.27617181  1  0.102796  -5.3e-05  0.133558  0.093548  -2.2e-05  0.982022  0.0
H  H24  1  0.99612648  0.82591792  0.92587280  1  0.111858  -9.5e-05  0.109841  0.116324  0.000258  1.007142  0.0
H  H25  1  0.17408171  0.00386271  0.57413629  1  0.111932  -0.00016  0.109758  0.115935  0.000155  1.00733  0.0
H  H26  1  0.00385598  0.17407377  0.07413808  1  0.111495  9.3e-05  0.10978  0.116167  -0.000257  1.007183  0.0
H  H27  1  0.82591853  0.99612399  0.42585459  1  0.111891  -0.00016  0.109841  0.116193  0.000155  1.007341  0.0
H  H28  1  0.82087856  0.71969627  0.99981021  1  0.079377  0.00078  0.113536  0.12019  0.000436  0.976269  0.0
H  H29  1  0.28030894  0.17909561  0.50018548  1  0.079678  -0.000798  0.113547  0.12007  -0.00045  0.976189  0.0
H  H30  1  0.17909977  0.28030581  0.00019187  1  0.079828  -0.000779  0.113591  0.120225  -0.000435  0.97606  0.0
H  H31  1  0.71969717  0.82089107  0.49980558  1  0.079859  -0.000798  0.113558  0.120233  -0.00045  0.976162  0.0
H  H32  1  0.69200492  0.79953844  0.01470939  1  0.08811  0.001653  0.123065  0.090888  0.000858  0.976119  0.001
H  H33  1  0.20046303  0.30795944  0.48527756  1  0.088146  -0.001655  0.123015  0.09082  -0.00085  0.976217  -0.001
H  H34  1  0.30797843  0.20046466  0.98529407  1  0.088326  -0.001654  0.122986  0.090725  -0.000857  0.976058  -0.001
H  H35  1  0.79954813  0.69203194  0.51471081  1  0.088254  -0.001655  0.122987  0.090721  -0.00085  0.976183  -0.001
H  H36  1  0.69557848  0.33219457  0.11956830  1  0.095082  0.00023  0.107936  0.111831  4.7e-05  0.99192  0.0
H  H37  1  0.66781470  0.30443386  0.38043589  1  0.096244  -0.000389  0.107929  0.11183  -4.7e-05  0.99177  0.0
H  H38  1  0.30442676  0.66781502  0.88042525  1  0.095046  -0.000258  0.10795  0.111901  -4e-05  0.992122  0.0
H  H39  1  0.33221218  0.69558634  0.61957903  1  0.095075  -0.000369  0.107971  0.111898  -5.5e-05  0.991963  0.0
H  H40  1  0.77324144  0.48189995  0.23219357  1  0.105591  -0.000332  0.110383  0.115999  -0.000121  0.988575  0.0
H  H41  1  0.51810563  0.22676420  0.26781634  1  0.105305  -0.000355  0.110378  0.116014  -0.000115  0.988736  0.0
H  H42  1  0.22677127  0.51809944  0.76781008  1  0.104777  -0.000342  0.110387  0.116045  -0.000114  0.988326  0.0
H  H43  1  0.48191455  0.77325487  0.73219773  1  0.105466  0.000315  0.110326  0.115939  0.000111  0.988549  0.0
H  H44  1  0.02619489  0.39523280  0.29295223  1  0.07956  -0.000411  0.103386  0.103644  -9e-06  1.014728  0.0
H  H45  1  0.60475816  0.97381337  0.20705538  1  0.079601  -0.000304  0.103449  0.10379  -0.000201  1.014846  0.0
H  H46  1  0.97379602  0.60474924  0.70705142  1  0.079319  -0.000427  0.103383  0.103673  -2e-06  1.014585  0.0
H  H47  1  0.39522771  0.02620264  0.79294856  1  0.079383  0.000283  0.103334  0.103559  0.000209  1.014683  0.0
H  H48  1  0.94523386  0.24179129  0.18370856  1  0.069104  0.000279  0.096625  0.087347  8.4e-05  1.04801  0.0
H  H49  1  0.75820023  0.05476198  0.31629531  1  0.069172  -0.000343  0.096621  0.087401  -0.000108  1.047948  0.0
H  H50  1  0.05476290  0.75818926  0.81629762  1  0.069093  -0.000315  0.096641  0.087421  -8.7e-05  1.048082  0.0
H  H51  1  0.24179746  0.94522491  0.68369910  1  0.069173  -0.000316  0.096641  0.087427  -0.000119  1.048054  0.0
H  H52  1  0.51526779  0.92084895  0.07222752  1  0.658806  0.001009  0.293507  0.391616  0.001263  0.950648  0.002
H  H53  1  0.07917735  0.48475090  0.42777401  1  0.661824  -0.001309  0.293535  0.391668  -0.000774  0.95056  -0.002
H  H54  1  0.48472317  0.07916814  0.92776941  1  0.661624  -0.001  0.293567  0.391778  -0.001262  0.950445  -0.002
H  H55  1  0.92083371  0.51525861  0.57222690  1  0.659047  -0.00132  0.293556  0.391756  -0.000775  0.950446  -0.002
H  H56  1  0.48437264  0.84510180  0.99383882  1  0.62618  0.00155  0.315546  0.404039  0.001166  0.894961  0.002
H  H57  1  0.15491485  0.51566182  0.50616881  1  0.625859  -0.001629  0.315486  0.40404  -0.000641  0.894858  -0.002
H  H58  1  0.51561579  0.15491696  0.00615809  1  0.626309  -0.001551  0.315583  0.404083  -0.001164  0.89489  -0.002
H  H59  1  0.84509536  0.48435602  0.49383233  1  0.625972  -0.001627  0.315525  0.404095  -0.00064  0.894894  -0.002
C  C60  1  0.83392710  0.22745863  0.86359892  1  0.504415  0.010425  0.05605  0.095929  0.008382  3.954281  0.007
C  C61  1  0.77254934  0.16607390  0.63639727  1  0.50541  -0.010514  0.056046  0.095892  -0.00844  3.954019  -0.007
C  C62  1  0.16607307  0.77255353  0.13639935  1  0.504182  -0.010447  0.056075  0.095889  -0.0084  3.954747  -0.007
C  C63  1  0.22746264  0.83393247  0.36359278  1  0.504305  -0.010558  0.055985  0.095712  -0.008491  3.953903  -0.007
C  C64  1  0.92537335  0.29731616  0.81921664  1  -0.021489  -0.000244  -0.084602  -0.128515  -0.000215  3.986923  0.0
C  C65  1  0.70269028  0.07461912  0.68077340  1  -0.021699  0.000237  -0.084658  -0.128558  0.000222  3.987274  0.0
C  C66  1  0.07463777  0.70269196  0.18077524  1  -0.021465  0.000128  -0.084588  -0.128395  0.000386  3.986649  0.0
C  C67  1  0.29732335  0.92539169  0.31922043  1  -0.021839  0.000126  -0.084625  -0.128454  0.000387  3.986497  0.0
C  C68  1  0.00593568  0.26723225  0.80413179  1  -0.067381  0.008599  -0.060718  -0.056402  0.006867  3.89547  0.005
C  C69  1  0.73277733  0.99406422  0.69585552  1  -0.068015  -0.00868  -0.060738  -0.056543  -0.00692  3.895582  -0.005
C  C70  1  0.99406111  0.73276219  0.19586943  1  -0.068314  -0.008737  -0.060778  -0.056523  -0.006626  3.896316  -0.005
C  C71  1  0.26723632  0.00594879  0.30413598  1  -0.067624  -0.008828  -0.060687  -0.056431  -0.006702  3.895319  -0.005
C  C72  1  0.99424206  0.16754615  0.83414471  1  0.071592  2.1e-05  0.002657  -0.007608  -0.000135  4.006207  0.0
C  C73  1  0.83247089  0.00576253  0.66584932  1  0.072212  -2.2e-05  0.002698  -0.007423  0.000144  4.00592  0.0
C  C74  1  0.00574797  0.83242742  0.16586405  1  0.072059  -6e-06  0.002597  -0.00774  0.000158  4.006846  0.0
C  C75  1  0.16753520  0.99423581  0.33414270  1  0.071365  -6e-06  0.002712  -0.007575  0.000163  4.006039  0.0
C  C76  1  0.89892357  0.10118150  0.87826947  1  0.43515  0.007417  0.119934  0.115843  0.005738  3.969999  0.005
C  C77  1  0.89883372  0.10108001  0.62172246  1  0.434803  -0.007507  0.120052  0.116036  -0.005817  3.969997  -0.005
C  C78  1  0.10106388  0.89879441  0.12174768  1  0.435339  -0.007625  0.120037  0.116057  -0.005939  3.970441  -0.005
C  C79  1  0.10117241  0.89891399  0.37826524  1  0.435183  -0.007708  0.119942  0.115941  -0.006021  3.970139  -0.005
C  C80  1  0.07240108  0.12841858  0.82368582  1  0.451347  0.000157  0.081175  0.077317  6.5e-05  4.099955  0.0
C  C81  1  0.87157298  0.92758841  0.67631594  1  0.451933  -0.00026  0.08122  0.077323  -0.000146  4.099954  0.0
C  C82  1  0.92759652  0.87157552  0.17631960  1  0.452091  -0.000177  0.081207  0.077243  -5.6e-05  4.100154  0.0
C  C83  1  0.12842809  0.07240892  0.32367410  1  0.451554  -0.000281  0.081102  0.077227  -0.000137  4.100257  0.0
C  C84  1  0.05408912  0.02754400  0.85506253  1  0.407484  0.000204  0.08996  0.07882  0.000148  4.02703  0.0
C  C85  1  0.97245735  0.94589896  0.64494191  1  0.407945  -0.000244  0.090023  0.078959  -5.8e-05  4.026655  0.0
C  C86  1  0.94590342  0.97245122  0.14494697  1  0.408059  -0.000286  0.090066  0.079158  -0.00021  4.026567  0.0
C  C87  1  0.02754289  0.05409504  0.35504740  1  0.408868  -0.000322  0.090036  0.078915  -0.000113  4.02669  0.0
C  C88  1  0.21423481  0.11092415  0.79665824  1  0.984001  -0.000387  0.141076  0.161579  -0.00033  3.994403  0.0
C  C89  1  0.88907771  0.78575944  0.70334279  1  0.984316  0.000265  0.14092  0.161437  0.000261  3.99402  0.0
C  C90  1  0.78575354  0.88906463  0.20335094  1  0.983607  0.000343  0.141054  0.161776  0.000281  3.993722  0.0
C  C91  1  0.11092499  0.21424232  0.29665404  1  0.984141  0.000223  0.141002  0.161528  0.000213  3.993942  0.0
C  C92  1  0.95866145  0.95772600  0.89840530  1  0.01673  7.1e-05  0.002754  -0.01005  -8.2e-05  4.017361  0.0
C  C93  1  0.04227766  0.04132654  0.60159302  1  0.016915  -9.6e-05  0.002707  -0.010393  0.000173  4.017012  0.0
C  C94  1  0.04133448  0.04226435  0.10159996  1  0.016658  -8e-05  0.002594  -0.010283  8e-05  4.01751  0.0
C  C95  1  0.95772175  0.95866341  0.39839555  1  0.016565  -0.000106  0.002711  -0.010128  0.000166  4.016736  0.0
C  C96  1  0.93642908  0.85615751  0.93164483  1  -0.088962  0.008219  -0.068479  -0.074137  0.00649  3.933947  0.005
C  C97  1  0.14385501  0.06356488  0.56835094  1  -0.096018  -0.008458  -0.068263  -0.073415  -0.006437  3.933624  -0.005
C  C98  1  0.06353572  0.14381886  0.06837283  1  -0.088144  -0.008233  -0.068428  -0.073961  -0.006488  3.933675  -0.005
C  C99  1  0.85614356  0.93642174  0.43163750  1  -0.088885  -0.008473  -0.068401  -0.073886  -0.006452  3.933935  -0.005
C  C100  1  0.84029588  0.79802694  0.97296870  1  -0.013897  5.2e-05  -0.079922  -0.126004  -0.000159  3.993363  0.0
C  C101  1  0.20197687  0.15968393  0.52702668  1  -0.008285  -0.000205  -0.079958  -0.125937  4.7e-05  3.993417  0.0
C  C102  1  0.15967066  0.20195835  0.02704090  1  -0.015768  -6e-05  -0.079861  -0.125917  0.000158  3.992477  0.0
C  C103  1  0.79802842  0.84030090  0.47296130  1  -0.01479  -0.000208  -0.080056  -0.12623  4.6e-05  3.9935  0.0
C  C104  1  0.76794644  0.84225387  0.98173348  1  0.55498  0.009896  0.06145  0.108388  0.008215  3.935135  0.006
C  C105  1  0.15775276  0.23203314  0.51825691  1  0.556174  -0.009973  0.061493  0.108451  -0.008265  3.934991  -0.006
C  C106  1  0.23203771  0.15774960  0.01827602  1  0.555578  -0.009906  0.061493  0.108456  -0.008212  3.934996  -0.006
C  C107  1  0.84225923  0.76795719  0.48173145  1  0.555189  -0.009996  0.061527  0.108656  -0.008283  3.935035  -0.006
C  C108  1  0.88090443  0.99662519  0.91013538  1  0.514599  0.007033  0.125081  0.127142  0.005476  3.952865  0.005
C  C109  1  0.00339315  0.11908946  0.58986030  1  0.519071  -0.007124  0.125039  0.127226  -0.005581  3.953292  -0.005
C  C110  1  0.11909315  0.00337691  0.08987209  1  0.520646  -0.007089  0.125179  0.127196  -0.005526  3.952995  -0.005
C  C111  1  0.99661131  0.88090371  0.41012672  1  0.514743  -0.00719  0.125066  0.127142  -0.005632  3.953276  -0.005
C  C112  1  0.76272964  0.18275713  0.08286635  1  1.549817  0.007559  0.208218  0.564142  0.008929  4.198578  0.006
C  C113  1  0.81724808  0.23728028  0.41713686  1  1.54942  -0.007925  0.208242  0.564097  -0.009211  4.198256  -0.006
C  C114  1  0.23726470  0.81723030  0.91712738  1  1.5508  -0.007881  0.207981  0.563805  -0.009169  4.199295  -0.006
C  C115  1  0.18278389  0.76272641  0.58287240  1  1.550662  -0.007621  0.207966  0.563679  -0.008971  4.199427  -0.006
C  C116  1  0.81535771  0.27794672  0.14507303  1  -0.060278  -0.002866  -0.015386  -0.031132  -0.002876  3.974786  -0.003
C  C117  1  0.72204318  0.18464006  0.35491582  1  -0.061078  -0.00115  -0.015348  -0.031011  -0.000285  3.974056  0.0
C  C118  1  0.18465162  0.72205462  0.85493417  1  -0.060085  -0.001083  -0.015563  -0.031031  -0.000256  3.975439  0.0
C  C119  1  0.27795536  0.81534943  0.64507750  1  -0.061419  0.002718  -0.015471  -0.031035  0.00277  3.975271  0.003
C  C120  1  0.76842653  0.34730911  0.15749962  1  -0.000523  0.002716  -0.07849  -0.082876  0.002011  3.963125  0.002
C  C121  1  0.65267168  0.23157276  0.34249893  1  -0.000819  -0.002081  -0.07837  -0.082874  -0.001467  3.962717  -0.001
C  C122  1  0.23158613  0.65270772  0.84251056  1  -0.000988  -0.002175  -0.078381  -0.082995  -0.001569  3.963399  -0.001
C  C123  1  0.34732094  0.76842838  0.65749937  1  0.000285  -0.002842  -0.07838  -0.082906  -0.002096  3.96313  -0.002
C  C124  1  0.81164239  0.43033449  0.21949551  1  -0.027982  -0.00295  -0.078029  -0.092283  -0.00222  3.962454  -0.002
C  C125  1  0.56965169  0.18834757  0.28049482  1  -0.028612  -0.002121  -0.078111  -0.092366  -0.001566  3.962663  -0.001
C  C126  1  0.18837530  0.56967826  0.78051530  1  -0.026949  -0.002  -0.077944  -0.092099  -0.00148  3.96148  -0.001
C  C127  1  0.43034684  0.81165723  0.71949957  1  -0.028287  0.002765  -0.078049  -0.092255  0.002059  3.962336  0.002
C  C128  1  0.90379165  0.44673862  0.26888003  1  -0.037581  0.002284  -0.015316  -0.030914  0.00238  3.985311  0.002
C  C129  1  0.55325411  0.09621167  0.23111448  1  -0.037241  -0.001087  -0.015236  -0.03055  -0.00043  3.98555  0.0
C  C130  1  0.09621511  0.55326070  0.73113423  1  -0.037814  -0.001062  -0.015255  -0.031013  -0.000267  3.984179  0.0
C  C131  1  0.44674442  0.90380334  0.76887902  1  -0.037679  -0.002477  -0.015297  -0.030897  -0.00239  3.985261  -0.002
C  C132  1  0.95395478  0.38066764  0.25439017  1  -0.009782  -0.003073  -0.089307  -0.105702  -0.002118  3.984742  -0.002
C  C133  1  0.61929712  0.04604043  0.24560350  1  -0.010286  -0.00228  -0.089503  -0.10604  -0.001815  3.985049  -0.001
C  C134  1  0.04604859  0.61933436  0.74562766  1  -0.009687  -0.002234  -0.089413  -0.105785  -0.001463  3.984722  -0.001
C  C135  1  0.38066708  0.95396129  0.75438315  1  -0.009542  0.00282  -0.089265  -0.105551  0.002221  3.98481  0.002
C  C136  1  0.90917329  0.29607301  0.19347688  1  -0.098412  0.002717  -0.08942  -0.099895  0.001997  3.991572  0.002
C  C137  1  0.70390216  0.09080806  0.30651039  1  -0.097555  -0.001895  -0.089419  -0.100095  -0.001334  3.991152  -0.001
C  C138  1  0.09084101  0.70393222  0.80653839  1  -0.098417  -0.001957  -0.089205  -0.099813  -0.001371  3.991834  -0.001
C  C139  1  0.29607801  0.90917386  0.69347194  1  -0.098059  -0.002824  -0.089339  -0.09997  -0.00206  3.991633  -0.002
C  C140  1  0.94441816  0.53154957  0.33814902  1  1.532952  -0.007381  0.203892  0.550684  -0.008991  4.221603  -0.005
C  C141  1  0.46845572  0.05559912  0.16185496  1  1.532964  -0.007331  0.203978  0.550961  -0.0091  4.221642  -0.005
C  C142  1  0.05557866  0.46843323  0.66184884  1  1.533342  -0.007533  0.203951  0.550659  -0.009091  4.220739  -0.005
C  C143  1  0.53156194  0.94443986  0.83815905  1  1.533519  0.007068  0.204021  0.550651  0.008909  4.221587  0.005
N  N144  1  0.82104367  0.13248584  0.89199800  1  -1.246933  0.051585  -0.316718  -0.267941  0.034565  3.532485  0.017
N  N145  1  0.86753288  0.17896235  0.60799569  1  -1.246526  -0.051584  -0.316711  -0.267989  -0.034511  3.532452  -0.017
N  N146  1  0.17893292  0.86751681  0.10801304  1  -1.247328  -0.051639  -0.316771  -0.267952  -0.034592  3.533785  -0.017
N  N147  1  0.13247825  0.82103850  0.39199477  1  -1.246475  -0.051649  -0.3167  -0.267926  -0.034583  3.532543  -0.017
N  N148  1  0.78824892  0.93887947  0.95198496  1  -1.231359  0.052693  -0.306312  -0.248974  0.036162  3.492428  0.02
N  N149  1  0.06112639  0.21173073  0.54800365  1  -1.237028  -0.05283  -0.306404  -0.249157  -0.036226  3.492535  -0.02
N  N150  1  0.21172770  0.06112394  0.04802191  1  -1.237132  -0.052713  -0.306361  -0.248937  -0.036106  3.493276  -0.02
N  N151  1  0.93888311  0.78826203  0.45198172  1  -1.231984  -0.052843  -0.306293  -0.249049  -0.036224  3.492915  -0.02
N  N152  1  0.17289013  0.17944972  0.78713039  1  -1.148904  -0.0001  -0.354112  -0.372576  -1.5e-05  3.219964  0.0
N  N153  1  0.82054030  0.82710050  0.71287233  1  -1.1487  1.6e-05  -0.354149  -0.372618  -4e-05  3.219677  0.0
N  N154  1  0.82711587  0.82053759  0.21287448  1  -1.148973  6.7e-05  -0.354159  -0.372698  7.1e-05  3.21989  0.0
N  N155  1  0.17946408  0.17290062  0.28712452  1  -1.148876  -1.3e-05  -0.354048  -0.372516  2.6e-05  3.219859  0.0
N  N156  1  0.14571920  0.01770508  0.83642129  1  -1.311663  -0.000476  -0.380116  -0.270953  -0.000162  3.629561  0.0
N  N157  1  0.98229803  0.85427097  0.66357923  1  -1.312443  -0.000258  -0.380056  -0.270892  -1.4e-05  3.629532  0.0
N  N158  1  0.85426494  0.98228380  0.16358956  1  -1.312019  0.000412  -0.380136  -0.271329  0.000119  3.629642  0.0
N  N159  1  0.01769968  0.14572469  0.33641305  1  -1.312201  -0.00031  -0.380062  -0.270907  -5.2e-05  3.629075  0.0
O  O160  1  0.68262016  0.17047678  0.03525577  1  -1.191485  0.042372  -0.307469  -0.552181  0.030392  2.186561  0.02
O  O161  1  0.82953983  0.31739316  0.46474618  1  -1.191022  -0.043924  -0.307446  -0.552089  -0.030716  2.186753  -0.021
O  O162  1  0.31738088  0.82954021  0.96473787  1  -1.191473  -0.042923  -0.307397  -0.552045  -0.030761  2.186598  -0.021
O  O163  1  0.17046876  0.68262244  0.53524825  1  -1.191447  -0.043423  -0.307442  -0.55207  -0.030343  2.187018  -0.021
O  O164  1  0.80008678  0.11333792  0.07821179  1  -1.200667  0.046143  -0.314526  -0.575333  0.034216  2.283041  0.024
O  O165  1  0.88666052  0.19990694  0.42178971  1  -1.200653  -0.046696  -0.314526  -0.575394  -0.034556  2.282987  -0.025
O  O166  1  0.19990406  0.88663967  0.92180192  1  -1.20162  -0.046592  -0.314549  -0.575368  -0.034493  2.28327  -0.025
O  O167  1  0.11334311  0.80005886  0.57819584  1  -1.201425  -0.04628  -0.314419  -0.575202  -0.034225  2.283013  -0.025
O  O168  1  0.88686536  0.57686491  0.35764632  1  -1.172314  -0.048494  -0.307149  -0.536201  -0.034688  2.166232  -0.028
O  O169  1  0.42313750  0.11314315  0.14237033  1  -1.172527  -0.048703  -0.307217  -0.536318  -0.034881  2.166424  -0.029
O  O170  1  0.11314227  0.42311662  0.64236443  1  -1.172246  -0.048975  -0.307233  -0.536208  -0.035082  2.165987  -0.029
O  O171  1  0.57686928  0.88687368  0.85764087  1  -1.172247  0.048115  -0.307183  -0.536131  0.034503  2.166324  0.028
O  O172  1  0.03794933  0.55810165  0.37693574  1  -1.207839  -0.048487  -0.317701  -0.581042  -0.034619  2.27606  -0.024
O  O173  1  0.44191562  0.96207744  0.12306072  1  -1.207165  -0.047362  -0.317691  -0.581209  -0.034584  2.276074  -0.024
O  O174  1  0.96204496  0.44190395  0.62306514  1  -1.207792  -0.048756  -0.317694  -0.581038  -0.034825  2.275855  -0.025
O  O175  1  0.55808710  0.03797464  0.87693285  1  -1.207965  0.046926  -0.31772  -0.581018  0.034323  2.275928  0.024
O  O176  1  0.54834754  0.89112447  0.03175906  1  -1.271553  0.058064  -0.568125  -0.74375  0.040988  2.055175  0.024
O  O177  1  0.10889492  0.45168166  0.46825625  1  -1.274117  -0.059014  -0.568065  -0.743777  -0.041211  2.055228  -0.024
O  O178  1  0.45164677  0.10888552  0.96823896  1  -1.274356  -0.058088  -0.568148  -0.743849  -0.040937  2.055199  -0.024
O  O179  1  0.89111864  0.54833054  0.53174602  1  -1.271398  -0.058991  -0.568133  -0.743883  -0.041222  2.055147  -0.024
