# generated using pymatgen
data_CuH12C11N2O5
_symmetry_space_group_name_H-M   'P 1'
_cell_length_a   7.68440293
_cell_length_b   10.70279233
_cell_length_c   15.07181917
_cell_angle_alpha   90.00000081
_cell_angle_beta   90.67164366
_cell_angle_gamma   89.99928280
_symmetry_Int_Tables_number   1
_chemical_formula_structural   CuH12C11N2O5
_chemical_formula_sum   'Cu4 H48 C44 N8 O20'
_cell_volume   1239.49010032
_cell_formula_units_Z   4
loop_
 _symmetry_equiv_pos_site_id
 _symmetry_equiv_pos_as_xyz
  1  'x, y, z'
loop_
 _atom_site_type_symbol
 _atom_site_label
 _atom_site_symmetry_multiplicity
 _atom_site_fract_x
 _atom_site_fract_y
 _atom_site_fract_z
 _atom_site_occupancy
 _atom_site_pbe_bader_charge
 _atom_site_pbe_bader_spin_density
 _atom_site_pbe_cm5_charge
 _atom_site_pbe_ddec_charge
 _atom_site_pbe_ddec_spin_density
 _atom_site_pbe_ddec_sum_bond_order
 _atom_site_pbe_magmom
Cu  Cu0  1  0.38576098  0.58720018  0.99645057  1  1.087334  -0.543832  0.680364  0.819965  -0.69843  2.320893  -0.541
Cu  Cu1  1  0.61423782  0.08719973  0.50355005  1  1.087395  -0.543838  0.680361  0.819994  -0.698447  2.320945  -0.541
Cu  Cu2  1  0.61425172  0.41280074  0.00354675  1  1.089487  0.543829  0.680329  0.819922  0.698439  2.32089  0.541
Cu  Cu3  1  0.38575536  0.91279745  0.49645379  1  1.0895  0.54384  0.68032  0.819933  0.69844  2.320801  0.541
H  H4  1  0.29129268  0.81856639  0.72240108  1  0.452511  -6.5e-05  0.302749  0.300399  -3e-05  0.950745  0.0
H  H5  1  0.70871638  0.31856977  0.77760426  1  0.452464  -6.6e-05  0.302735  0.30042  -3e-05  0.950708  0.0
H  H6  1  0.70872652  0.18143266  0.27759695  1  0.452363  6.5e-05  0.302786  0.300457  3e-05  0.950714  0.0
H  H7  1  0.29127940  0.68142928  0.22240159  1  0.452461  6.5e-05  0.302743  0.300382  2.9e-05  0.950776  0.0
H  H8  1  0.29378211  0.72016963  0.81202743  1  0.47445  6e-06  0.300487  0.308753  5e-06  0.969905  0.0
H  H9  1  0.70623258  0.22016929  0.68798126  1  0.474591  7e-06  0.300458  0.308736  5e-06  0.969877  0.0
H  H10  1  0.70623449  0.27982755  0.18797125  1  0.474465  -6e-06  0.300491  0.308764  -5e-06  0.969939  0.0
H  H11  1  0.29376450  0.77982509  0.31202592  1  0.474544  -6e-06  0.300537  0.308783  -5e-06  0.96985  0.0
H  H12  1  0.54812847  0.72679012  0.73574825  1  0.089623  8.7e-05  0.101306  0.104645  6.3e-05  1.065157  0.0
H  H13  1  0.45188090  0.22679113  0.76425045  1  0.08957  8.8e-05  0.101288  0.104661  6.3e-05  1.065207  0.0
H  H14  1  0.45188683  0.27321266  0.26424644  1  0.089585  -8.8e-05  0.101302  0.104674  -6.3e-05  1.065177  0.0
H  H15  1  0.54811488  0.77321726  0.23575407  1  0.089593  -8.8e-05  0.101305  0.104722  -6.4e-05  1.065149  0.0
H  H16  1  0.03036233  0.61129922  0.85979208  1  0.123414  5.8e-05  0.110301  0.140104  2.9e-05  1.021018  0.0
H  H17  1  0.96964385  0.11130026  0.64021721  1  0.123438  5.8e-05  0.110301  0.140126  3e-05  1.020997  0.0
H  H18  1  0.96965428  0.38869329  0.14020261  1  0.122685  -5.8e-05  0.110321  0.140111  -3e-05  1.021142  0.0
H  H19  1  0.03034801  0.88869412  0.35979392  1  0.122749  -5.8e-05  0.110311  0.140113  -3e-05  1.021004  0.0
H  H20  1  0.03372321  0.87476129  0.64202096  1  0.130632  -3.7e-05  0.107523  0.133949  -1e-06  1.034834  0.0
H  H21  1  0.96629137  0.37476423  0.85798574  1  0.130277  -3.7e-05  0.107539  0.134033  -1e-06  1.034801  0.0
H  H22  1  0.96629470  0.12523963  0.35797905  1  0.130334  3.7e-05  0.107538  0.134023  1e-06  1.034746  0.0
H  H23  1  0.03370440  0.62523201  0.14202077  1  0.130424  3.6e-05  0.107528  0.134021  1e-06  1.034731  0.0
H  H24  1  0.26008345  0.83192846  0.10216743  1  0.110195  9e-06  0.115631  0.040097  1.5e-05  1.048856  0.0
H  H25  1  0.73991463  0.33193997  0.39783106  1  0.110244  9e-06  0.115679  0.040151  1.5e-05  1.04887  0.0
H  H26  1  0.73990973  0.16806218  0.89782845  1  0.110191  -9e-06  0.115612  0.040051  -1.5e-05  1.04891  0.0
H  H27  1  0.26009677  0.66806842  0.60216559  1  0.110264  -1e-05  0.115656  0.040188  -1.5e-05  1.048804  0.0
H  H28  1  0.20395949  0.92832318  0.87388784  1  0.075663  6e-06  0.106412  0.121135  -7e-06  1.037598  0.0
H  H29  1  0.79602553  0.42832765  0.62611005  1  0.075351  6e-06  0.106404  0.121143  -7e-06  1.037456  0.0
H  H30  1  0.79602588  0.07167399  0.12610932  1  0.075299  -6e-06  0.10639  0.121129  7e-06  1.037513  0.0
H  H31  1  0.20396114  0.57167233  0.37388711  1  0.07614  -7e-06  0.10641  0.12113  7e-06  1.037594  0.0
H  H32  1  0.34319305  0.05945491  0.89683769  1  0.069052  4.4e-05  0.102185  0.119178  4.5e-05  1.000302  0.0
H  H33  1  0.65678672  0.55946228  0.60316282  1  0.068829  4.4e-05  0.102145  0.119109  4.5e-05  1.000323  0.0
H  H34  1  0.65679232  0.94054133  0.10316279  1  0.068911  -4.5e-05  0.102136  0.119109  -4.5e-05  1.000314  0.0
H  H35  1  0.34320256  0.44053957  0.39683503  1  0.06894  -4.5e-05  0.102137  0.119111  -4.5e-05  1.00033  0.0
H  H36  1  0.11485380  0.07519762  0.90838637  1  0.049861  0.0  0.100793  0.112922  -3e-06  1.013108  0.0
H  H37  1  0.88512959  0.57520388  0.59161681  1  0.049951  0.0  0.100794  0.112897  -3e-06  1.013098  0.0
H  H38  1  0.88513417  0.92479956  0.09161346  1  0.049919  -0.0  0.100788  0.112913  3e-06  1.013135  0.0
H  H39  1  0.11485968  0.42479798  0.40838767  1  0.049847  -0.0  0.100803  0.11289  3e-06  1.013116  0.0
H  H40  1  0.14222649  0.12768100  0.07456068  1  0.037118  -9e-06  0.102595  0.121096  -8e-06  1.00142  0.0
H  H41  1  0.85777126  0.62768750  0.42543914  1  0.03707  -9e-06  0.102614  0.121108  -8e-06  1.00138  0.0
H  H42  1  0.85775367  0.87231151  0.92543578  1  0.037137  8e-06  0.102588  0.121088  8e-06  1.001393  0.0
H  H43  1  0.14223884  0.37231809  0.57456083  1  0.037175  9e-06  0.102553  0.121  8e-06  1.001382  0.0
H  H44  1  0.37236941  0.12424628  0.06302249  1  0.082846  2.3e-05  0.103432  0.129679  2e-05  0.995949  0.0
H  H45  1  0.62762581  0.62425952  0.43697333  1  0.082724  2.3e-05  0.103407  0.12962  2e-05  0.995941  0.0
H  H46  1  0.62760815  0.87574903  0.93697528  1  0.082644  -2.3e-05  0.103425  0.129601  -2e-05  0.995942  0.0
H  H47  1  0.37238559  0.37575074  0.56302399  1  0.082708  -2.3e-05  0.103407  0.129622  -2e-05  0.995967  0.0
H  H48  1  0.26899374  0.02330486  0.14126559  1  0.077648  -1e-06  0.107992  0.122566  -3e-06  1.00275  0.0
H  H49  1  0.73100584  0.52331437  0.35873291  1  0.077199  -1e-06  0.108021  0.122564  -3e-06  1.002799  0.0
H  H50  1  0.73098773  0.97669138  0.85873221  1  0.077601  1e-06  0.108015  0.122566  3e-06  1.002731  0.0
H  H51  1  0.26900295  0.47669589  0.64126572  1  0.077648  1e-06  0.108016  0.12259  3e-06  1.002781  0.0
C  C52  1  0.68301569  0.87820795  0.61287130  1  1.522506  0.000455  0.216933  0.580111  0.000324  4.150501  0.001
C  C53  1  0.31699233  0.37821297  0.88712806  1  1.522874  0.000459  0.216884  0.580047  0.000323  4.150546  0.001
C  C54  1  0.31699441  0.12179297  0.38712933  1  1.522665  -0.000456  0.2169  0.580077  -0.000323  4.150741  -0.001
C  C55  1  0.68300605  0.62179262  0.11287316  1  1.522615  -0.000458  0.216906  0.580028  -0.000324  4.150726  -0.001
C  C56  1  0.78192782  0.80615341  0.68154704  1  -0.001332  4e-06  -0.020151  -0.010123  -1.7e-05  4.036529  0.0
C  C57  1  0.21808667  0.30615278  0.81845634  1  -0.002313  1e-06  -0.020083  -0.010033  -1.7e-05  4.036404  0.0
C  C58  1  0.21808358  0.19384937  0.31845094  1  -0.002034  1e-06  -0.020147  -0.010075  2e-05  4.036494  0.0
C  C59  1  0.78191822  0.69385001  0.18154824  1  -0.001982  -0.0  -0.020164  -0.010199  1.9e-05  4.036653  0.0
C  C60  1  0.68876516  0.73230021  0.74067246  1  -0.044908  0.000565  -0.102731  -0.16635  0.000332  3.991268  0.0
C  C61  1  0.31123891  0.23229873  0.75932753  1  -0.044553  0.000563  -0.102605  -0.166202  0.00033  3.991346  0.0
C  C62  1  0.31124494  0.26769978  0.25932286  1  -0.044352  -0.000564  -0.10261  -0.166195  -0.000331  3.991135  0.0
C  C63  1  0.68875296  0.76770405  0.24067696  1  -0.044807  -0.000564  -0.10264  -0.166299  -0.000331  3.991177  0.0
C  C64  1  0.77935503  0.66446050  0.80551816  1  0.011217  0.000106  -0.017969  -0.008133  0.00014  4.016604  0.0
C  C65  1  0.22065543  0.16445797  0.69448651  1  0.011191  0.000108  -0.018059  -0.008336  0.000141  4.016888  0.0
C  C66  1  0.22066157  0.33554696  0.19447919  1  0.010932  -0.000104  -0.01794  -0.008259  -0.000138  4.016443  0.0
C  C67  1  0.77934686  0.83554762  0.30551805  1  0.011338  -0.000103  -0.017943  -0.008148  -0.000137  4.016551  0.0
C  C68  1  0.67723117  0.59600218  0.87380936  1  1.528779  -0.000918  0.218758  0.579333  -0.000739  4.149479  -0.001
C  C69  1  0.32277658  0.09599687  0.62619331  1  1.528803  -0.000916  0.218701  0.579247  -0.000737  4.149659  -0.001
C  C70  1  0.32278543  0.40399593  0.12618667  1  1.528906  0.000914  0.218745  0.579236  0.000736  4.149488  0.001
C  C71  1  0.67721529  0.90399657  0.37381118  1  1.528814  0.000916  0.218779  0.579272  0.000738  4.149341  0.001
C  C72  1  0.96105639  0.66616017  0.80979262  1  0.00225  0.001959  -0.090222  -0.207938  0.00131  3.871608  0.001
C  C73  1  0.03894623  0.16615833  0.69021466  1  0.002147  0.001958  -0.090255  -0.207985  0.00131  3.871638  0.001
C  C74  1  0.03894720  0.33383794  0.19020199  1  0.00304  -0.001959  -0.090287  -0.207949  -0.00131  3.871554  -0.001
C  C75  1  0.96105345  0.83383791  0.30979453  1  0.003015  -0.001959  -0.090273  -0.207961  -0.00131  3.871556  -0.001
C  C76  1  0.05471171  0.74272836  0.75099826  1  0.350898  -0.000233  0.096554  0.300236  -0.000144  4.097531  0.0
C  C77  1  0.94529868  0.24273429  0.74901173  1  0.350804  -0.000233  0.096586  0.300332  -0.000145  4.097516  0.0
C  C78  1  0.94530229  0.25726788  0.24900173  1  0.350485  0.000233  0.096535  0.300177  0.000145  4.09783  0.0
C  C79  1  0.05470230  0.75726662  0.25099482  1  0.35047  0.000234  0.096602  0.300206  0.000145  4.097721  0.0
C  C80  1  0.96316606  0.81388797  0.68713832  1  -0.043301  -0.00063  -0.096028  -0.224893  -0.000446  3.89999  0.0
C  C81  1  0.03684438  0.31388989  0.81286902  1  -0.042579  -0.000631  -0.096122  -0.225093  -0.000447  3.900238  0.0
C  C82  1  0.03685054  0.18611108  0.31285970  1  -0.042385  0.000632  -0.096137  -0.225073  0.000447  3.900292  0.0
C  C83  1  0.96315009  0.68610916  0.18713948  1  -0.042576  0.00063  -0.09612  -0.225017  0.000446  3.900261  0.0
C  C84  1  0.24196087  0.84803088  0.03021865  1  1.346351  0.00047  0.164594  0.293914  0.000382  4.112823  0.0
C  C85  1  0.75802782  0.34804597  0.46977713  1  1.345872  0.000471  0.164531  0.293921  0.000382  4.112422  0.0
C  C86  1  0.75803231  0.15196069  0.96977590  1  1.345824  -0.00047  0.164574  0.294068  -0.000382  4.112826  0.0
C  C87  1  0.24197318  0.65197364  0.53021282  1  1.346012  -0.00047  0.164598  0.293837  -0.000382  4.113153  0.0
C  C88  1  0.22430504  0.00998331  0.91636818  1  0.278433  2e-06  -0.13777  -0.268457  4e-06  3.890937  0.0
C  C89  1  0.77567819  0.50999148  0.58363168  1  0.27901  2e-06  -0.137738  -0.268373  4e-06  3.89073  0.0
C  C90  1  0.77568033  0.99001294  0.08362964  1  0.278844  -2e-06  -0.137709  -0.268327  -4e-06  3.89088  0.0
C  C91  1  0.22431108  0.49001224  0.41636683  1  0.278213  -2e-06  -0.137766  -0.268323  -4e-06  3.89098  0.0
C  C92  1  0.25701403  0.06632734  0.07542373  1  0.287803  -1e-06  -0.134977  -0.280906  7e-06  3.904441  0.0
C  C93  1  0.74298089  0.56633860  0.42457341  1  0.288296  -1e-06  -0.134925  -0.280792  7e-06  3.904489  0.0
C  C94  1  0.74296483  0.93366704  0.92457338  1  0.287812  1e-06  -0.134943  -0.280696  -7e-06  3.904373  0.0
C  C95  1  0.25702791  0.43367166  0.57542455  1  0.287762  1e-06  -0.134926  -0.280688  -7e-06  3.904491  0.0
N  N96  1  0.23471574  0.74548665  0.75394387  1  -1.268887  2.6e-05  -0.596705  -0.621902  2e-06  3.328315  0.0
N  N97  1  0.76529199  0.24548765  0.74606344  1  -1.268845  2.6e-05  -0.596662  -0.621885  1e-06  3.328115  0.0
N  N98  1  0.76529956  0.25451240  0.24605281  1  -1.26854  -2.5e-05  -0.596688  -0.621858  -1e-06  3.328376  0.0
N  N99  1  0.23470118  0.75450953  0.25394438  1  -1.268746  -2.5e-05  -0.596736  -0.621824  -1e-06  3.328396  0.0
N  N100  1  0.23904523  0.96949546  0.00817076  1  -1.229336  0.000228  -0.285798  0.023611  0.000127  3.72465  0.0
N  N101  1  0.76094393  0.46950491  0.49182834  1  -1.22921  0.000229  -0.285828  0.023605  0.000127  3.724609  0.0
N  N102  1  0.76093883  0.03050079  0.99182705  1  -1.228818  -0.000229  -0.285806  0.02337  -0.000127  3.724728  0.0
N  N103  1  0.23905576  0.53049974  0.50816957  1  -1.229021  -0.000229  -0.285846  0.023363  -0.000127  3.724679  0.0
O  O104  1  0.74742708  0.98190023  0.58775508  1  -1.099499  -0.087814  -0.302644  -0.495714  -0.057038  2.355983  -0.08
O  O105  1  0.25256871  0.48190022  0.91224885  1  -1.099516  -0.087817  -0.302629  -0.495627  -0.05704  2.355883  -0.08
O  O106  1  0.25257911  0.01810536  0.41224818  1  -1.099368  0.087797  -0.302554  -0.495606  0.057028  2.356062  0.08
O  O107  1  0.74741795  0.51810164  0.08775827  1  -1.099339  0.087801  -0.302587  -0.495549  0.057029  2.356119  0.08
O  O108  1  0.53972524  0.82982682  0.58570775  1  -1.120608  0.079675  -0.317792  -0.544531  0.051907  2.383555  0.072
O  O109  1  0.46029144  0.32983897  0.91428835  1  -1.120511  0.079676  -0.317767  -0.544568  0.051909  2.383579  0.072
O  O110  1  0.46029136  0.17017316  0.41429159  1  -1.120695  -0.079668  -0.317806  -0.544609  -0.051904  2.383633  -0.072
O  O111  1  0.53970955  0.67017690  0.08570758  1  -1.120628  -0.079674  -0.317817  -0.544573  -0.051907  2.383521  -0.072
O  O112  1  0.53440094  0.64726234  0.89684166  1  -1.116875  -0.077271  -0.311533  -0.538535  -0.050396  2.389678  -0.07
O  O113  1  0.46560071  0.14726416  0.60315632  1  -1.116922  -0.077275  -0.311499  -0.538429  -0.050399  2.389611  -0.07
O  O114  1  0.46560916  0.35272923  0.10314967  1  -1.117151  0.077282  -0.311607  -0.538515  0.050401  2.389555  0.07
O  O115  1  0.53439246  0.85273302  0.39684486  1  -1.117098  0.077277  -0.311546  -0.5385  0.050398  2.389609  0.07
O  O116  1  0.74020324  0.49449194  0.90481615  1  -1.101054  0.08928  -0.303425  -0.506723  0.05801  2.361009  0.081
O  O117  1  0.25981185  0.99448604  0.59518989  1  -1.101026  0.089266  -0.303342  -0.50666  0.058002  2.361171  0.081
O  O118  1  0.25981727  0.50551084  0.09518321  1  -1.10093  -0.089274  -0.303367  -0.506603  -0.058006  2.36094  -0.081
O  O119  1  0.74018393  0.00551114  0.40481795  1  -1.100841  -0.089274  -0.303419  -0.506673  -0.058006  2.360854  -0.081
O  O120  1  0.22691241  0.75976520  0.97602410  1  -1.163961  0.001301  -0.320896  -0.477558  0.000646  2.33517  0.0
O  O121  1  0.77306645  0.25976987  0.52397707  1  -1.163649  0.0013  -0.320883  -0.477656  0.000646  2.334764  0.0
O  O122  1  0.77308727  0.24023198  0.02397182  1  -1.163762  -0.001299  -0.320863  -0.477595  -0.000645  2.335121  0.0
O  O123  1  0.22692413  0.74022637  0.47602410  1  -1.16409  -0.0013  -0.320856  -0.477416  -0.000646  2.33567  0.0
