# generated using pymatgen
data_Zr6H28C52S5O47F2
_symmetry_space_group_name_H-M   'P 1'
_cell_length_a   14.89503474
_cell_length_b   14.78851243
_cell_length_c   14.78664286
_cell_angle_alpha   60.00661792
_cell_angle_beta   59.48289514
_cell_angle_gamma   59.86516619
_symmetry_Int_Tables_number   1
_chemical_formula_structural   Zr6H28C52S5O47F2
_chemical_formula_sum   'Zr6 H28 C52 S5 O47 F2'
_cell_volume   2291.79088544
_cell_formula_units_Z   1
loop_
 _symmetry_equiv_pos_site_id
 _symmetry_equiv_pos_as_xyz
  1  'x, y, z'
loop_
 _atom_site_type_symbol
 _atom_site_label
 _atom_site_symmetry_multiplicity
 _atom_site_fract_x
 _atom_site_fract_y
 _atom_site_fract_z
 _atom_site_occupancy
 _atom_site_pbe_bader_charge
 _atom_site_pbe_bader_spin_density
 _atom_site_pbe_cm5_charge
 _atom_site_pbe_ddec_charge
 _atom_site_pbe_ddec_spin_density
 _atom_site_pbe_ddec_sum_bond_order
 _atom_site_pbe_magmom
Zr  Zr0  1  0.87422329  0.87983072  0.62057360  1  2.639378  0  1.63556  2.375825  0  2.741916  0
Zr  Zr1  1  0.11219820  0.11898076  0.38587571  1  2.628853  0  1.633555  2.371039  0  2.765981  0
Zr  Zr2  1  0.11111321  0.87854950  0.62317881  1  2.628679  0  1.625421  2.373591  0  2.729664  0
Zr  Zr3  1  0.87429334  0.12069748  0.38329985  1  2.640549  0  1.643228  2.377632  0  2.75274  0
Zr  Zr4  1  0.11533929  0.88391814  0.37949894  1  2.634729  0  1.63036  2.368703  0  2.754194  0
Zr  Zr5  1  0.87334648  0.11786619  0.62411904  1  2.628523  0  1.631733  2.367404  0  2.763906  0
H  H6  1  0.08972625  0.71753356  0.59310920  1  0.602758  0  0.328529  0.418549  0  0.865758  0
H  H7  1  0.09147409  0.09623089  0.21951280  1  0.616631  0  0.332362  0.423012  0  0.862106  0
H  H8  1  0.08635489  0.09123967  0.59918778  1  0.608667  0  0.32905  0.420647  0  0.861648  0
H  H9  1  0.71226547  0.09260015  0.59705129  1  0.625753  0  0.335358  0.427243  0  0.851059  0
H  H10  1  0.83194792  0.60756344  0.61808033  1  0.133179  0  0.123337  0.132198  0  0.968232  0
H  H11  1  0.14467697  0.58685808  0.34975211  1  0.182853  0  0.119259  0.140435  0  1.027544  0
H  H12  1  0.83769171  0.43659788  0.61704504  1  0.115321  0  0.118257  0.130163  0  0.988969  0
H  H13  1  0.58033145  0.84693266  0.93425941  1  0.115098  0  0.121827  0.130611  0  0.96678  0
H  H14  1  0.57580537  0.15683240  0.89725873  1  0.181476  0  0.12013  0.144868  0  1.018087  0
H  H15  1  0.41155412  0.85929381  0.10274083  1  0.154665  0  0.115478  0.140124  0  1.018596  0
H  H16  1  0.12276313  0.83521822  0.09979827  1  0.118958  0  0.124118  0.133707  0  0.961976  0
H  H17  1  0.84864424  0.13974833  0.09996888  1  0.14447  0  0.123029  0.139781  0  1.004897  0
H  H18  1  0.11162879  0.84194601  0.93378828  1  0.145261  0  0.117161  0.130067  0  0.993526  0
H  H19  1  0.57250830  0.42760657  0.65089281  1  0.121223  0  0.12275  0.132654  0  0.966038  0
H  H20  1  0.59846245  0.40960166  0.35649601  1  0.169215  0  0.121815  0.139598  0  1.004213  0
H  H21  1  0.40614778  0.59611747  0.63738095  1  0.160345  0  0.118232  0.141971  0  1.003017  0
H  H22  1  0.98705487  0.57089470  0.74042971  1  0.07204  0  0.095785  0.096662  0  1.05391  0
H  H23  1  0.99819686  0.39984079  0.73945262  1  0.069268  0  0.096854  0.09464  0  1.015788  0
H  H24  1  0.99521257  0.23383109  0.07550900  1  0.052244  0  0.097267  0.097904  0  1.049173  0
H  H25  1  0.00481676  0.23055960  0.90663181  1  0.06317  0  0.094388  0.088281  0  1.033864  0
H  H26  1  0.60061866  0.11727376  0.33063176  1  0.130062  0  0.125913  0.13658  0  0.958571  0
H  H27  1  0.58633574  0.85907167  0.64760533  1  0.146657  0  0.119392  0.136427  0  1.007496  0
H  H28  1  0.43456131  0.10649226  0.34175219  1  0.171421  0  0.116343  0.136708  0  1.018632  0
H  H29  1  0.25774066  0.22514623  0.38522416  1  0.648863  0  0.320828  0.378657  0  0.936004  0
H  H30  1  0.23308401  0.31249768  0.13704714  1  0.660506  0  0.322492  0.400198  0  0.912442  0
H  H31  1  0.87634251  0.23436875  0.75203665  1  0.654757  0  0.316046  0.367694  0  0.956553  0
H  H32  1  0.26413149  0.64516119  0.37974099  1  0.642632  0  0.311039  0.356643  0  0.985787  0
H  H33  1  0.24572382  0.88549925  0.72779974  1  0.659561  0  0.314711  0.364863  0  0.963079  0
C  C34  1  0.99234488  0.70297611  0.49100763  1  1.563599  0  0.241745  0.639754  0  4.091716  0
C  C35  1  0.29940218  0.00751286  0.20046003  1  1.546689  0  0.243207  0.647008  0  4.07569  0
C  C36  1  0.99412505  0.30679264  0.49910834  1  1.556053  0  0.242646  0.644612  0  4.086818  0
C  C37  1  0.69231805  0.99549461  0.80748440  1  1.527182  0  0.242944  0.64414  0  4.082082  0
C  C38  1  0.98784133  0.70039091  0.80909338  1  1.567103  0  0.246894  0.679541  0  4.074761  0
C  C39  1  0.69928693  0.99581099  0.49185421  1  1.559264  0  0.242423  0.642068  0  4.09315  0
C  C40  1  0.98526712  0.30900570  0.20667709  1  1.583882  0  0.24693  0.675375  0  4.072595  0
C  C41  1  0.30364354  0.99155674  0.50701033  1  1.546497  0  0.244776  0.645238  0  4.052933  0
C  C42  1  0.30356167  0.69776407  0.49421290  1  1.5248  0  0.24675  0.64678  0  4.055947  0
C  C43  1  0.98493121  0.99715072  0.81454206  1  1.562465  0  0.244229  0.648879  0  4.066943  0
C  C44  1  0.69584090  0.30663585  0.50569878  1  1.52658  0  0.243057  0.64339  0  4.088734  0
C  C45  1  0.99374671  0.99315761  0.20351683  1  1.564763  0  0.24105  0.639319  0  4.09758  0
C  C46  1  0.99460464  0.41356875  0.48579310  1  0.010399  0  -0.00221  -0.037843  0  3.90968  0
C  C47  1  0.98895386  0.60674476  0.48505326  1  -0.049075  0  -0.005596  -0.023496  0  3.941105  0
C  C48  1  0.08120222  0.45828782  0.40730332  1  -0.138011  0  -0.000671  -0.084105  0  3.847028  0
C  C49  1  0.90099562  0.56593752  0.55915652  1  -0.012075  0  -0.062095  -0.067439  0  3.928898  0
C  C50  1  0.07684558  0.55440167  0.40793590  1  -0.001673  0  -0.068021  -0.097055  0  3.919083  0
C  C51  1  0.90446084  0.47061878  0.55846732  1  -0.004887  0  -0.068335  -0.076869  0  3.93123  0
C  C52  1  0.39757909  0.01402113  0.09581036  1  0.027609  0  -0.00113  -0.039131  0  3.898033  0
C  C53  1  0.58894467  0.00100473  0.90616809  1  0.009664  0  -0.007083  -0.027741  0  3.959055  0
C  C54  1  0.44369288  0.10041713  0.03567654  1  -0.218438  0  -0.001343  -0.082336  0  3.848523  0
C  C55  1  0.54218658  0.91746428  0.96261903  1  0.013813  0  -0.062136  -0.064222  0  3.921196  0
C  C56  1  0.53880989  0.09218561  0.94211537  1  -0.040678  0  -0.068043  -0.096111  0  3.921211  0
C  C57  1  0.44747301  0.92493717  0.05621432  1  0.023339  0  -0.068406  -0.073398  0  3.90555  0
C  C58  1  0.97716589  0.99588894  0.92013885  1  -0.019347  0  -0.003429  -0.043428  0  3.902581  0
C  C59  1  0.98705739  0.98841556  0.10876285  1  -0.070315  0  -0.00541  -0.02432  0  3.955303  0
C  C60  1  0.90064668  0.08009259  0.96931207  1  -0.191896  0  -0.00532  -0.09974  0  3.900252  0
C  C61  1  0.06052756  0.90305158  0.06348061  1  0.004419  0  -0.059457  -0.061561  0  3.905008  0
C  C62  1  0.90633191  0.07463098  0.06302275  1  0.053344  0  -0.070057  -0.10553  0  3.959304  0
C  C63  1  0.05424024  0.90713665  0.97070829  1  0.023878  0  -0.065118  -0.062823  0  3.91018  0
C  C64  1  0.40650478  0.59812942  0.49091088  1  -0.017575  0  -0.003855  -0.04651  0  3.898623  0
C  C65  1  0.59670937  0.40883478  0.50317382  1  -0.040411  0  -0.005262  -0.023748  0  3.960156  0
C  C66  1  0.46278132  0.54415109  0.41040418  1  -0.191309  0  -0.006453  -0.098406  0  3.906648  0
C  C67  1  0.54239055  0.46069460  0.58322302  1  0.005906  0  -0.061229  -0.065029  0  3.90898  0
C  C68  1  0.55644259  0.45117091  0.41766544  1  0.034192  0  -0.070834  -0.100995  0  3.95268  0
C  C69  1  0.44851787  0.55430846  0.57626825  1  0.022655  0  -0.064317  -0.068137  0  3.89333  0
C  C70  1  0.98637065  0.59888516  0.90980847  1  0.05597  0  -0.015439  -0.173817  0  3.954338  0
C  C71  1  0.98904852  0.50140869  0.90851147  1  0.057851  0  0.003074  0.075086  0  3.95586  0
C  C72  1  0.98289626  0.59873536  0.00477557  1  0.485832  0  0.102578  0.169573  0  4.073164  0
C  C73  1  0.99243159  0.49680689  0.81306436  1  -0.041636  0  -0.09476  -0.134521  0  3.976557  0
C  C74  1  0.99803872  0.40120672  0.81254255  1  -0.035978  0  -0.089314  -0.067426  0  4.018237  0
C  C75  1  0.98577234  0.40815424  0.10314812  1  0.087227  0  -0.013234  -0.168229  0  3.934823  0
C  C76  1  0.98083088  0.50457501  0.10142067  1  0.532245  0  0.103647  0.172701  0  4.069835  0
C  C77  1  0.99032500  0.40436030  0.00589128  1  -0.004423  0  0.004967  0.078927  0  3.947527  0
C  C78  1  0.99700483  0.30717876  0.00175324  1  -0.030358  0  -0.092212  -0.12788  0  3.959883  0
C  C79  1  0.00112166  0.30561398  0.90733071  1  -0.022233  0  -0.089176  -0.06273  0  4.016737  0
C  C80  1  0.41075913  0.98155964  0.50368350  1  -0.053734  0  -0.004253  -0.044811  0  3.89397  0
C  C81  1  0.60274056  0.99006800  0.49007627  1  0.066357  0  -0.00401  -0.021306  0  3.95003  0
C  C82  1  0.45777946  0.90824388  0.58892284  1  -0.156983  0  -0.007031  -0.100534  0  3.903987  0
C  C83  1  0.56082184  0.05884441  0.40291965  1  -0.025493  0  -0.057397  -0.05808  0  3.890821  0
C  C84  1  0.55208054  0.91386713  0.58105488  1  -0.050463  0  -0.072222  -0.103674  0  3.950682  0
C  C85  1  0.46646392  0.05345705  0.41018216  1  0.009245  0  -0.064776  -0.065037  0  3.884586  0
S  S86  1  0.20648631  0.40342670  0.30285983  1  3.111161  0  0.556044  1.172777  0  5.937131  0
S  S87  1  0.40199444  0.22270646  0.06714445  1  3.103015  0  0.542992  1.174449  0  5.960531  0
S  S88  1  0.78888259  0.19974181  0.92726857  1  3.092734  0  0.54422  1.149986  0  5.987665  0
S  S89  1  0.42991147  0.58019693  0.29201957  1  3.137332  0  0.539648  1.151216  0  6.020034  0
S  S90  1  0.41354313  0.79884106  0.71154020  1  3.094151  0  0.538163  1.154089  0  6.013675  0
O  O91  1  0.91686197  0.73893522  0.57133643  1  -1.182038  0  -0.348782  -0.615061  0  2.287038  0
O  O92  1  0.25850061  0.07943098  0.24707467  1  -1.173483  0  -0.363925  -0.619877  0  2.373248  0
O  O93  1  0.07338755  0.25851732  0.42919060  1  -1.189379  0  -0.361505  -0.628221  0  2.430015  0
O  O94  1  0.73063154  0.91868597  0.76775455  1  -1.172816  0  -0.352757  -0.614298  0  2.264869  0
O  O95  1  0.06588314  0.73774280  0.76966174  1  -1.156023  0  -0.353099  -0.612781  0  2.248007  0
O  O96  1  0.73493987  0.07601309  0.41803056  1  -1.177273  0  -0.349153  -0.610301  0  2.260004  0
O  O97  1  0.91007195  0.26811921  0.24521223  1  -1.173193  0  -0.353552  -0.609346  0  2.278402  0
O  O98  1  0.25653194  0.91983844  0.58556179  1  -1.202376  0  -0.347707  -0.634073  0  2.361969  0
O  O99  1  0.25945865  0.73645142  0.42063043  1  -1.190421  0  -0.351912  -0.635731  0  2.38553  0
O  O100  1  0.91539339  0.07796867  0.76769713  1  -1.19669  0  -0.351807  -0.632051  0  2.389057  0
O  O101  1  0.73420401  0.26666818  0.58316006  1  -1.17394  0  -0.357126  -0.616174  0  2.26444  0
O  O102  1  0.07395840  0.91993077  0.23813003  1  -1.178434  0  -0.352657  -0.60989  0  2.276372  0
O  O103  1  0.06194308  0.91964311  0.77543089  1  -1.177607  0  -0.340514  -0.609212  0  2.281401  0
O  O104  1  0.73440413  0.26513499  0.43029348  1  -1.173909  0  -0.349063  -0.604943  0  2.295368  0
O  O105  1  0.91957137  0.07226021  0.24133298  1  -1.185748  0  -0.349491  -0.61184  0  2.306045  0
O  O106  1  0.26330510  0.73841849  0.57017254  1  -1.16854  0  -0.332349  -0.583794  0  2.271428  0
O  O107  1  0.91277124  0.73988718  0.76872607  1  -1.163467  0  -0.344251  -0.603413  0  2.274745  0
O  O108  1  0.26318380  0.07249449  0.43279688  1  -1.180375  0  -0.322971  -0.596474  0  2.280465  0
O  O109  1  0.05998396  0.27135917  0.24657557  1  -1.165246  0  -0.335563  -0.59231  0  2.298705  0
O  O110  1  0.73751271  0.92054956  0.56962886  1  -1.178639  0  -0.352742  -0.613742  0  2.288397  0
O  O111  1  0.73513171  0.06956996  0.76826457  1  -1.166749  0  -0.355629  -0.602868  0  2.311989  0
O  O112  1  0.07187447  0.74014018  0.41770414  1  -1.187697  0  -0.349201  -0.610348  0  2.296847  0
O  O113  1  0.26161785  0.93005525  0.23766137  1  -1.162578  0  -0.34587  -0.604898  0  2.276432  0
O  O114  1  0.91727564  0.26872465  0.57953248  1  -1.197254  0  -0.336525  -0.61171  0  2.269631  0
O  O115  1  0.79240574  0.06619972  0.56985441  1  -1.250061  0  -0.695009  -1.073509  0  2.367636  0
O  O116  1  0.05998340  0.06425440  0.57264747  1  -1.234633  0  -0.703219  -1.077671  0  2.399177  0
O  O117  1  0.06206720  0.07006650  0.30011767  1  -1.2431  0  -0.695539  -1.074165  0  2.375477  0
O  O118  1  0.06183629  0.79779746  0.56816712  1  -1.231714  0  -0.693391  -1.073445  0  2.367114  0
O  O119  1  0.14443472  0.94965650  0.45334867  1  -1.196225  0  -0.792737  -1.145542  0  2.127509  0
O  O120  1  0.94714809  0.95111148  0.45103464  1  -1.202392  0  -0.790559  -1.150764  0  2.132485  0
O  O121  1  0.94400174  0.14844390  0.45527527  1  -1.197519  0  -0.792843  -1.147317  0  2.136061  0
O  O122  1  0.94375585  0.94881094  0.65189455  1  -1.195771  0  -0.78887  -1.142958  0  2.125993  0
O  O123  1  0.26965968  0.28934489  0.37720798  1  -1.219476  0  -0.358193  -0.52752  0  2.224442  0
O  O124  1  0.27049460  0.47378010  0.25176470  1  -1.262197  0  -0.285175  -0.476443  0  2.163924  0
O  O125  1  0.18001877  0.38431660  0.23385249  1  -1.299941  0  -0.303181  -0.557858  0  2.312848  0
O  O126  1  0.27550910  0.27933671  0.07645691  1  -1.233511  0  -0.370307  -0.555045  0  2.226185  0
O  O127  1  0.46153517  0.29266995  0.96999849  1  -1.281359  0  -0.306925  -0.513303  0  2.132018  0
O  O128  1  0.41052739  0.19003562  0.17303693  1  -1.296403  0  -0.316991  -0.549801  0  2.185117  0
O  O129  1  0.85205670  0.26987457  0.80593035  1  -1.226426  0  -0.363339  -0.537  0  2.226931  0
O  O130  1  0.74431451  0.26617941  0.99467652  1  -1.273898  0  -0.295939  -0.488999  0  2.118801  0
O  O131  1  0.71929262  0.16417041  0.92088720  1  -1.274619  0  -0.29429  -0.510709  0  2.226857  0
O  O132  1  0.30514570  0.58347792  0.34815649  1  -1.227014  0  -0.358079  -0.520045  0  2.26549  0
O  O133  1  0.49268286  0.48845676  0.25127370  1  -1.280992  0  -0.296003  -0.48672  0  2.113217  0
O  O134  1  0.43667506  0.68878389  0.21879956  1  -1.306375  0  -0.310461  -0.537774  0  2.193193  0
O  O135  1  0.28873604  0.86153962  0.77431636  1  -1.239322  0  -0.36421  -0.531902  0  2.227077  0
O  O136  1  0.47218979  0.76212903  0.78279990  1  -1.279468  0  -0.305169  -0.502171  0  2.107543  0
O  O137  1  0.41720177  0.72120052  0.67726992  1  -1.285326  0  -0.306141  -0.530587  0  2.184317  0
F  F138  1  0.96918920  0.51390444  0.19348318  1  -0.614792  0  -0.089516  -0.10628  0  1.377619  0
F  F139  1  0.97704844  0.69044692  0.01003880  1  -0.615585  0  -0.089717  -0.111087  0  1.358836  0
