# generated using pymatgen
data_CdH12(CN)10
_symmetry_space_group_name_H-M   'P 1'
_cell_length_a   9.21055234
_cell_length_b   10.53206327
_cell_length_c   13.29333288
_cell_angle_alpha   90.00025479
_cell_angle_beta   89.99987717
_cell_angle_gamma   90.00060536
_symmetry_Int_Tables_number   1
_chemical_formula_structural   CdH12(CN)10
_chemical_formula_sum   'Cd4 H48 C40 N40'
_cell_volume   1289.53464430
_cell_formula_units_Z   4
loop_
 _symmetry_equiv_pos_site_id
 _symmetry_equiv_pos_as_xyz
  1  'x, y, z'
loop_
 _atom_site_type_symbol
 _atom_site_label
 _atom_site_symmetry_multiplicity
 _atom_site_fract_x
 _atom_site_fract_y
 _atom_site_fract_z
 _atom_site_occupancy
 _atom_site_pbe_bader_spin_density
 _atom_site_pbe_cm5_charge
 _atom_site_pbe_ddec_charge
 _atom_site_pbe_ddec_spin_density
 _atom_site_pbe_ddec_sum_bond_order
 _atom_site_pbe_magmom
Cd  Cd0  1  0.24999994  0.25262624  0.48304392  1  0  0.841067  0.925691  0  2.303705  0
Cd  Cd1  1  0.25000997  0.24739596  0.98304719  1  0  0.841023  0.925692  0  2.303657  0
Cd  Cd2  1  0.75000095  0.75259667  0.01696421  1  0  0.841091  0.925837  0  2.303475  0
Cd  Cd3  1  0.74999905  0.74738063  0.51695394  1  0  0.84105  0.925718  0  2.303641  0
H  H4  1  0.15221506  0.26887497  0.73522157  1  0  0.118377  0.085647  0  0.985844  0
H  H5  1  0.34778369  0.23112879  0.23522786  1  0  0.118413  0.085772  0  0.985798  0
H  H6  1  0.84777577  0.76887040  0.76477513  1  0  0.118431  0.085772  0  0.985844  0
H  H7  1  0.65221910  0.73111679  0.26478246  1  0  0.118385  0.08566  0  0.985829  0
H  H8  1  0.84778175  0.73112336  0.26478382  1  0  0.118388  0.085643  0  0.985855  0
H  H9  1  0.65221095  0.76887428  0.76477302  1  0  0.118398  0.085808  0  0.985825  0
H  H10  1  0.15221887  0.23113077  0.23522650  1  0  0.118422  0.085773  0  0.985816  0
H  H11  1  0.34777988  0.26888059  0.73522368  1  0  0.118386  0.085663  0  0.98584  0
H  H12  1  0.38285094  0.99122310  0.57422396  1  0  0.115786  0.086671  0  0.999902  0
H  H13  1  0.11714696  0.50878137  0.07423128  1  0  0.11584  0.086732  0  0.999923  0
H  H14  1  0.61713723  0.49121861  0.92576677  1  0  0.115853  0.086762  0  0.999823  0
H  H15  1  0.88284546  0.00877926  0.42577747  1  0  0.115771  0.086662  0  0.99992  0
H  H16  1  0.61714587  0.00878282  0.42577466  1  0  0.115805  0.086685  0  0.999901  0
H  H17  1  0.88284877  0.49122550  0.92576809  1  0  0.115843  0.086772  0  0.999826  0
H  H18  1  0.38286066  0.50877876  0.07422808  1  0  0.115845  0.086744  0  0.999898  0
H  H19  1  0.11715352  0.99122192  0.57422190  1  0  0.115772  0.086633  0  0.999963  0
H  H20  1  0.47808066  0.10935568  0.64440709  1  0  0.114798  0.080855  0  0.995903  0
H  H21  1  0.02192272  0.39064854  0.14441369  1  0  0.114809  0.080889  0  0.99591  0
H  H22  1  0.52191361  0.60934870  0.85558601  1  0  0.114786  0.080827  0  0.995943  0
H  H23  1  0.97806578  0.89064658  0.35558969  1  0  0.114805  0.080846  0  0.995936  0
H  H24  1  0.52191615  0.89064645  0.35559077  1  0  0.114794  0.080825  0  0.995892  0
H  H25  1  0.97807409  0.60936403  0.85558493  1  0  0.11483  0.08092  0  0.995857  0
H  H26  1  0.47808429  0.39064298  0.14440959  1  0  0.114776  0.080832  0  0.995928  0
H  H27  1  0.02192778  0.10935649  0.64440667  1  0  0.114813  0.080869  0  0.995889  0
H  H28  1  0.02216524  0.10581256  0.82252152  1  0  0.112714  0.077538  0  1.014439  0
H  H29  1  0.47784300  0.39418978  0.32252746  1  0  0.112745  0.07758  0  1.014469  0
H  H30  1  0.97784092  0.60581153  0.67747233  1  0  0.112716  0.07752  0  1.01448  0
H  H31  1  0.52215857  0.89417708  0.17748345  1  0  0.112703  0.077486  0  1.014472  0
H  H32  1  0.97783265  0.89418577  0.17747860  1  0  0.112718  0.077577  0  1.014433  0
H  H33  1  0.52216032  0.60580570  0.67746965  1  0  0.112714  0.077545  0  1.014448  0
H  H34  1  0.02216023  0.39419249  0.32252855  1  0  0.112723  0.077554  0  1.014469  0
H  H35  1  0.47784041  0.10581839  0.82252194  1  0  0.112721  0.077516  0  1.014499  0
H  H36  1  0.11833316  0.98532840  0.88941673  1  0  0.11665  0.088414  0  0.994322  0
H  H37  1  0.38167026  0.51467969  0.38941692  1  0  0.116641  0.08845  0  0.994251  0
H  H38  1  0.88166363  0.48532266  0.61058000  1  0  0.116625  0.088412  0  0.994233  0
H  H39  1  0.61833308  0.01465926  0.11058057  1  0  0.11664  0.088366  0  0.994419  0
H  H40  1  0.88165931  0.01466993  0.11057963  1  0  0.116647  0.088456  0  0.994278  0
H  H41  1  0.61833415  0.48532338  0.61057493  1  0  0.116629  0.088385  0  0.994271  0
H  H42  1  0.11833426  0.51467662  0.38942012  1  0  0.116635  0.088419  0  0.994269  0
H  H43  1  0.38166156  0.98533242  0.88941729  1  0  0.116657  0.088419  0  0.994325  0
H  H44  1  0.24999650  0.82437261  0.79551137  1  0  0.110265  0.072827  0  1.041651  0
H  H45  1  0.25001047  0.67563876  0.29551159  1  0  0.110251  0.07281  0  1.041684  0
H  H46  1  0.75000697  0.32436811  0.70449154  1  0  0.110262  0.072813  0  1.041642  0
H  H47  1  0.75000031  0.17563236  0.20448122  1  0  0.110245  0.07277  0  1.04173  0
H  H48  1  0.25000000  0.82914719  0.66139979  1  0  0.109464  0.069684  0  1.013445  0
H  H49  1  0.25000740  0.67085206  0.16139924  1  0  0.109402  0.069623  0  1.013286  0
H  H50  1  0.75000027  0.32915196  0.83860164  1  0  0.109449  0.069657  0  1.013289  0
H  H51  1  0.74999790  0.17085778  0.33859130  1  0  0.109409  0.069628  0  1.013338  0
C  C52  1  0.87731301  0.25589437  0.50497326  1  0  0.315018  0.455388  0  4.278454  0
C  C53  1  0.62268621  0.24409457  0.00497542  1  0  0.315173  0.455613  0  4.278375  0
C  C54  1  0.12268852  0.75589977  0.99502339  1  0  0.31518  0.45569  0  4.277721  0
C  C55  1  0.37731348  0.74410129  0.49502065  1  0  0.315211  0.455844  0  4.278644  0
C  C56  1  0.12267946  0.74410585  0.49502234  1  0  0.315039  0.45546  0  4.278411  0
C  C57  1  0.37731928  0.75589901  0.99502019  1  0  0.315099  0.455667  0  4.278818  0
C  C58  1  0.87732132  0.24409855  0.00497222  1  0  0.314976  0.455446  0  4.277966  0
C  C59  1  0.62267898  0.25589133  0.50497495  1  0  0.315018  0.455433  0  4.278701  0
C  C60  1  0.25000144  0.20892229  0.73427730  1  0  0.016487  -0.000844  0  3.876527  0
C  C61  1  0.25000491  0.29108337  0.23428170  1  0  0.016326  -0.001327  0  3.876763  0
C  C62  1  0.74998973  0.70891780  0.76571842  1  0  0.016314  -0.001387  0  3.876959  0
C  C63  1  0.74999863  0.79107794  0.26572282  1  0  0.016456  -0.000929  0  3.876539  0
C  C64  1  0.38166044  0.04823806  0.64325760  1  0  0.012833  0.003758  0  3.888373  0
C  C65  1  0.11834512  0.45176710  0.14326278  1  0  0.012816  0.003598  0  3.88855  0
C  C66  1  0.61833850  0.54823575  0.85673453  1  0  0.012858  0.003635  0  3.888571  0
C  C67  1  0.88165392  0.95176903  0.35673932  1  0  0.012921  0.003779  0  3.888414  0
C  C68  1  0.61833855  0.95176691  0.35674026  1  0  0.012884  0.003797  0  3.888388  0
C  C69  1  0.88165495  0.54823977  0.85673584  1  0  0.012817  0.00352  0  3.888453  0
C  C70  1  0.38166266  0.45176353  0.14326334  1  0  0.012856  0.003625  0  3.88854  0
C  C71  1  0.11834289  0.04823499  0.64325855  1  0  0.012873  0.003779  0  3.888379  0
C  C72  1  0.11866179  0.04479171  0.82169912  1  0  0.011951  0.001839  0  3.884322  0
C  C73  1  0.38134537  0.45521538  0.32170091  1  0  0.011918  0.001661  0  3.884438  0
C  C74  1  0.88134036  0.54478602  0.67829827  1  0  0.011976  0.001878  0  3.884406  0
C  C75  1  0.61865479  0.95520165  0.17830119  1  0  0.012003  0.002024  0  3.884257  0
C  C76  1  0.88133719  0.95520662  0.17829874  1  0  0.011922  0.001763  0  3.884361  0
C  C77  1  0.61865687  0.54478390  0.67829470  1  0  0.011951  0.001857  0  3.884169  0
C  C78  1  0.11865863  0.45521420  0.32170411  1  0  0.011943  0.001778  0  3.884247  0
C  C79  1  0.38134093  0.04479478  0.82169742  1  0  0.011922  0.001857  0  3.884453  0
C  C80  1  0.25000134  0.88711608  0.72989890  1  0  0.010912  0.009147  0  3.91537  0
C  C81  1  0.25001127  0.61288640  0.22990565  1  0  0.011044  0.009152  0  3.915295  0
C  C82  1  0.74999748  0.38711572  0.77009898  1  0  0.010905  0.009107  0  3.915244  0
C  C83  1  0.74999222  0.11288985  0.27009445  1  0  0.010999  0.009226  0  3.915218  0
C  C84  1  0.25000627  0.00936388  0.32260516  1  0  0.310883  0.455121  0  4.279177  0
C  C85  1  0.25000306  0.49067169  0.82261383  1  0  0.310779  0.454958  0  4.279477  0
C  C86  1  0.75000135  0.50933708  0.17739006  1  0  0.310858  0.454848  0  4.279232  0
C  C87  1  0.75000140  0.99062970  0.67740624  1  0  0.311003  0.455444  0  4.27909  0
C  C88  1  0.24999459  0.00838355  0.15031880  1  0  0.310697  0.456763  0  4.263061  0
C  C89  1  0.24999791  0.49163305  0.65032671  1  0  0.310554  0.456326  0  4.263617  0
C  C90  1  0.75000216  0.50836338  0.34968018  1  0  0.310691  0.456561  0  4.263117  0
C  C91  1  0.74999896  0.99162142  0.84969562  1  0  0.310879  0.456908  0  4.263362  0
N  N92  1  0.99988441  0.25554449  0.47948521  1  0  -0.384784  -0.531928  0  3.087312  0
N  N93  1  0.50013285  0.24447171  0.97947755  1  0  -0.384837  -0.532008  0  3.087526  0
N  N94  1  0.00011651  0.75553388  0.02051617  1  0  -0.384839  -0.532178  0  3.087166  0
N  N95  1  0.49986853  0.74445037  0.52051605  1  0  -0.384876  -0.532267  0  3.087568  0
N  N96  1  0.00010914  0.74445099  0.52051040  1  0  -0.384738  -0.531936  0  3.087538  0
N  N97  1  0.49987590  0.75551712  0.02052032  1  0  -0.384733  -0.532099  0  3.087582  0
N  N98  1  0.99989333  0.24447869  0.97948094  1  0  -0.384642  -0.531982  0  3.087499  0
N  N99  1  0.50011417  0.25555270  0.47949009  1  0  -0.384759  -0.531916  0  3.087573  0
N  N100  1  0.74999267  0.25542676  0.54418474  1  0  -0.301889  -0.377991  0  3.652623  0
N  N101  1  0.74999882  0.24452536  0.04418972  1  0  -0.302046  -0.378071  0  3.651735  0
N  N102  1  0.25001210  0.75547677  0.95581341  1  0  -0.302101  -0.378223  0  3.652482  0
N  N103  1  0.25000414  0.74456586  0.45580786  1  0  -0.302012  -0.378143  0  3.652446  0
N  N104  1  0.25000002  0.13187730  0.64098228  1  0  -0.341875  -0.203189  0  3.39524  0
N  N105  1  0.25000228  0.36812500  0.14098695  1  0  -0.341826  -0.202959  0  3.395256  0
N  N106  1  0.74999453  0.63187427  0.85901242  1  0  -0.341836  -0.202949  0  3.395488  0
N  N107  1  0.74999788  0.86812767  0.35901484  1  0  -0.341871  -0.203042  0  3.395254  0
N  N108  1  0.25000405  0.12819002  0.82545745  1  0  -0.344342  -0.196287  0  3.398808  0
N  N109  1  0.24999876  0.37181519  0.32546139  1  0  -0.344203  -0.196015  0  3.398604  0
N  N110  1  0.74999697  0.62818599  0.67453648  1  0  -0.344217  -0.196132  0  3.398836  0
N  N111  1  0.75000036  0.87180831  0.17454342  1  0  -0.344324  -0.196285  0  3.398814  0
N  N112  1  0.38264642  0.96551157  0.73135832  1  0  -0.349287  -0.203999  0  3.398575  0
N  N113  1  0.11736184  0.53449281  0.23136273  1  0  -0.349404  -0.203908  0  3.398432  0
N  N114  1  0.61735338  0.46550907  0.76863458  1  0  -0.349375  -0.203922  0  3.398511  0
N  N115  1  0.88264067  0.03449459  0.26863484  1  0  -0.349371  -0.204041  0  3.398369  0
N  N116  1  0.61735582  0.03448866  0.26863503  1  0  -0.349352  -0.204049  0  3.398634  0
N  N117  1  0.88264149  0.46551121  0.76863213  1  0  -0.349366  -0.203901  0  3.39855  0
N  N118  1  0.38265321  0.53449020  0.23136555  1  0  -0.349381  -0.20382  0  3.398598  0
N  N119  1  0.11735831  0.96550848  0.73136152  1  0  -0.34932  -0.203938  0  3.398504  0
N  N120  1  0.25000641  0.05183631  0.40480735  1  0  -0.390834  -0.552787  0  3.051728  0
N  N121  1  0.24999941  0.44819116  0.90481435  1  0  -0.390745  -0.552702  0  3.051889  0
N  N122  1  0.74999849  0.55179862  0.09518577  1  0  -0.390851  -0.55267  0  3.051827  0
N  N123  1  0.75000235  0.94815631  0.59520857  1  0  -0.390823  -0.552805  0  3.051827  0
N  N124  1  0.24999275  0.95182380  0.23664423  1  0  -0.308623  -0.393646  0  3.533283  0
N  N125  1  0.25000138  0.54819485  0.73665054  1  0  -0.308432  -0.393237  0  3.533455  0
N  N126  1  0.75000954  0.45180253  0.26335410  1  0  -0.308555  -0.393322  0  3.533149  0
N  N127  1  0.75000189  0.04816787  0.76336717  1  0  -0.30882  -0.394078  0  3.533761  0
N  N128  1  0.25000041  0.04970476  0.06766089  1  0  -0.390375  -0.553023  0  3.029479  0
N  N129  1  0.24999452  0.45032183  0.56766791  1  0  -0.390374  -0.552912  0  3.02963  0
N  N130  1  0.75000012  0.54967460  0.43233673  1  0  -0.390382  -0.552987  0  3.029313  0
N  N131  1  0.74999423  0.95029736  0.93235502  1  0  -0.390505  -0.553062  0  3.029247  0
