# generated using pymatgen
data_Zn2H28C47N2O13
_symmetry_space_group_name_H-M   'P 1'
_cell_length_a   12.51720947
_cell_length_b   13.41408695
_cell_length_c   16.00531600
_cell_angle_alpha   90.13042852
_cell_angle_beta   73.09283028
_cell_angle_gamma   78.10091859
_symmetry_Int_Tables_number   1
_chemical_formula_structural   Zn2H28C47N2O13
_chemical_formula_sum   'Zn2 H28 C47 N2 O13'
_cell_volume   2510.43014014
_cell_formula_units_Z   1
loop_
 _symmetry_equiv_pos_site_id
 _symmetry_equiv_pos_as_xyz
  1  'x, y, z'
loop_
 _atom_site_type_symbol
 _atom_site_label
 _atom_site_symmetry_multiplicity
 _atom_site_fract_x
 _atom_site_fract_y
 _atom_site_fract_z
 _atom_site_occupancy
 _atom_site_pbe_bader_charge
 _atom_site_pbe_bader_spin_density
 _atom_site_pbe_cm5_charge
 _atom_site_pbe_ddec_charge
 _atom_site_pbe_ddec_spin_density
 _atom_site_pbe_ddec_sum_bond_order
 _atom_site_pbe_magmom
Zn  Zn0  1  0.61483164  0.50942335  0.48149146  1  1.291021  0  0.675676  0.827319  0  2.413489  0
Zn  Zn1  1  0.38118109  0.49098198  0.52625978  1  1.290557  0  0.675208  0.831947  0  2.386663  0
H  H2  1  0.57307622  0.34771806  0.06468810  1  0.047387  0  0.099174  0.101321  0  0.971149  0
H  H3  1  0.72577328  0.66362438  0.38033356  1  0.131474  0  0.127536  0.103991  0  0.977861  0
H  H4  1  0.10653503  0.69190944  0.37116966  1  0.12588  0  0.122743  0.127065  0  0.966504  0
H  H5  1  0.91212442  0.72061730  0.35253534  1  0.136489  0  0.123855  0.133679  0  0.9677  0
H  H6  1  0.81966156  0.43726945  0.53533015  1  0.113192  0  0.127551  0.100356  0  0.990527  0
H  H7  1  0.27508052  0.33694345  0.61855947  1  0.158586  0  0.129942  0.104609  0  0.986531  0
H  H8  1  0.94139333  0.35650367  0.58820861  1  0.095163  0  0.121531  0.124621  0  0.984027  0
H  H9  1  0.34862699  0.42600822  0.97155103  1  0.040201  0  0.103151  0.11182  0  0.964911  0
H  H10  1  0.36981459  0.42268260  0.11152660  1  0.073992  0  0.11107  0.100092  0  0.948728  0
H  H11  1  0.60732400  0.60579863  0.89820635  1  0.074239  0  0.100815  0.110731  0  0.991942  0
H  H12  1  0.46017386  0.66570997  0.93144920  1  0.038195  0  0.097724  0.102605  0  0.970984  0
H  H13  1  0.66730333  0.41338088  0.88918949  1  0.056601  0  0.101411  0.105822  0  0.96812  0
H  H14  1  0.16507352  0.07288811  0.40706120  1  0.016136  0  0.095903  0.02592  0  0.984566  0
H  H15  1  0.68346594  0.89630871  0.49114583  1  0.088493  0  0.108031  0.10845  0  1.021812  0
H  H16  1  0.90487333  0.03788061  0.50904735  1  0.036362  0  0.097509  0.031675  0  0.967399  0
H  H17  1  0.56376543  0.33786016  0.92098334  1  0.046985  0  0.097668  0.099029  0  0.972133  0
H  H18  1  0.16421520  0.21442425  0.68710226  1  0.059125  0  0.10773  0.042877  0  0.945415  0
H  H19  1  0.24994217  0.59899392  0.43720392  1  0.159736  0  0.116668  0.138553  0  1.037053  0
H  H20  1  0.31117143  0.56063318  0.97850286  1  0.038774  0  0.097861  0.097501  0  0.982795  0
H  H21  1  0.28267146  0.65646671  0.11510347  1  0.041305  0  0.097845  0.021569  0  0.959836  0
H  H22  1  0.64367331  0.63642593  0.11369818  1  0.06763  0  0.104348  0.038541  0  0.963167  0
H  H23  1  0.67573973  0.42357984  0.03258894  1  0.03329  0  0.100629  0.10519  0  0.971612  0
H  H24  1  0.46294552  0.67413634  0.07631754  1  0.038319  0  0.107421  0.0875  0  0.966099  0
H  H25  1  0.24802126  0.80236920  0.45586794  1  0.118191  0  0.113606  0.122744  0  0.998625  0
H  H26  1  0.28488483  0.15239700  0.40257015  1  0.064222  0  0.100893  0.099224  0  1.022182  0
H  H27  1  0.55874524  0.82434197  0.50800575  1  0.111546  0  0.110598  0.115713  0  1.018545  0
H  H28  1  0.76908423  0.18937245  0.49434743  1  0.089848  0  0.107916  0.11054  0  1.000262  0
H  H29  1  0.41526461  0.25432351  0.42275151  1  0.116631  0  0.107792  0.122715  0  1.00604  0
C  C30  1  0.57422799  0.30475413  0.48277760  1  1.594893  0  0.217155  0.601952  0  4.16527  0
C  C31  1  0.40621385  0.80369539  0.48509304  1  0.034794  0  -0.015399  -0.03098  0  3.99313  0
C  C32  1  0.71019369  0.14280623  0.48654901  1  -0.079456  0  -0.071644  -0.117376  0  3.951804  0
C  C33  1  0.48622057  0.49468001  0.66725345  1  1.674801  0  0.219303  0.680696  0  4.224327  0
C  C34  1  0.73764227  0.03606770  0.49091013  1  -0.009131  0  -0.022728  0.010068  0  4.047262  0
C  C35  1  0.65935240  0.97821860  0.48528488  1  -0.080224  0  -0.068269  -0.122911  0  3.906503  0
C  C36  1  0.55463136  0.02351925  0.47150925  1  0.051231  0  0.000451  0.032935  0  3.954017  0
C  C37  1  0.52986731  0.13090302  0.46174415  1  0.006373  0  0.007551  0.06984  0  3.942579  0
C  C38  1  0.47103236  0.96418863  0.46705210  1  -0.02075  0  -0.000637  0.033094  0  3.955974  0
C  C39  1  0.37131321  0.01033717  0.44315281  1  0.011537  0  0.003855  0.05499  0  3.967807  0
C  C40  1  0.35676082  0.11599308  0.42509478  1  -0.038674  0  -0.092857  -0.141966  0  4.021891  0
C  C41  1  0.59039099  0.41657317  0.03110298  1  -0.027517  0  -0.149486  -0.184904  0  3.841738  0
C  C42  1  0.43056112  0.17387708  0.43588882  1  -0.088792  0  -0.083275  -0.10865  0  3.973012  0
C  C43  1  0.48541968  0.86167608  0.48769792  1  -0.062726  0  -0.066127  -0.108312  0  3.917704  0
C  C44  1  0.31026617  0.84719875  0.45907052  1  -0.053184  0  -0.061888  -0.085062  0  3.907021  0
C  C45  1  0.42931896  0.69435129  0.50668867  1  1.590652  0  0.215952  0.590976  0  4.181082  0
C  C46  1  0.60704895  0.19034150  0.47432667  1  0.019382  0  -0.008252  -0.060141  0  3.917633  0
C  C47  1  0.89534779  0.65653427  0.39225799  1  0.014916  0  -0.062417  -0.148372  0  3.930593  0
C  C48  1  0.20634854  0.37273976  0.59203971  1  0.451496  0  0.076506  0.08782  0  3.896436  0
C  C49  1  0.10529784  0.33603365  0.60847783  1  0.056676  0  -0.018242  -0.040617  0  4.038826  0
C  C50  1  0.02008870  0.38483788  0.57359036  1  -0.045577  0  -0.04068  -0.075363  0  3.873568  0
C  C51  1  0.03727371  0.46718205  0.52133428  1  0.017469  0  0.011028  0.004708  0  3.963461  0
C  C52  1  0.50140363  0.51007273  0.08433014  1  0.148426  0  0.012365  0.13837  0  3.861714  0
C  C53  1  0.14384062  0.49805540  0.50548074  1  0.459854  0  0.135613  0.223693  0  3.925407  0
C  C54  1  0.95351247  0.52202486  0.48211467  1  -0.027003  0  0.005918  -0.010303  0  3.960073  0
C  C55  1  0.97894444  0.60393997  0.42885395  1  -0.008825  0  0.02136  0.111969  0  3.982204  0
C  C56  1  0.08775418  0.63008040  0.41328856  1  -0.028412  0  -0.048547  -0.056571  0  3.889514  0
C  C57  1  0.51132996  0.50458008  0.33875897  1  1.653051  0  0.219221  0.670127  0  4.245313  0
C  C58  1  0.16732256  0.57875191  0.44971035  1  0.018803  0  -0.066445  -0.133079  0  3.898243  0
C  C59  1  0.84625181  0.49782507  0.49430862  1  0.557919  0  0.071522  0.069855  0  3.88719  0
C  C60  1  0.79302358  0.62635356  0.40744722  1  0.409356  0  0.052437  0.089682  0  3.930434  0
C  C61  1  0.58457668  0.41014556  0.93610493  1  -0.039574  0  -0.151355  -0.188091  0  3.841942  0
C  C62  1  0.37528167  0.49496502  0.98726660  1  -0.029746  0  -0.14757  -0.218489  0  3.833904  0
C  C63  1  0.52767663  0.60872180  0.03787657  1  -0.023139  0  -0.080852  -0.107298  0  3.817873  0
C  C64  1  0.38081597  0.49564021  0.08291704  1  -0.030006  0  -0.081265  -0.108874  0  3.813422  0
C  C65  1  0.51106775  0.50976630  0.24852112  1  0.115773  0  -0.050818  -0.188464  0  3.980035  0
C  C66  1  0.49256233  0.49996183  0.92260831  1  0.131039  0  0.001019  0.17978  0  3.911729  0
C  C67  1  0.18957711  0.98850826  0.40983646  1  0.945774  0  0.092265  0.267492  0  3.986576  0
C  C68  1  0.84832149  0.98539336  0.50328858  1  0.947602  0  0.098616  0.273901  0  3.973101  0
C  C69  1  0.09105243  0.24686881  0.66165180  1  0.947257  0  0.101679  0.268709  0  3.983229  0
C  C70  1  0.28451413  0.57752281  0.13854034  1  0.952456  0  0.107127  0.313859  0  3.932715  0
C  C71  1  0.64057902  0.62758891  0.04515008  1  0.950156  0  0.107263  0.303245  0  3.896932  0
C  C72  1  0.52337099  0.60152594  0.94300952  1  -0.027675  0  -0.152124  -0.216658  0  3.831471  0
C  C73  1  0.50680697  0.51256255  0.17368321  1  -0.429476  0  -0.036153  -0.073888  0  4.078838  0
C  C74  1  0.48780488  0.49584458  0.83314202  1  -0.522852  0  -0.029866  -0.048183  0  4.03646  0
C  C75  1  0.48404000  0.49442290  0.75814534  1  0.217249  0  -0.059561  -0.211074  0  3.992289  0
C  C76  1  0.29235961  0.94869340  0.43764725  1  -0.031702  0  -0.021774  -0.044775  0  3.983806  0
N  N77  1  0.76961676  0.54746306  0.45765542  1  -1.240879  0  -0.322606  -0.197692  0  3.553907  0
N  N78  1  0.22499056  0.45099826  0.54288673  1  -1.219808  0  -0.30932  -0.237742  0  3.46013  0
O  O79  1  0.65198945  0.35430870  0.45248453  1  -1.163322  0  -0.319189  -0.539988  0  2.276162  0
O  O80  1  0.87861509  0.89302714  0.50711175  1  -1.055677  0  -0.269613  -0.36226  0  2.111475  0
O  O81  1  0.00658129  0.20939012  0.67718536  1  -1.05763  0  -0.265317  -0.351275  0  2.077586  0
O  O82  1  0.21018295  0.56248223  0.20279347  1  -1.080902  0  -0.260627  -0.359455  0  2.121472  0
O  O83  1  0.72254948  0.63357385  0.98313960  1  -1.084294  0  -0.262201  -0.350384  0  2.104418  0
O  O84  1  0.46980716  0.34271691  0.52352490  1  -1.172917  0  -0.313394  -0.560617  0  2.385129  0
O  O85  1  0.58518626  0.48140915  0.61168218  1  -1.151407  0  -0.316587  -0.549014  0  2.269942  0
O  O86  1  0.39038541  0.50839551  0.65124169  1  -1.142389  0  -0.320294  -0.544067  0  2.237825  0
O  O87  1  0.52562677  0.65856902  0.51836048  1  -1.173186  0  -0.315707  -0.549242  0  2.341345  0
O  O88  1  0.35208118  0.64436082  0.50961292  1  -1.160275  0  -0.31073  -0.538849  0  2.347514  0
O  O89  1  0.58972496  0.53649055  0.35956879  1  -1.144166  0  -0.313962  -0.545957  0  2.251854  0
O  O90  1  0.43142976  0.46842761  0.38926310  1  -1.15125  0  -0.311975  -0.550327  0  2.279197  0
O  O91  1  0.13111409  0.93443072  0.39035156  1  -1.07596  0  -0.268258  -0.364212  0  2.119188  0
