# generated using pymatgen
data_HgH49C43Br2N5
_symmetry_space_group_name_H-M   'P 1'
_cell_length_a   8.87327368
_cell_length_b   14.65600071
_cell_length_c   19.71084965
_cell_angle_alpha   105.29918025
_cell_angle_beta   91.42655896
_cell_angle_gamma   107.31779165
_symmetry_Int_Tables_number   1
_chemical_formula_structural   HgH49C43Br2N5
_chemical_formula_sum   'Hg2 H98 C86 Br4 N10'
_cell_volume   2345.46825461
_cell_formula_units_Z   2
loop_
 _symmetry_equiv_pos_site_id
 _symmetry_equiv_pos_as_xyz
  1  'x, y, z'
loop_
 _atom_site_type_symbol
 _atom_site_label
 _atom_site_symmetry_multiplicity
 _atom_site_fract_x
 _atom_site_fract_y
 _atom_site_fract_z
 _atom_site_occupancy
 _atom_site_pbe_bader_charge
 _atom_site_pbe_bader_spin_density
 _atom_site_pbe_cm5_charge
 _atom_site_pbe_ddec_charge
 _atom_site_pbe_ddec_spin_density
 _atom_site_pbe_ddec_sum_bond_order
 _atom_site_pbe_magmom
Hg  Hg0  1  0.43941850  0.34350891  0.19641571  1  0.677855  0  0.449537  0.444337  0  2.701106  0
Hg  Hg1  1  0.56058121  0.65649972  0.80358940  1  0.677951  0  0.449574  0.444421  0  2.701417  0
H  H2  1  0.75807398  0.54234389  0.24043311  1  0.083031  0  0.107297  0.075748  0  1.008228  0
H  H3  1  0.24193478  0.45765531  0.75956659  1  0.082931  0  0.107295  0.07576  0  1.008251  0
H  H4  1  0.01638299  0.62066060  0.19801050  1  0.104187  0  0.108069  0.114151  0  1.017582  0
H  H5  1  0.98361449  0.37933855  0.80198652  1  0.104015  0  0.108089  0.114207  0  1.017672  0
H  H6  1  0.08889396  0.52798880  0.08437916  1  0.102714  0  0.10365  0.104732  0  1.014484  0
H  H7  1  0.91109291  0.47200942  0.91562007  1  0.102582  0  0.103662  0.10474  0  1.014494  0
H  H8  1  0.66007152  0.28625099  0.07312567  1  0.076046  0  0.109327  0.082234  0  1.022336  0
H  H9  1  0.33992508  0.71373691  0.92687304  1  0.076235  0  0.109284  0.082075  0  1.022582  0
H  H10  1  0.16219117  0.37916969  0.04288219  1  0.079807  0  0.090419  0.099241  0  1.058596  0
H  H11  1  0.83780587  0.62083092  0.95711563  1  0.07986  0  0.090429  0.099264  0  1.058625  0
H  H12  1  0.68517953  0.29353787  0.94414787  1  0.034998  0  0.095857  0.096281  0  1.058051  0
H  H13  1  0.31481468  0.70645449  0.05585073  1  0.035295  0  0.095836  0.096237  0  1.057964  0
H  H14  1  0.30229319  0.23568831  0.88531558  1  0.01302  0  0.090178  0.047916  0  1.02579  0
H  H15  1  0.69770276  0.76431002  0.11468328  1  0.013028  0  0.09019  0.047928  0  1.025744  0
H  H16  1  0.35742716  0.40388681  0.87314595  1  0.024367  0  0.078502  0.111215  0  1.037951  0
H  H17  1  0.64255417  0.59609971  0.12684315  1  0.024556  0  0.07851  0.111171  0  1.038004  0
H  H18  1  0.52100023  0.40054188  0.92473372  1  0.01794  0  0.080384  0.110104  0  1.028762  0
H  H19  1  0.47900039  0.59945672  0.07525814  1  0.017959  0  0.080379  0.110116  0  1.028861  0
H  H20  1  0.38113481  0.45572341  0.96635288  1  0.039037  0  0.084636  0.119302  0  1.020481  0
H  H21  1  0.61885303  0.54427437  0.03363612  1  0.038757  0  0.084658  0.119369  0  1.02049  0
H  H22  1  0.47695055  0.26339091  0.98953135  1  -0.005787  0  0.079202  0.103455  0  1.05734  0
H  H23  1  0.52305064  0.73660896  0.01046789  1  -0.005758  0  0.079179  0.103423  0  1.057336  0
H  H24  1  0.28189866  0.20199322  0.00489559  1  0.02698  0  0.084477  0.120434  0  1.004629  0
H  H25  1  0.71810399  0.79800968  0.99510278  1  0.026838  0  0.084427  0.120371  0  1.00465  0
H  H26  1  0.37114891  0.33204557  0.04524921  1  0.023463  0  0.073887  0.107744  0  1.051614  0
H  H27  1  0.62885222  0.66795654  0.95474999  1  0.023359  0  0.073897  0.107755  0  1.051522  0
H  H28  1  0.80299805  0.19284607  0.76666838  1  0.020552  0  0.091774  0.054441  0  1.00712  0
H  H29  1  0.19699717  0.80715074  0.23333117  1  0.020631  0  0.091783  0.054452  0  1.007061  0
H  H30  1  0.53482733  0.20426649  0.75210946  1  0.02779  0  0.079738  0.10995  0  1.039601  0
H  H31  1  0.46517793  0.79573717  0.24788961  1  0.027875  0  0.07975  0.109948  0  1.03953  0
H  H32  1  0.65818599  0.31964753  0.80894337  1  0.051712  0  0.077113  0.115933  0  1.034683  0
H  H33  1  0.34181788  0.68035320  0.19105304  1  0.051784  0  0.077151  0.115962  0  1.034707  0
H  H34  1  0.52245048  0.23247796  0.84414180  1  0.011175  0  0.082818  0.113634  0  1.031527  0
H  H35  1  0.47755216  0.76752725  0.15585400  1  0.011399  0  0.08275  0.113544  0  1.031593  0
H  H36  1  0.57291783  0.04092148  0.75667146  1  -0.004927  0  0.079622  0.110646  0  1.025465  0
H  H37  1  0.42706755  0.95907830  0.24332452  1  -0.004915  0  0.079639  0.110652  0  1.025435  0
H  H38  1  0.58149664  0.07103778  0.85041166  1  0.029356  0  0.082283  0.118481  0  0.998863  0
H  H39  1  0.41848932  0.92896562  0.14958863  1  0.029354  0  0.082282  0.118472  0  0.998925  0
H  H40  1  0.74070577  0.04047294  0.80781455  1  0.018862  0  0.079636  0.119358  0  1.018837  0
H  H41  1  0.25927849  0.95952454  0.19218347  1  0.019498  0  0.079705  0.11947  0  1.018836  0
H  H42  1  0.04231401  0.07432378  0.88176389  1  0.064925  0  0.101815  0.15038  0  0.993129  0
H  H43  1  0.95770952  0.92568283  0.11824363  1  0.065001  0  0.10182  0.150388  0  0.993134  0
H  H44  1  0.22223763  0.05764181  0.84948536  1  0.083261  0  0.105088  0.155224  0  0.976961  0
H  H45  1  0.77778017  0.94236928  0.15051948  1  0.08338  0  0.105147  0.15534  0  0.976825  0
H  H46  1  0.03962655  0.97963371  0.80208583  1  0.084101  0  0.102709  0.15001  0  1.003946  0
H  H47  1  0.96039602  0.02038033  0.19792222  1  0.08397  0  0.102681  0.149994  0  1.003932  0
H  H48  1  0.18265569  0.25401969  0.71025156  1  0.092149  0  0.107137  0.109784  0  1.025562  0
H  H49  1  0.81733218  0.74597348  0.28974205  1  0.092076  0  0.107138  0.109756  0  1.025548  0
H  H50  1  0.32181194  0.22881402  0.59932044  1  0.070416  0  0.098802  0.094983  0  1.047047  0
H  H51  1  0.67815726  0.77117307  0.40066965  1  0.070706  0  0.098777  0.094959  0  1.046972  0
H  H52  1  0.39452048  0.07132263  0.55772657  1  0.131958  0  0.107986  0.111499  0  1.044103  0
H  H53  1  0.60546924  0.92866973  0.44226995  1  0.132038  0  0.107992  0.11154  0  1.044036  0
H  H54  1  0.28425333  0.77307480  0.62984378  1  0.019766  0  0.091329  0.127236  0  1.046348  0
H  H55  1  0.71575388  0.22692588  0.37015571  1  0.01978  0  0.091329  0.127216  0  1.046346  0
H  H56  1  0.15475831  0.83883802  0.67338652  1  0.07169  0  0.100925  0.1511  0  1.002195  0
H  H57  1  0.84523821  0.16115442  0.32661010  1  0.071672  0  0.100897  0.15104  0  1.002276  0
H  H58  1  0.35187591  0.87061193  0.71047461  1  0.09729  0  0.097449  0.152907  0  1.012823  0
H  H59  1  0.64812504  0.12938041  0.28952711  1  0.097572  0  0.097413  0.15288  0  1.012824  0
H  H60  1  0.31406907  0.61076737  0.39209980  1  0.065259  0  0.100426  0.103432  0  1.025127  0
H  H61  1  0.68592455  0.38922853  0.60790461  1  0.065224  0  0.100413  0.103434  0  1.025166  0
H  H62  1  0.73118484  0.71571203  0.54237368  1  0.042221  0  0.098177  0.097803  0  1.04699  0
H  H63  1  0.26881620  0.28429228  0.45762700  1  0.042227  0  0.098181  0.09786  0  1.04693  0
H  H64  1  0.61715682  0.91877140  0.65724917  1  0.043854  0  0.094883  0.061755  0  0.986995  0
H  H65  1  0.38283569  0.08122917  0.34274808  1  0.04404  0  0.094915  0.061824  0  0.986937  0
H  H66  1  0.86509873  0.91129380  0.70601871  1  0.031145  0  0.085293  0.119622  0  1.029613  0
H  H67  1  0.13489351  0.08871566  0.29398091  1  0.031236  0  0.085285  0.119592  0  1.029664  0
H  H68  1  0.88631756  0.82758581  0.62689456  1  0.003793  0  0.079295  0.105321  0  1.025557  0
H  H69  1  0.11368480  0.17242364  0.37310924  1  0.003838  0  0.079372  0.105422  0  1.025499  0
H  H70  1  0.72897978  0.78884591  0.67830993  1  0.036937  0  0.077294  0.110414  0  1.034366  0
H  H71  1  0.27101543  0.21116272  0.32169361  1  0.036683  0  0.077299  0.110438  0  1.034406  0
H  H72  1  0.86636402  0.03610118  0.63661900  1  0.052396  0  0.08457  0.121017  0  1.015116  0
H  H73  1  0.13362825  0.96390599  0.36338217  1  0.052378  0  0.084601  0.12105  0  1.015118  0
H  H74  1  0.71492622  0.00533628  0.56587399  1  0.044979  0  0.08456  0.115848  0  1.036527  0
H  H75  1  0.28505747  0.99466709  0.43412627  1  0.045249  0  0.08453  0.115808  0  1.036574  0
H  H76  1  0.86882389  0.94939032  0.55447876  1  0.01007  0  0.081764  0.114335  0  1.004181  0
H  H77  1  0.13116881  0.05061539  0.44552160  1  0.009989  0  0.081781  0.114356  0  1.004106  0
H  H78  1  0.20335933  0.84191985  0.46763690  1  0.052312  0  0.096192  0.06403  0  0.987761  0
H  H79  1  0.79663525  0.15807327  0.53236136  1  0.052208  0  0.096192  0.063993  0  0.987788  0
H  H80  1  0.05155858  0.71086091  0.52195638  1  0.020172  0  0.081235  0.109521  0  1.022167  0
H  H81  1  0.94843221  0.28913600  0.47803805  1  0.020364  0  0.081241  0.10948  0  1.022165  0
H  H82  1  0.02919162  0.61823482  0.43980894  1  0.037706  0  0.080444  0.108591  0  1.020573  0
H  H83  1  0.97080374  0.38175989  0.56018611  1  0.037819  0  0.080378  0.10848  0  1.020704  0
H  H84  1  0.93847625  0.71258048  0.44675196  1  0.028919  0  0.084296  0.117822  0  1.013653  0
H  H85  1  0.06151948  0.28741499  0.55324275  1  0.028932  0  0.084305  0.11784  0  1.013659  0
H  H86  1  0.07804353  0.76502538  0.34477711  1  0.017562  0  0.084056  0.111536  0  1.033634  0
H  H87  1  0.92196051  0.23496864  0.65521942  1  0.017953  0  0.084053  0.111595  0  1.033554  0
H  H88  1  0.16752851  0.66943567  0.33304635  1  0.012275  0  0.083283  0.113386  0  1.017213  0
H  H89  1  0.83247769  0.33056052  0.66695320  1  0.012376  0  0.083314  0.113423  0  1.017238  0
H  H90  1  0.28767332  0.79523717  0.34699141  1  0.050077  0  0.087695  0.123677  0  1.011593  0
H  H91  1  0.71233018  0.20476047  0.65300891  1  0.05008  0  0.087714  0.123732  0  1.011554  0
H  H92  1  0.71141087  0.55991810  0.51884999  1  0.037807  0  0.109244  0.108934  0  0.986738  0
H  H93  1  0.28859369  0.44009129  0.48115686  1  0.037995  0  0.109272  0.109003  0  0.986889  0
H  H94  1  0.78799541  0.41370234  0.45225954  1  0.073309  0  0.105808  0.108092  0  1.012533  0
H  H95  1  0.21202611  0.58630484  0.54775315  1  0.073683  0  0.105798  0.108123  0  1.012443  0
H  H96  1  0.68528906  0.33513899  0.32252049  1  0.088166  0  0.110803  0.083767  0  1.017243  0
H  H97  1  0.31472469  0.66486139  0.67749220  1  0.088116  0  0.110787  0.083764  0  1.017255  0
H  H98  1  0.45253202  0.54029687  0.32385028  1  0.102842  0  0.096833  0.074589  0  1.06739  0
H  H99  1  0.54745477  0.45968709  0.67615206  1  0.102762  0  0.096811  0.074531  0  1.067392  0
C  C100  1  0.79703585  0.50389972  0.19215510  1  0.47401  0  0.034776  0.067643  0  3.988461  0
C  C101  1  0.20296426  0.49609790  0.80784417  1  0.474414  0  0.034793  0.067573  0  3.988555  0
C  C102  1  0.94003970  0.54665144  0.16837665  1  -0.054068  0  -0.085581  -0.120568  0  3.994002  0
C  C103  1  0.05995299  0.45334243  0.83162072  1  -0.053244  0  -0.085601  -0.120632  0  3.99389  0
C  C104  1  0.98034494  0.49453772  0.10540512  1  -0.00131  0  -0.065924  -0.06151  0  3.916145  0
C  C105  1  0.01964773  0.50545611  0.89459326  1  -0.002055  0  -0.065948  -0.061517  0  3.916227  0
C  C106  1  0.87887909  0.39961096  0.06781838  1  -0.035978  0  0.001739  0.040954  0  3.970762  0
C  C107  1  0.12111734  0.60038135  0.93218278  1  -0.035585  0  0.001725  0.040948  0  3.970854  0
C  C108  1  0.73995365  0.36164741  0.09732422  1  0.531424  0  0.04396  0.036829  0  3.914494  0
C  C109  1  0.26004510  0.63834268  0.90267701  1  0.53097  0  0.044006  0.036937  0  3.914734  0
C  C110  1  0.91893245  0.34203085  0.00128328  1  -0.051578  0  -0.0212  0.053384  0  4.072627  0
C  C111  1  0.08106128  0.65796522  0.99871558  1  -0.0516  0  -0.021177  0.053442  0  4.072485  0
C  C112  1  0.07519643  0.34045738  0.99622894  1  -0.064129  0  -0.095221  -0.174689  0  3.964807  0
C  C113  1  0.92479763  0.65954172  0.00376853  1  -0.064166  0  -0.095252  -0.17474  0  3.964919  0
C  C114  1  0.12150911  0.28909370  0.93443752  1  0.04076  0  -0.008459  0.015792  0  3.895818  0
C  C115  1  0.87848867  0.71090845  0.06555911  1  0.040708  0  -0.008449  0.015771  0  3.895628  0
C  C116  1  0.00716082  0.24028914  0.87434602  1  0.327206  0  0.091221  0.107498  0  4.052351  0
C  C117  1  0.99283671  0.75970778  0.12565103  1  0.327492  0  0.091249  0.107677  0  4.0522  0
C  C118  1  0.84848772  0.24182099  0.87767386  1  -0.028214  0  -0.010064  0.013649  0  3.905401  0
C  C119  1  0.15151232  0.75817886  0.12232587  1  -0.027947  0  -0.010071  0.013648  0  3.905479  0
C  C120  1  0.80647731  0.29096803  0.94153755  1  0.002022  0  -0.098027  -0.191411  0  3.984201  0
C  C121  1  0.19352007  0.70903099  0.05846401  1  0.001624  0  -0.098061  -0.19149  0  3.984013  0
C  C122  1  0.29401186  0.29342264  0.93214205  1  0.032155  0  -0.091053  0.084149  0  3.89308  0
C  C123  1  0.70598664  0.70657869  0.06785746  1  0.032347  0  -0.091049  0.084199  0  3.892799  0
C  C124  1  0.39432230  0.39416336  0.92360840  1  -0.064495  0  -0.248146  -0.385844  0  3.90147  0
C  C125  1  0.60567686  0.60583220  0.07638433  1  -0.064448  0  -0.248221  -0.38589  0  3.901483  0
C  C126  1  0.35891573  0.27138605  0.99665822  1  -0.037445  0  -0.249787  -0.395196  0  3.93284  0
C  C127  1  0.64109017  0.72861900  0.00334419  1  -0.037453  0  -0.249702  -0.395115  0  3.932776  0
C  C128  1  0.73133468  0.18985346  0.81145591  1  0.030991  0  -0.090521  0.080163  0  3.899954  0
C  C129  1  0.26866081  0.81014862  0.18854220  1  0.030964  0  -0.09049  0.080214  0  3.899776  0
C  C130  1  0.60567729  0.23989749  0.80408277  1  -0.093873  0  -0.248857  -0.389462  0  3.919344  0
C  C131  1  0.39432694  0.76010399  0.19591380  1  -0.094194  0  -0.248849  -0.389398  0  3.919169  0
C  C132  1  0.65278329  0.07924773  0.80620912  1  -0.021131  0  -0.247204  -0.379739  0  3.903571  0
C  C133  1  0.34720316  0.92075429  0.19378734  1  -0.021868  0  -0.247294  -0.379864  0  3.90375  0
C  C134  1  0.10139740  0.05635896  0.83421135  1  -0.124621  0  -0.233037  -0.46049  0  3.944145  0
C  C135  1  0.89861960  0.94365051  0.16579770  1  -0.124481  0  -0.232998  -0.460489  0  3.944395  0
C  C136  1  0.10622800  0.12795673  0.79146306  1  0.712928  0  0.158795  0.263611  0  3.953309  0
C  C137  1  0.89377992  0.87205495  0.20854330  1  0.712127  0  0.158695  0.263445  0  3.953223  0
C  C138  1  0.17977170  0.11260516  0.72385577  1  0.535399  0  0.120193  0.149621  0  4.005714  0
C  C139  1  0.82023303  0.88739981  0.27614915  1  0.535787  0  0.120198  0.149664  0  4.005609  0
C  C140  1  0.21443236  0.18671300  0.68841510  1  -0.051587  0  -0.072712  -0.14061  0  3.93618  0
C  C141  1  0.78556954  0.81328837  0.31158447  1  -0.051712  0  -0.072651  -0.140499  0  3.936173  0
C  C142  1  0.29142289  0.17253894  0.62774381  1  -0.056097  0  -0.074328  -0.033382  0  3.977995  0
C  C143  1  0.70857281  0.82745649  0.37225240  1  -0.056549  0  -0.074311  -0.033297  0  3.977955  0
C  C144  1  0.33206239  0.08556587  0.60422396  1  -0.031697  0  -0.073521  -0.140031  0  3.925846  0
C  C145  1  0.66793865  0.91442660  0.39577322  1  -0.031858  0  -0.073496  -0.14021  0  3.9261  0
C  C146  1  0.29133211  0.01481951  0.64220189  1  0.525788  0  0.117277  0.146894  0  4.000956  0
C  C147  1  0.70867285  0.98517652  0.35780269  1  0.525901  0  0.117332  0.146972  0  4.001288  0
C  C148  1  0.32759972  0.91915763  0.61803440  1  0.714142  0  0.163187  0.277356  0  3.934604  0
C  C149  1  0.67240303  0.08083847  0.38196711  1  0.714351  0  0.163199  0.27731  0  3.934852  0
C  C150  1  0.27588913  0.84545563  0.65974807  1  -0.088005  0  -0.240073  -0.468165  0  3.947941  0
C  C151  1  0.72411392  0.15454346  0.34025357  1  -0.088245  0  -0.239998  -0.468019  0  3.947926  0
C  C152  1  0.43934890  0.81967827  0.53216811  1  0.334928  0  0.096117  0.118215  0  4.038137  0
C  C153  1  0.56064442  0.18031929  0.46783055  1  0.334945  0  0.09607  0.118259  0  4.038154  0
C  C154  1  0.34426013  0.74906066  0.47095308  1  0.002474  0  -0.00981  0.007676  0  3.897015  0
C  C155  1  0.65573179  0.25093163  0.52904700  1  0.00223  0  -0.009839  0.007587  0  3.897149  0
C  C156  1  0.38946845  0.66604420  0.43829083  1  -0.068613  0  -0.095183  -0.184354  0  3.980257  0
C  C157  1  0.61053046  0.33395331  0.56171195  1  -0.068902  0  -0.095077  -0.184322  0  3.980252  0
C  C158  1  0.52745554  0.65156761  0.46358276  1  -0.079543  0  -0.027763  0.035547  0  4.104061  0
C  C159  1  0.47254826  0.34843302  0.53641718  1  -0.079004  0  -0.027806  0.035613  0  4.103979  0
C  C160  1  0.62129101  0.72411606  0.52323504  1  -0.062541  0  -0.098298  -0.190158  0  3.997387  0
C  C161  1  0.37871425  0.27588762  0.47676352  1  -0.062521  0  -0.098304  -0.190226  0  3.997281  0
C  C162  1  0.58134959  0.80817957  0.55813562  1  0.050821  0  -0.006446  0.015053  0  3.88805  0
C  C163  1  0.41864865  0.19181882  0.44186226  1  0.0508  0  -0.006447  0.015018  0  3.888074  0
C  C164  1  0.69149484  0.88888637  0.61928133  1  0.028942  0  -0.086275  0.090471  0  3.874074  0
C  C165  1  0.30850059  0.11111796  0.38071624  1  0.028774  0  -0.086334  0.090386  0  3.874306  0
C  C166  1  0.79833998  0.85120149  0.65952472  1  -0.060668  0  -0.248291  -0.392975  0  3.937564  0
C  C167  1  0.20165910  0.14880577  0.34047604  1  -0.060663  0  -0.24833  -0.393054  0  3.937925  0
C  C168  1  0.79101040  0.97522222  0.59244689  1  -0.097896  0  -0.243908  -0.385434  0  3.889866  0
C  C169  1  0.20897777  0.02478344  0.40755340  1  -0.097983  0  -0.24392  -0.385405  0  3.889771  0
C  C170  1  0.19477632  0.76368265  0.44264615  1  0.019214  0  -0.088201  0.083557  0  3.880107  0
C  C171  1  0.80521822  0.23631273  0.55735105  1  0.01949  0  -0.088183  0.083672  0  3.879952  0
C  C172  1  0.04521576  0.69769843  0.46424489  1  -0.0962  0  -0.245125  -0.385559  0  3.925705  0
C  C173  1  0.95478112  0.30229707  0.53574933  1  -0.096549  0  -0.245088  -0.385456  0  3.925658  0
C  C174  1  0.18162191  0.74712895  0.36233982  1  -0.0639  0  -0.243622  -0.388571  0  3.913921  0
C  C175  1  0.81838201  0.25286721  0.63766020  1  -0.064376  0  -0.243681  -0.388748  0  3.913764  0
C  C176  1  0.57568318  0.56468965  0.42766222  1  0.062983  0  -0.004181  0.028719  0  4.000177  0
C  C177  1  0.42431573  0.43530555  0.57234312  1  0.073762  0  -0.004132  0.028746  0  4.000332  0
C  C178  1  0.67256844  0.52661167  0.46242415  1  -0.068182  0  -0.067308  -0.080475  0  3.942477  0
C  C179  1  0.32743632  0.47338872  0.53758438  1  -0.078778  0  -0.067371  -0.080627  0  3.942841  0
C  C180  1  0.71523007  0.44472957  0.42547090  1  0.05907  0  -0.08513  -0.122559  0  4.010918  0
C  C181  1  0.28477286  0.55526701  0.57453985  1  0.05866  0  -0.085135  -0.122509  0  4.010567  0
C  C182  1  0.65841757  0.40041909  0.35415793  1  0.466421  0  0.037965  0.069057  0  3.966315  0
C  C183  1  0.34159514  0.59957909  0.64585327  1  0.466231  0  0.03803  0.068987  0  3.966226  0
C  C184  1  0.52606690  0.51520339  0.35552290  1  0.444459  0  0.036817  0.026436  0  3.922833  0
C  C185  1  0.47394004  0.48478971  0.64448108  1  0.444169  0  0.036847  0.026483  0  3.922912  0
Br  Br186  1  0.28472721  0.46237496  0.19287111  1  -0.445572  0  -0.240097  -0.37734  0  1.3105  0
Br  Br187  1  0.71539192  0.53770427  0.80713908  1  -0.445731  0  -0.240188  -0.377383  0  1.310556  0
Br  Br188  1  0.44853441  0.16847418  0.17680393  1  -0.436509  0  -0.254958  -0.373319  0  1.210658  0
Br  Br189  1  0.55144135  0.83151959  0.82318967  1  -0.436507  0  -0.254927  -0.373317  0  1.210811  0
N  N190  1  0.69924354  0.41299721  0.15698087  1  -1.22232  0  -0.316116  -0.200826  0  3.549843  0
N  N191  1  0.30075858  0.58699519  0.84301936  1  -1.22274  0  -0.316134  -0.200754  0  3.55007  0
N  N192  1  0.05518703  0.20354834  0.80850747  1  -1.242069  0  -0.300051  -0.323871  0  3.402402  0
N  N193  1  0.94481581  0.79645020  0.19148695  1  -1.24182  0  -0.300045  -0.324036  0  3.402237  0
N  N194  1  0.21720095  0.02818185  0.70099809  1  -1.204574  0  -0.301279  -0.302294  0  3.299736  0
N  N195  1  0.78281675  0.97183142  0.29900872  1  -1.204566  0  -0.301411  -0.302318  0  3.299729  0
N  N196  1  0.39924346  0.90569895  0.56202607  1  -1.229446  0  -0.298422  -0.320048  0  3.380664  0
N  N197  1  0.60075713  0.09429727  0.43797037  1  -1.229536  0  -0.298441  -0.32006  0  3.38073  0
N  N198  1  0.56488155  0.43542097  0.32048169  1  -1.233416  0  -0.315636  -0.199366  0  3.540821  0
N  N199  1  0.43511959  0.56457419  0.67952570  1  -1.233243  0  -0.315666  -0.199354  0  3.541002  0
