# generated using pymatgen
data_K3H20C22Cl3O5
_symmetry_space_group_name_H-M   'P 1'
_cell_length_a   7.12012499
_cell_length_b   17.99915777
_cell_length_c   20.92700112
_cell_angle_alpha   89.99991230
_cell_angle_beta   89.99999904
_cell_angle_gamma   91.46149519
_symmetry_Int_Tables_number   1
_chemical_formula_structural   K3H20C22Cl3O5
_chemical_formula_sum   'K12 H80 C88 Cl12 O20'
_cell_volume   2681.05359393
_cell_formula_units_Z   4
loop_
 _symmetry_equiv_pos_site_id
 _symmetry_equiv_pos_as_xyz
  1  'x, y, z'
loop_
 _atom_site_type_symbol
 _atom_site_label
 _atom_site_symmetry_multiplicity
 _atom_site_fract_x
 _atom_site_fract_y
 _atom_site_fract_z
 _atom_site_occupancy
 _atom_site_pbe_bader_charge
 _atom_site_pbe_bader_spin_density
 _atom_site_pbe_cm5_charge
 _atom_site_pbe_ddec_charge
 _atom_site_pbe_ddec_spin_density
 _atom_site_pbe_ddec_sum_bond_order
 _atom_site_pbe_magmom
K  K0  1  0.61230873  0.10544369  0.33321299  1  0.859697  0  0.789782  0.865047  0  0.720732  0
K  K1  1  0.88769262  0.89455707  0.83321244  1  0.859711  0  0.789765  0.865048  0  0.720704  0
K  K2  1  0.38769105  0.89455765  0.66678535  1  0.859695  0  0.789782  0.865047  0  0.720732  0
K  K3  1  0.11230860  0.10544482  0.16678637  1  0.859697  0  0.789775  0.865045  0  0.720748  0
K  K4  1  0.63160575  0.39738304  0.33350954  1  0.856663  0  0.796081  0.859667  0  0.739901  0
K  K5  1  0.86839544  0.60261550  0.83350794  1  0.856672  0  0.79608  0.859668  0  0.739901  0
K  K6  1  0.36839387  0.60261607  0.66649070  1  0.856661  0  0.79609  0.85967  0  0.739907  0
K  K7  1  0.13159984  0.39738195  0.16649087  1  0.856661  0  0.796095  0.85968  0  0.739898  0
K  K8  1  0.49434186  0.25112514  0.23016707  1  0.864482  0  0.771984  0.870636  0  0.768957  0
K  K9  1  0.00565188  0.74887332  0.73016720  1  0.864477  0  0.771989  0.870645  0  0.768951  0
K  K10  1  0.50565495  0.74887397  0.76983270  1  0.864479  0  0.77198  0.870641  0  0.768968  0
K  K11  1  0.99434348  0.25112524  0.26983257  1  0.864479  0  0.771995  0.870654  0  0.768954  0
H  H12  1  0.35934556  0.28074627  0.38826567  1  0.068398  0  0.108039  0.110469  0  1.040411  0
H  H13  1  0.14065389  0.71925358  0.88826583  1  0.068403  0  0.108025  0.110464  0  1.040422  0
H  H14  1  0.64065274  0.71925396  0.61173409  1  0.068584  0  0.108031  0.110469  0  1.040421  0
H  H15  1  0.85934436  0.28074609  0.11173345  1  0.06843  0  0.108042  0.110468  0  1.040416  0
H  H16  1  0.25262996  0.28479592  0.50155902  1  0.084417  0  0.096627  0.106592  0  1.009147  0
H  H17  1  0.24736667  0.71520350  0.00155876  1  0.084144  0  0.096609  0.106548  0  1.009113  0
H  H18  1  0.74737111  0.71520374  0.49844123  1  0.084548  0  0.096642  0.106599  0  1.009164  0
H  H19  1  0.75263154  0.28479561  0.99843957  1  0.084438  0  0.09663  0.106607  0  1.009159  0
H  H20  1  0.80571332  0.22625454  0.56425987  1  0.095563  0  0.084331  0.092834  0  1.066393  0
H  H21  1  0.69428515  0.77374504  0.06425953  1  0.095533  0  0.08434  0.092844  0  1.066393  0
H  H22  1  0.19428634  0.77374513  0.43573990  1  0.095543  0  0.084328  0.092844  0  1.066402  0
H  H23  1  0.30571736  0.22625518  0.93574071  1  0.09552  0  0.084321  0.092819  0  1.066446  0
H  H24  1  0.91481607  0.22353149  0.45181805  1  0.059364  0  0.098277  0.106051  0  1.019332  0
H  H25  1  0.58518241  0.77646851  0.95181766  1  0.059357  0  0.098281  0.106058  0  1.019313  0
H  H26  1  0.08518218  0.77646818  0.54818171  1  0.059355  0  0.098296  0.106038  0  1.019379  0
H  H27  1  0.41482009  0.22353171  0.04818401  1  0.059325  0  0.098268  0.106042  0  1.019371  0
H  H28  1  0.04599307  0.36968251  0.38371121  1  0.0575  0  0.107871  0.109436  0  1.010108  0
H  H29  1  0.45400650  0.63031901  0.88371340  1  0.057454  0  0.107883  0.109515  0  1.010089  0
H  H30  1  0.95400799  0.63031716  0.61628808  1  0.057511  0  0.107857  0.109456  0  1.010063  0
H  H31  1  0.54599336  0.36968343  0.11628684  1  0.057512  0  0.107857  0.109465  0  1.010054  0
H  H32  1  0.91349224  0.48823740  0.42177153  1  0.08295  0  0.100878  0.103599  0  1.054679  0
H  H33  1  0.58650633  0.51176376  0.92177340  1  0.082904  0  0.100885  0.103594  0  1.05469  0
H  H34  1  0.08650882  0.51176226  0.57822871  1  0.082945  0  0.100865  0.103578  0  1.05471  0
H  H35  1  0.41348924  0.48823758  0.07822732  1  0.083423  0  0.100851  0.103565  0  1.05471  0
H  H36  1  0.24639823  0.61050241  0.28407709  1  0.072836  0  0.104118  0.115765  0  0.990731  0
H  H37  1  0.25360000  0.38949985  0.78407721  1  0.073005  0  0.104116  0.11574  0  0.99075  0
H  H38  1  0.75360147  0.38949782  0.71592267  1  0.07284  0  0.104126  0.115792  0  0.990698  0
H  H39  1  0.74639702  0.61050205  0.21592447  1  0.072841  0  0.104132  0.115799  0  0.990704  0
H  H40  1  0.37934861  0.49333334  0.24511363  1  0.07588  0  0.092922  0.089975  0  1.097547  0
H  H41  1  0.12065388  0.50666954  0.74511359  1  0.075879  0  0.092913  0.089957  0  1.09771  0
H  H42  1  0.62065109  0.50666689  0.75488566  1  0.075894  0  0.092926  0.089987  0  1.097521  0
H  H43  1  0.87934313  0.49333236  0.25488665  1  0.075875  0  0.092922  0.090001  0  1.097666  0
H  H44  1  0.03687414  0.13855988  0.38385758  1  0.049155  0  0.104813  0.100258  0  1.036242  0
H  H45  1  0.46312808  0.86143941  0.88385756  1  0.04915  0  0.104819  0.100271  0  1.036246  0
H  H46  1  0.96312267  0.86143923  0.61614123  1  0.049129  0  0.104807  0.100259  0  1.036252  0
H  H47  1  0.53687579  0.13856025  0.11614125  1  0.049131  0  0.104811  0.100264  0  1.03625  0
H  H48  1  0.89038942  0.02283328  0.42817457  1  0.071514  0  0.100929  0.103751  0  1.032561  0
H  H49  1  0.60960903  0.97716621  0.92817439  1  0.071522  0  0.100919  0.103718  0  1.03261  0
H  H50  1  0.10960880  0.97716584  0.57182472  1  0.071498  0  0.10093  0.103758  0  1.03256  0
H  H51  1  0.39039203  0.02283346  0.07182537  1  0.071524  0  0.100952  0.103788  0  1.032527  0
H  H52  1  0.19032864  0.89271889  0.29086909  1  0.075277  0  0.10582  0.117216  0  0.983206  0
H  H53  1  0.30967224  0.10728112  0.79086910  1  0.075133  0  0.105823  0.117208  0  0.983205  0
H  H54  1  0.80967238  0.10728022  0.70913020  1  0.075307  0  0.105816  0.117244  0  0.983271  0
H  H55  1  0.69032746  0.89271910  0.20913210  1  0.075127  0  0.105821  0.117189  0  0.983213  0
H  H56  1  0.33823838  0.00733732  0.24639172  1  0.0585  0  0.094451  0.090723  0  1.0858  0
H  H57  1  0.16176391  0.99266277  0.74639153  1  0.058514  0  0.094444  0.090729  0  1.085772  0
H  H58  1  0.66176269  0.99266235  0.75360804  1  0.058517  0  0.094457  0.090756  0  1.085792  0
H  H59  1  0.83823864  0.00733800  0.25360919  1  0.058487  0  0.094452  0.090722  0  1.085758  0
H  H60  1  0.54007036  0.91765959  0.41040985  1  0.091415  0  0.101785  0.078355  0  1.002737  0
H  H61  1  0.95992954  0.08234047  0.91040989  1  0.091425  0  0.101779  0.078339  0  1.00276  0
H  H62  1  0.45993211  0.08234007  0.58959087  1  0.091408  0  0.101795  0.078351  0  1.002746  0
H  H63  1  0.04007008  0.91765864  0.08959083  1  0.091679  0  0.101769  0.078331  0  1.002757  0
H  H64  1  0.32582659  0.93505965  0.45210286  1  0.021003  0  0.095465  0.06723  0  0.998351  0
H  H65  1  0.17417425  0.06494008  0.95210293  1  0.020996  0  0.095466  0.067226  0  0.998348  0
H  H66  1  0.67417592  0.06494057  0.54789786  1  0.020974  0  0.095474  0.067239  0  0.998334  0
H  H67  1  0.82582673  0.93505847  0.04789779  1  0.020986  0  0.095492  0.067261  0  0.998359  0
H  H68  1  0.27581574  0.05959917  0.48992921  1  0.048331  0  0.092055  0.059644  0  1.012701  0
H  H69  1  0.22418505  0.94039994  0.98992908  1  0.048314  0  0.092046  0.059636  0  1.012711  0
H  H70  1  0.72418809  0.94039994  0.51007151  1  0.048299  0  0.092059  0.05966  0  1.012672  0
H  H71  1  0.77581456  0.05959918  0.01007211  1  0.048319  0  0.092075  0.059664  0  1.012644  0
H  H72  1  0.45481755  0.12886625  0.47486251  1  0.08015  0  0.101836  0.073752  0  1.045943  0
H  H73  1  0.04518329  0.87113343  0.97486199  1  0.080141  0  0.101864  0.073788  0  1.045892  0
H  H74  1  0.54518355  0.87113397  0.52513821  1  0.080147  0  0.101864  0.073808  0  1.045896  0
H  H75  1  0.95481769  0.12886512  0.02513873  1  0.080163  0  0.101865  0.073808  0  1.045941  0
H  H76  1  0.76206976  0.47984060  0.51930820  1  0.065362  0  0.094519  0.06438  0  1.011762  0
H  H77  1  0.73793016  0.52015962  0.01930820  1  0.065389  0  0.094515  0.064363  0  1.011827  0
H  H78  1  0.23793134  0.52015962  0.48069204  1  0.065373  0  0.094453  0.064246  0  1.011781  0
H  H79  1  0.26206809  0.47984005  0.98069204  1  0.06538  0  0.094468  0.06428  0  1.011777  0
H  H80  1  0.67888115  0.38817540  0.49753161  1  0.072683  0  0.10545  0.082319  0  1.019331  0
H  H81  1  0.82111737  0.61182507  0.99753144  1  0.072656  0  0.105438  0.082308  0  1.01931  0
H  H82  1  0.32111719  0.61182538  0.50246863  1  0.072649  0  0.105447  0.082285  0  1.019315  0
H  H83  1  0.17887948  0.38817460  0.00246833  1  0.072671  0  0.105451  0.082306  0  1.019309  0
H  H84  1  0.46762920  0.56450077  0.39992458  1  0.068019  0  0.105521  0.083892  0  1.000658  0
H  H85  1  0.03236888  0.43549961  0.89992464  1  0.068038  0  0.105511  0.083913  0  1.000625  0
H  H86  1  0.53237054  0.43550001  0.60007518  1  0.068042  0  0.105507  0.083902  0  1.000625  0
H  H87  1  0.96763082  0.56450061  0.10007512  1  0.068033  0  0.105505  0.083893  0  1.000639  0
H  H88  1  0.63807963  0.58403783  0.46104513  1  0.063579  0  0.091399  0.056008  0  1.026899  0
H  H89  1  0.86191749  0.41596271  0.96104521  1  0.063578  0  0.091399  0.05603  0  1.026825  0
H  H90  1  0.36191871  0.41596295  0.53895464  1  0.063585  0  0.091395  0.055999  0  1.026871  0
H  H91  1  0.13808081  0.58403751  0.03895455  1  0.063578  0  0.091388  0.056001  0  1.026873  0
C  C92  1  0.64655957  0.25240440  0.41038878  1  0.641133  0  0.012772  0.29874  0  4.297473  0
C  C93  1  0.85344029  0.74759511  0.91038795  1  0.641086  0  0.012804  0.298801  0  4.297388  0
C  C94  1  0.35343865  0.74759471  0.58961146  1  0.641137  0  0.012792  0.298792  0  4.297495  0
C  C95  1  0.14656077  0.25240456  0.08961181  1  0.641191  0  0.01279  0.298752  0  4.297491  0
C  C96  1  0.45755092  0.26903522  0.42694346  1  -0.097298  0  -0.129616  -0.246266  0  3.996935  0
C  C97  1  0.04244852  0.73096455  0.92694361  1  -0.097321  0  -0.129624  -0.246326  0  3.997031  0
C  C98  1  0.54244733  0.73096445  0.57305630  1  -0.097453  0  -0.129585  -0.246286  0  3.99699  0
C  C99  1  0.95755118  0.26903567  0.07305616  1  -0.097316  0  -0.129599  -0.246221  0  3.996963  0
C  C100  1  0.39750056  0.27129516  0.49036105  1  -0.068963  0  -0.102895  -0.135865  0  4.053217  0
C  C101  1  0.10249461  0.72870395  0.99035977  1  -0.068663  0  -0.102805  -0.135714  0  4.053203  0
C  C102  1  0.60249909  0.72870451  0.50963824  1  -0.069099  0  -0.102958  -0.13587  0  4.053254  0
C  C103  1  0.89750364  0.27129572  0.00963856  1  -0.068939  0  -0.102952  -0.135945  0  4.053403  0
C  C104  1  0.52340194  0.25622839  0.53971166  1  0.020678  0  -0.014968  0.10528  0  4.064203  0
C  C105  1  0.97659794  0.74377123  0.03971184  1  0.020688  0  -0.015002  0.105242  0  4.064221  0
C  C106  1  0.47659632  0.74377128  0.46028811  1  0.020691  0  -0.014882  0.105376  0  4.064208  0
C  C107  1  0.02340593  0.25622843  0.96028840  1  0.020674  0  -0.014887  0.105344  0  4.064253  0
C  C108  1  0.70898601  0.23869656  0.52562078  1  -0.006917  0  -0.108611  -0.144941  0  4.077819  0
C  C109  1  0.79101247  0.76130309  0.02561999  1  -0.006873  0  -0.108642  -0.144945  0  4.077827  0
C  C110  1  0.29101365  0.76130311  0.47437898  1  -0.006915  0  -0.10863  -0.145036  0  4.077921  0
C  C111  1  0.20898856  0.23869602  0.97437978  1  -0.006881  0  -0.108671  -0.145008  0  4.077921  0
C  C112  1  0.76927996  0.23697819  0.46237187  1  -0.155364  0  -0.119352  -0.222989  0  3.990189  0
C  C113  1  0.73072133  0.76302178  0.96237150  1  -0.155402  0  -0.119368  -0.223051  0  3.990226  0
C  C114  1  0.23071829  0.76302148  0.53762789  1  -0.155367  0  -0.119365  -0.222922  0  3.990225  0
C  C115  1  0.26928122  0.23697899  0.03762922  1  -0.155394  0  -0.119326  -0.222965  0  3.990212  0
C  C116  1  0.21788583  0.42050404  0.30887771  1  0.695922  0  0.009762  0.304198  0  4.299871  0
C  C117  1  0.28211384  0.57949873  0.80887997  1  0.695874  0  0.009869  0.30435  0  4.299884  0
C  C118  1  0.78211242  0.57949563  0.69112158  1  0.695751  0  0.009849  0.304355  0  4.299823  0
C  C119  1  0.71788318  0.42050317  0.19112027  1  0.695717  0  0.009894  0.304411  0  4.299721  0
C  C120  1  0.08790419  0.42216198  0.36077669  1  -0.120793  0  -0.12259  -0.232575  0  4.003514  0
C  C121  1  0.41209122  0.57784014  0.86077799  1  -0.12071  0  -0.122635  -0.232747  0  4.00362  0
C  C122  1  0.91209688  0.57783768  0.63922260  1  -0.120651  0  -0.122591  -0.232624  0  4.003464  0
C  C123  1  0.58790720  0.42216175  0.13922273  1  -0.120658  0  -0.122597  -0.23268  0  4.003504  0
C  C124  1  0.01518274  0.48853677  0.38285769  1  -0.08701  0  -0.115784  -0.16891  0  4.094793  0
C  C125  1  0.48481394  0.51146364  0.88285956  1  -0.086922  0  -0.115743  -0.168817  0  4.094549  0
C  C126  1  0.98481836  0.51146345  0.61714208  1  -0.087024  0  -0.115816  -0.168952  0  4.094872  0
C  C127  1  0.51518307  0.48853825  0.11714069  1  -0.087458  0  -0.115704  -0.168765  0  4.094586  0
C  C128  1  0.06919121  0.55621919  0.35456262  1  0.039464  0  -0.011938  0.108019  0  4.072336  0
C  C129  1  0.43080271  0.44378183  0.85456123  1  0.039502  0  -0.011913  0.108056  0  4.072249  0
C  C130  1  0.93080849  0.44378103  0.64543762  1  0.039466  0  -0.011895  0.10808  0  4.072267  0
C  C131  1  0.56919707  0.55621950  0.14543853  1  0.039483  0  -0.011932  0.108006  0  4.072363  0
C  C132  1  0.20124580  0.55766414  0.30528896  1  0.016821  0  -0.096173  -0.11775  0  4.035115  0
C  C133  1  0.29874970  0.44233919  0.80528948  1  0.016813  0  -0.096248  -0.117789  0  4.035158  0
C  C134  1  0.79875250  0.44233608  0.69471033  1  0.016806  0  -0.096173  -0.117775  0  4.035132  0
C  C135  1  0.70124450  0.55766271  0.19471172  1  0.01683  0  -0.096214  -0.117813  0  4.03512  0
C  C136  1  0.27478829  0.49126259  0.28335705  1  -0.192869  0  -0.155585  -0.281529  0  4.04268  0
C  C137  1  0.22520861  0.50874078  0.78335605  1  -0.193091  0  -0.15555  -0.281548  0  4.042752  0
C  C138  1  0.72520856  0.50873708  0.71664129  1  -0.192872  0  -0.155607  -0.281596  0  4.042796  0
C  C139  1  0.77478832  0.49126000  0.21664515  1  -0.19287  0  -0.155587  -0.281605  0  4.042622  0
C  C140  1  0.19444694  0.08354944  0.30953163  1  0.64255  0  0.010527  0.306653  0  4.296361  0
C  C141  1  0.30555541  0.91645166  0.80953106  1  0.642981  0  0.010569  0.306676  0  4.296208  0
C  C142  1  0.80555140  0.91645135  0.69046765  1  0.642534  0  0.010542  0.306675  0  4.296352  0
C  C143  1  0.69444705  0.08354801  0.19046871  1  0.642625  0  0.010512  0.306637  0  4.296327  0
C  C144  1  0.06815547  0.08489187  0.36245417  1  -0.055625  0  -0.122799  -0.231296  0  4.007034  0
C  C145  1  0.43184672  0.91510691  0.86245408  1  -0.056097  0  -0.122827  -0.231368  0  4.00697  0
C  C146  1  0.93184275  0.91510725  0.63754464  1  -0.055639  0  -0.122808  -0.231357  0  4.007026  0
C  C147  1  0.56815575  0.08489276  0.13754521  1  -0.055625  0  -0.12278  -0.231305  0  4.006991  0
C  C148  1  0.98732687  0.02005726  0.38787305  1  -0.069491  0  -0.114375  -0.165623  0  4.086359  0
C  C149  1  0.51267439  0.97994230  0.88787239  1  -0.069453  0  -0.114375  -0.165559  0  4.086324  0
C  C150  1  0.01267274  0.97994186  0.61212624  1  -0.069469  0  -0.114382  -0.165588  0  4.086292  0
C  C151  1  0.48732671  0.02005793  0.11212738  1  -0.069458  0  -0.114401  -0.165659  0  4.086291  0
C  C152  1  0.02913003  0.95103117  0.36136792  1  -0.049994  0  -0.012999  0.102351  0  4.083024  0
C  C153  1  0.47086942  0.04896872  0.86136849  1  -0.050021  0  -0.013006  0.102325  0  4.083041  0
C  C154  1  0.97086958  0.04896794  0.63863136  1  -0.04996  0  -0.012955  0.102341  0  4.082998  0
C  C155  1  0.52913172  0.95103206  0.13863271  1  -0.049994  0  -0.012988  0.102353  0  4.082977  0
C  C156  1  0.15552982  0.94672051  0.31060098  1  -0.00083  0  -0.094521  -0.113732  0  4.028841  0
C  C157  1  0.34447245  0.05327947  0.81060010  1  -0.000686  0  -0.094493  -0.113675  0  4.028822  0
C  C158  1  0.84446980  0.05327860  0.68939879  1  -0.000878  0  -0.094536  -0.113756  0  4.028971  0
C  C159  1  0.65553006  0.94672075  0.18940014  1  -0.000675  0  -0.094482  -0.113612  0  4.028808  0
C  C160  1  0.23694490  0.01158870  0.28544271  1  -0.077955  0  -0.151117  -0.274841  0  4.039729  0
C  C161  1  0.26305878  0.98841132  0.78544204  1  -0.077971  0  -0.15112  -0.27482  0  4.039615  0
C  C162  1  0.76305476  0.98841097  0.71455658  1  -0.077975  0  -0.151141  -0.274884  0  4.03979  0
C  C163  1  0.73694513  0.01158890  0.21455773  1  -0.07801  0  -0.151138  -0.274857  0  4.039616  0
C  C164  1  0.47786707  0.94857900  0.44998263  1  0.427618  0  -0.079623  -0.007829  0  3.911528  0
C  C165  1  0.02213378  0.05142073  0.94998271  1  0.427586  0  -0.079604  -0.007825  0  3.911576  0
C  C166  1  0.52213544  0.05142122  0.55001809  1  0.427673  0  -0.07961  -0.007844  0  3.911511  0
C  C167  1  0.97786720  0.94857782  0.05001801  1  0.427367  0  -0.079645  -0.007907  0  3.911544  0
C  C168  1  0.42904849  0.07026044  0.48717057  1  0.384135  0  -0.087097  -0.022157  0  3.929428  0
C  C169  1  0.07095235  0.92973923  0.98717046  1  0.384144  0  -0.087068  -0.022126  0  3.929382  0
C  C170  1  0.57095398  0.92973922  0.51282968  1  0.384133  0  -0.087086  -0.022257  0  3.929433  0
C  C171  1  0.92904727  0.07025989  0.01283027  1  0.384136  0  -0.087138  -0.022209  0  3.929404  0
C  C172  1  0.63853868  0.44619254  0.50365524  1  0.37963  0  -0.082617  -0.015565  0  3.908204  0
C  C173  1  0.86145848  0.55380826  0.00365472  1  0.379639  0  -0.082603  -0.015521  0  3.908157  0
C  C174  1  0.36145969  0.55380879  0.49634452  1  0.379664  0  -0.082575  -0.015341  0  3.908004  0
C  C175  1  0.13853701  0.44619197  0.99634457  1  0.379623  0  -0.082587  -0.015414  0  3.908086  0
C  C176  1  0.51695909  0.54801570  0.44738194  1  0.389656  0  -0.080519  -0.008862  0  3.907881  0
C  C177  1  0.98304088  0.45198541  0.94738246  1  0.389623  0  -0.080511  -0.008856  0  3.907825  0
C  C178  1  0.48304069  0.45198563  0.55261734  1  0.389629  0  -0.080539  -0.008838  0  3.907855  0
C  C179  1  0.01695886  0.54801537  0.05261779  1  0.389675  0  -0.080485  -0.008787  0  3.907784  0
Cl  Cl180  1  0.45174543  0.25952288  0.61918410  1  -0.244662  0  -0.034815  -0.116528  0  1.541978  0
Cl  Cl181  1  0.04825259  0.74047633  0.11918429  1  -0.244645  0  -0.034803  -0.116517  0  1.542023  0
Cl  Cl182  1  0.54825423  0.74047679  0.38081566  1  -0.24466  0  -0.034839  -0.116568  0  1.541959  0
Cl  Cl183  1  0.95174984  0.25952277  0.88081595  1  -0.244634  0  -0.034819  -0.116516  0  1.541957  0
Cl  Cl184  1  0.97090551  0.63824156  0.38083054  1  -0.242904  0  -0.021234  -0.109759  0  1.563836  0
Cl  Cl185  1  0.52909306  0.36175968  0.88083022  1  -0.242865  0  -0.02128  -0.109823  0  1.563808  0
Cl  Cl186  1  0.02909418  0.36175866  0.61917018  1  -0.242891  0  -0.021247  -0.109779  0  1.563826  0
Cl  Cl187  1  0.47090395  0.63824222  0.11917002  1  -0.242905  0  -0.021269  -0.109802  0  1.563794  0
Cl  Cl188  1  0.92289808  0.87019424  0.39161311  1  -0.249915  0  -0.013217  -0.105094  0  1.594251  0
Cl  Cl189  1  0.57710177  0.12980531  0.89161357  1  -0.24991  0  -0.013223  -0.105107  0  1.594262  0
Cl  Cl190  1  0.07710294  0.12980487  0.60838666  1  -0.249886  0  -0.013229  -0.105101  0  1.594234  0
Cl  Cl191  1  0.42289788  0.87019436  0.10838763  1  -0.24989  0  -0.01324  -0.105122  0  1.594211  0
O  O192  1  0.70362949  0.25138049  0.35040933  1  -1.240931  0  -0.640778  -0.791658  0  2.272283  0
O  O193  1  0.79637033  0.74861857  0.85040898  1  -1.24089  0  -0.640784  -0.791682  0  2.272307  0
O  O194  1  0.29637012  0.74861862  0.64959043  1  -1.240936  0  -0.640782  -0.79172  0  2.272298  0
O  O195  1  0.20362512  0.25138110  0.14959126  1  -1.240989  0  -0.640794  -0.79168  0  2.27239  0
O  O196  1  0.28229315  0.35820937  0.28576503  1  -1.249403  0  -0.60827  -0.7666  0  2.252456  0
O  O197  1  0.21770777  0.64179121  0.78576529  1  -1.249451  0  -0.608332  -0.766665  0  2.252545  0
O  O198  1  0.71770792  0.64179030  0.71423522  1  -1.249388  0  -0.60832  -0.766659  0  2.252495  0
O  O199  1  0.78229197  0.35820957  0.21423495  1  -1.249394  0  -0.608384  -0.766763  0  2.252431  0
O  O200  1  0.26867007  0.14447206  0.28441285  1  -1.246876  0  -0.619542  -0.770502  0  2.2398  0
O  O201  1  0.23133216  0.85552741  0.78441236  1  -1.246846  0  -0.619551  -0.770508  0  2.239713  0
O  O202  1  0.73132958  0.85552761  0.71558692  1  -1.246858  0  -0.619523  -0.770475  0  2.239783  0
O  O203  1  0.76867030  0.14447225  0.21558741  1  -1.246936  0  -0.619545  -0.770509  0  2.239781  0
O  O204  1  0.50501857  0.02652721  0.43610021  1  -1.0692  0  -0.318023  -0.289931  0  2.503313  0
O  O205  1  0.99498268  0.97347226  0.93610052  1  -1.069149  0  -0.318018  -0.289959  0  2.503384  0
O  O206  1  0.49498530  0.97347245  0.56390051  1  -1.069206  0  -0.318047  -0.289906  0  2.50329  0
O  O207  1  0.00501834  0.02652685  0.06390068  1  -1.069211  0  -0.318017  -0.289921  0  2.503342  0
O  O208  1  0.57656748  0.47226108  0.44225082  1  -1.053363  0  -0.318973  -0.292046  0  2.50399  0
O  O209  1  0.92343108  0.52774005  0.94225076  1  -1.05335  0  -0.319001  -0.292118  0  2.50398  0
O  O210  1  0.42343230  0.52774026  0.55774894  1  -1.053338  0  -0.318968  -0.292089  0  2.503955  0
O  O211  1  0.07656866  0.47226073  0.05774901  1  -1.053366  0  -0.318979  -0.292098  0  2.503974  0
