# generated using pymatgen
data_MgH26C30N2(O5F)2
_symmetry_space_group_name_H-M   'P 1'
_cell_length_a   5.19214777
_cell_length_b   6.23161090
_cell_length_c   21.61830784
_cell_angle_alpha   85.10013402
_cell_angle_beta   93.53043797
_cell_angle_gamma   97.98917837
_symmetry_Int_Tables_number   1
_chemical_formula_structural   MgH26C30N2(O5F)2
_chemical_formula_sum   'Mg1 H26 C30 N2 O10 F2'
_cell_volume   689.27337801
_cell_formula_units_Z   1
loop_
 _symmetry_equiv_pos_site_id
 _symmetry_equiv_pos_as_xyz
  1  'x, y, z'
loop_
 _atom_site_type_symbol
 _atom_site_label
 _atom_site_symmetry_multiplicity
 _atom_site_fract_x
 _atom_site_fract_y
 _atom_site_fract_z
 _atom_site_occupancy
 _atom_site_hle17_bader_spin_density
 _atom_site_hle17_ddec_charge
 _atom_site_hle17_ddec_spin_density
 _atom_site_hle17_ddec_sum_bond_order
 _atom_site_hle17_magmom
 _atom_site_hse06_10hf_bader_spin_density
 _atom_site_hse06_10hf_ddec_charge
 _atom_site_hse06_10hf_ddec_spin_density
 _atom_site_hse06_10hf_ddec_sum_bond_order
 _atom_site_hse06_10hf_magmom
 _atom_site_hse06_bader_spin_density
 _atom_site_hse06_ddec_charge
 _atom_site_hse06_ddec_spin_density
 _atom_site_hse06_ddec_sum_bond_order
 _atom_site_hse06_magmom
 _atom_site_pbe_bader_spin_density
 _atom_site_pbe_cm5_charge
 _atom_site_pbe_ddec_charge
 _atom_site_pbe_ddec_spin_density
 _atom_site_pbe_ddec_sum_bond_order
 _atom_site_pbe_magmom
Mg  Mg0  1  0.45369759  0.84465686  0.66296478  1  0  1.54376  0  1.048498  0  0  1.432744  0  1.30264  0  0  1.458098  0  1.263194  0  0  0.801331  1.41461  0  1.330369  0
H  H1  1  0.08816371  0.72437566  0.55440644  1  0  0.398274  0  0.879369  0  0  0.370248  0  0.947098  0  0  0.383289  0  0.934304  0  0  0.314564  0.36111  0  0.955954  0
H  H2  1  0.68141462  0.43273647  0.69604046  1  0  0.41969  0  0.88545  0  0  0.382296  0  0.964936  0  0  0.396646  0  0.945352  0  0  0.309206  0.372364  0  0.978235  0
H  H3  1  0.73967482  0.80993669  0.57644029  1  0  0.366656  0  0.963848  0  0  0.338607  0  1.027469  0  0  0.346485  0  1.015646  0  0  0.252858  0.333179  0  1.035518  0
H  H4  1  0.87660616  0.85387731  0.72856206  1  0  0.434801  0  0.854017  0  0  0.402409  0  0.923817  0  0  0.413036  0  0.90805  0  0  0.305408  0.394856  0  0.935021  0
H  H5  1  0.78329178  0.07153390  0.74246367  1  0  0.444199  0  0.843035  0  0  0.408357  0  0.913803  0  0  0.419452  0  0.897329  0  0  0.306247  0.400494  0  0.925484  0
H  H6  1  0.80163449  0.33663897  0.24903015  1  0  0.124244  0  0.940468  0  0  0.132789  0  1.001163  0  0  0.136159  0  0.999792  0  0  0.107291  0.130384  0  1.002216  0
H  H7  1  0.51501576  0.34671749  0.33706060  1  0  0.093143  0  0.95934  0  0  0.104175  0  1.019801  0  0  0.106696  0  1.019104  0  0  0.101759  0.102342  0  1.020374  0
H  H8  1  0.84793737  0.00898980  0.36013037  1  0  0.09477  0  0.95449  0  0  0.109376  0  1.010683  0  0  0.111246  0  1.010803  0  0  0.104667  0.108047  0  1.010607  0
H  H9  1  0.13306204  0.99898406  0.27118645  1  0  0.126179  0  0.943561  0  0  0.133124  0  1.005634  0  0  0.137069  0  1.003054  0  0  0.106096  0.130335  0  1.007476  0
H  H10  1  0.29946190  0.74201416  0.38926290  1  0  0.080683  0  0.943876  0  0  0.094598  0  1.011097  0  0  0.094491  0  1.012627  0  0  0.107982  0.09453  0  1.010259  0
H  H11  1  0.57685332  0.80717689  0.43938195  1  0  0.102474  0  0.946681  0  0  0.112708  0  1.012711  0  0  0.114631  0  1.010501  0  0  0.115231  0.11117  0  1.014499  0
H  H12  1  0.06264295  0.38657816  0.39233917  1  0  0.086637  0  0.983739  0  0  0.093055  0  1.057026  0  0  0.094948  0  1.056785  0  0  0.110473  0.091754  0  1.057004  0
H  H13  1  0.07918381  0.99357290  0.45950090  1  0  0.125989  0  0.983362  0  0  0.132072  0  1.046454  0  0  0.136028  0  1.044568  0  0  0.104224  0.129222  0  1.047977  0
H  H14  1  0.52874313  0.04377387  0.53301042  1  0  0.137999  0  1.004495  0  0  0.14245  0  1.067141  0  0  0.147769  0  1.062606  0  0  0.110649  0.138441  0  1.070495  0
H  H15  1  0.89372912  0.17459687  0.57473654  1  0  0.195036  0  0.987495  0  0  0.197393  0  1.045135  0  0  0.203871  0  1.041949  0  0  0.11526  0.192668  0  1.047496  0
H  H16  1  0.34491563  0.12969566  0.83566443  1  0  0.374923  0  0.906811  0  0  0.350428  0  0.973406  0  0  0.36302  0  0.961283  0  0  0.303307  0.341633  0  0.981747  0
H  H17  1  0.64447240  0.52649515  0.13780479  1  0  0.12397  0  0.940646  0  0  0.132232  0  1.001836  0  0  0.13551  0  1.000553  0  0  0.106933  0.129913  0  1.002796  0
H  H18  1  0.93586394  0.52841195  0.04998340  1  0  0.093084  0  0.957859  0  0  0.103419  0  1.019541  0  0  0.106056  0  1.018622  0  0  0.101174  0.101595  0  1.020145  0
H  H19  1  0.61119916  0.86900896  0.02065872  1  0  0.096419  0  0.952465  0  0  0.111532  0  1.007315  0  0  0.113487  0  1.00736  0  0  0.105005  0.110115  0  1.007332  0
H  H20  1  0.32171042  0.86620362  0.10974286  1  0  0.125171  0  0.942517  0  0  0.133116  0  1.00362  0  0  0.136952  0  1.001207  0  0  0.106622  0.130403  0  1.005362  0
H  H21  1  0.16316999  0.15148179  0.99550093  1  0  0.080291  0  0.943565  0  0  0.093943  0  1.011462  0  0  0.093914  0  1.012884  0  0  0.107349  0.093889  0  1.010606  0
H  H22  1  0.88932468  0.07234543  0.94542025  1  0  0.101326  0  0.957591  0  0  0.111473  0  1.024361  0  0  0.113374  0  1.022372  0  0  0.114011  0.109966  0  1.026002  0
H  H23  1  0.38104995  0.51226265  0.99030952  1  0  0.089506  0  0.974103  0  0  0.096286  0  1.04626  0  0  0.098249  0  1.045868  0  0  0.111763  0.094971  0  1.046304  0
H  H24  1  0.33742370  0.90014747  0.92341647  1  0  0.121308  0  0.999032  0  0  0.127859  0  1.062346  0  0  0.131584  0  1.060645  0  0  0.103721  0.125207  0  1.063666  0
H  H25  1  0.89011109  0.83513386  0.85228521  1  0  0.132233  0  0.959931  0  0  0.139246  0  1.02379  0  0  0.143094  0  1.020533  0  0  0.110383  0.13641  0  1.026206  0
H  H26  1  0.51762834  0.67397099  0.81233198  1  0  0.151263  0  0.968583  0  0  0.157689  0  1.032112  0  0  0.162523  0  1.030107  0  0  0.112268  0.154305  0  1.033575  0
C  C27  1  0.97915375  0.66779705  0.25632027  1  0  0.304415  0  3.80317  0  0  0.290918  0  4.085829  0  0  0.300681  0  4.097928  0  0  0.09168  0.284024  0  4.07783  0
C  C28  1  0.80907443  0.48285203  0.27368242  1  0  -0.191997  0  3.778065  0  0  -0.218096  0  4.039474  0  0  -0.222316  0  4.058035  0  0  -0.103508  -0.215254  0  4.026945  0
C  C29  1  0.64940097  0.49068569  0.32288112  1  0  -0.094328  0  3.753326  0  0  -0.115244  0  4.006442  0  0  -0.116371  0  4.026903  0  0  -0.091616  -0.114373  0  3.992566  0
C  C30  1  0.66023326  0.67929395  0.35442628  1  0  0.064911  0  3.732271  0  0  0.078136  0  3.980095  0  0  0.076843  0  4.004359  0  0  -0.014336  0.078987  0  3.963609  0
C  C31  1  0.83465289  0.86197500  0.33548822  1  0  -0.092867  0  3.74212  0  0  -0.109639  0  3.988119  0  0  -0.111106  0  4.009501  0  0  -0.087008  -0.108562  0  3.973508  0
C  C32  1  0.99551744  0.85854850  0.28617155  1  0  -0.1904  0  3.770507  0  0  -0.21527  0  4.028219  0  0  -0.219534  0  4.046954  0  0  -0.102715  -0.212369  0  4.0156  0
C  C33  1  0.48517195  0.68939951  0.40733506  1  0  -0.047424  0  3.651214  0  0  -0.116444  0  3.904705  0  0  -0.11161  0  3.913753  0  0  -0.052111  -0.119627  0  3.89884  0
C  C34  1  0.20999614  0.33473832  0.42601583  1  0  0.016067  0  3.677506  0  0  -0.032301  0  3.948408  0  0  -0.02421  0  3.963376  0  0  0.01296  -0.03741  0  3.937789  0
C  C35  1  0.22518903  0.13579686  0.45988901  1  0  -0.173937  0  3.791382  0  0  -0.191809  0  4.065751  0  0  -0.200177  0  4.086495  0  0  -0.122068  -0.186404  0  4.051724  0
C  C36  1  0.45629605  0.15930799  0.49731860  1  0  -0.11922  0  3.683283  0  0  -0.150242  0  3.946805  0  0  -0.147265  0  3.964915  0  0  -0.097221  -0.151813  0  3.934658  0
C  C37  1  0.57889305  0.37365064  0.48596552  1  0  0.004886  0  3.724163  0  0  -0.004425  0  3.980446  0  0  -0.012824  0  4.005449  0  0  0.065782  0.000504  0  3.963611  0
C  C38  1  0.80830396  0.47747350  0.51768120  1  0  0.395917  0  3.778046  0  0  0.375605  0  4.04835  0  0  0.404217  0  4.047953  0  0  0.132211  0.356732  0  4.047994  0
C  C39  1  0.95199808  0.35116009  0.56360668  1  0  -0.299243  0  3.608685  0  0  -0.333713  0  3.871966  0  0  -0.347932  0  3.888626  0  0  -0.112262  -0.324438  0  3.861137  0
C  C40  1  0.15738296  0.45702363  0.59621471  1  0  0.228318  0  3.727139  0  0  0.212734  0  4.001834  0  0  0.223434  0  4.013484  0  0  0.095844  0.205059  0  3.994287  0
C  C41  1  0.33944128  0.34590832  0.64050404  1  0  0.657076  0  3.787736  0  0  0.602596  0  4.082705  0  0  0.635551  0  4.071609  0  0  0.25288  0.580119  0  4.09013  0
C  C42  1  0.47133316  0.19580912  0.12754176  1  0  0.304099  0  3.801024  0  0  0.290321  0  4.08379  0  0  0.299997  0  4.096078  0  0  0.091156  0.283504  0  4.075604  0
C  C43  1  0.63978307  0.38356894  0.11184478  1  0  -0.191674  0  3.777661  0  0  -0.217284  0  4.038899  0  0  -0.221632  0  4.057794  0  0  -0.103534  -0.214363  0  4.026199  0
C  C44  1  0.80185834  0.38252931  0.06272339  1  0  -0.093352  0  3.751891  0  0  -0.114013  0  4.006086  0  0  -0.115  0  4.026402  0  0  -0.091047  -0.113315  0  3.992327  0
C  C45  1  0.79470347  0.19797267  0.02958488  1  0  0.066332  0  3.733222  0  0  0.079074  0  3.981726  0  0  0.077797  0  4.005973  0  0  -0.014544  0.079902  0  3.965311  0
C  C46  1  0.62139043  0.01246553  0.04674511  1  0  -0.092644  0  3.744453  0  0  -0.109495  0  3.990186  0  0  -0.110903  0  4.011487  0  0  -0.086936  -0.10846  0  3.975649  0
C  C47  1  0.45841951  0.00889379  0.09604087  1  0  -0.191068  0  3.775847  0  0  -0.216099  0  4.032956  0  0  -0.220502  0  4.051932  0  0  -0.102587  -0.213093  0  4.020133  0
C  C48  1  0.97327352  0.19421655  0.97699309  1  0  -0.050529  0  3.652584  0  0  -0.119689  0  3.905756  0  0  -0.114983  0  3.9148  0  0  -0.05353  -0.122832  0  3.899917  0
C  C49  1  0.22876810  0.55679605  0.95690940  1  0  0.002631  0  3.685911  0  0  -0.042906  0  3.95449  0  0  -0.036158  0  3.970795  0  0  0.007713  -0.047125  0  3.942989  0
C  C50  1  0.19975783  0.75275705  0.92296060  1  0  -0.172924  0  3.8046  0  0  -0.191718  0  4.076499  0  0  -0.199374  0  4.097927  0  0  -0.123825  -0.1867  0  4.061893  0
C  C51  1  0.96740761  0.71850917  0.88610263  1  0  -0.125893  0  3.705546  0  0  -0.157621  0  3.971135  0  0  -0.155339  0  3.989974  0  0  -0.099811  -0.15872  0  3.95825  0
C  C52  1  0.85834988  0.50060372  0.89789550  1  0  0.004418  0  3.72553  0  0  -0.003651  0  3.9799  0  0  -0.010667  0  4.004067  0  0  0.065454  0.000522  0  3.963422  0
C  C53  1  0.63217136  0.38348883  0.86758808  1  0  0.402192  0  3.808464  0  0  0.380094  0  4.083267  0  0  0.408343  0  4.083698  0  0  0.128506  0.361511  0  4.082128  0
C  C54  1  0.47300805  0.50000133  0.82326885  1  0  -0.326627  0  3.706324  0  0  -0.36476  0  3.97723  0  0  -0.381558  0  3.995976  0  0  -0.124478  -0.353645  0  3.964403  0
C  C55  1  0.26267702  0.38716118  0.79349053  1  0  0.233395  0  3.748884  0  0  0.219719  0  4.026093  0  0  0.233553  0  4.036207  0  0  0.094789  0.210416  0  4.018845  0
C  C56  1  0.08186903  0.49553843  0.74750191  1  0  0.635453  0  3.847416  0  0  0.577127  0  4.151013  0  0  0.609313  0  4.141374  0  0  0.233279  0.555443  0  4.15677  0
N  N57  1  0.42148605  0.47896640  0.44172978  1  0  -0.067315  0  3.52816  0  0  0.025115  0  3.741214  0  0  0.012165  0  3.769051  0  0  -0.245682  0.033755  0  3.722535  0
N  N58  1  0.02433806  0.40465076  0.94183913  1  0  -0.062843  0  3.536113  0  0  0.030826  0  3.744833  0  0  0.017736  0  3.773288  0  0  -0.244344  0.039549  0  3.72577  0
O  O59  1  0.88473079  0.68212026  0.50608209  1  0  -0.529972  0  2.011642  0  0  -0.463574  0  2.217355  0  0  -0.484937  0  2.209627  0  0  -0.285443  -0.44909  0  2.222281  0
O  O60  1  0.21999927  0.67505905  0.59024708  1  0  -0.565126  0  2.247236  0  0  -0.501006  0  2.47122  0  0  -0.52271  0  2.461932  0  0  -0.338632  -0.485963  0  2.477493  0
O  O61  1  0.32369082  0.14609519  0.65054698  1  0  -0.598187  0  1.995524  0  0  -0.539581  0  2.226005  0  0  -0.558309  0  2.212938  0  0  -0.29402  -0.527205  0  2.235063  0
O  O62  1  0.51627786  0.48901872  0.66617242  1  0  -0.635232  0  2.219757  0  0  -0.568803  0  2.452042  0  0  -0.593133  0  2.435391  0  0  -0.315083  -0.552413  0  2.463334  0
O  O63  1  0.73076202  0.91489669  0.60650245  1  0  -1.111642  0  1.655386  0  0  -1.054067  0  1.852273  0  0  -1.078976  0  1.828129  0  0  -0.70899  -1.03393  0  1.867806  0
O  O64  1  0.71935967  0.91638146  0.73806043  1  0  -0.882324  0  1.837593  0  0  -0.827756  0  2.026682  0  0  -0.844551  0  1.992057  0  0  -0.598319  -0.815859  0  2.050945  0
O  O65  1  0.57513374  0.17743312  0.87895517  1  0  -0.523916  0  1.981258  0  0  -0.46439  0  2.190439  0  0  -0.484989  0  2.182965  0  0  -0.288298  -0.450203  0  2.195157  0
O  O66  1  0.19981624  0.17280481  0.80321978  1  0  -0.454792  0  2.124422  0  0  -0.403534  0  2.336052  0  0  -0.425432  0  2.329836  0  0  -0.318497  -0.388254  0  2.339877  0
O  O67  1  0.14492116  0.68915008  0.72522410  1  0  -0.671582  0  2.004864  0  0  -0.611788  0  2.24119  0  0  -0.633155  0  2.228119  0  0  -0.309584  -0.597007  0  2.249862  0
O  O68  1  0.86891178  0.37342627  0.73443888  1  0  -0.579042  0  2.095065  0  0  -0.510855  0  2.315547  0  0  -0.53687  0  2.304937  0  0  -0.285162  -0.49303  0  2.322483  0
F  F69  1  0.13656756  0.66125061  0.20817063  1  0  -0.223914  0  1.185372  0  0  -0.168425  0  1.336836  0  0  -0.177672  0  1.327587  0  0  -0.106967  -0.161689  0  1.34307  0
F  F70  1  0.31197882  0.19594021  0.17567418  1  0  -0.224121  0  1.186626  0  0  -0.167694  0  1.338518  0  0  -0.177113  0  1.329247  0  0  -0.105885  -0.160795  0  1.344741  0
