# generated using pymatgen
data_ZnH12C18N11O6
_symmetry_space_group_name_H-M   'P 1'
_cell_length_a   9.02382155
_cell_length_b   12.42876030
_cell_length_c   12.64545357
_cell_angle_alpha   111.21905283
_cell_angle_beta   107.01100575
_cell_angle_gamma   100.97416839
_symmetry_Int_Tables_number   1
_chemical_formula_structural   ZnH12C18N11O6
_chemical_formula_sum   'Zn2 H24 C36 N22 O12'
_cell_volume   1192.39393867
_cell_formula_units_Z   2
loop_
 _symmetry_equiv_pos_site_id
 _symmetry_equiv_pos_as_xyz
  1  'x, y, z'
loop_
 _atom_site_type_symbol
 _atom_site_label
 _atom_site_symmetry_multiplicity
 _atom_site_fract_x
 _atom_site_fract_y
 _atom_site_fract_z
 _atom_site_occupancy
 _atom_site_hle17_bader_spin_density
 _atom_site_hle17_ddec_charge
 _atom_site_hle17_ddec_spin_density
 _atom_site_hle17_ddec_sum_bond_order
 _atom_site_hle17_magmom
 _atom_site_hse06_10hf_bader_spin_density
 _atom_site_hse06_10hf_ddec_charge
 _atom_site_hse06_10hf_ddec_spin_density
 _atom_site_hse06_10hf_ddec_sum_bond_order
 _atom_site_hse06_10hf_magmom
 _atom_site_hse06_bader_spin_density
 _atom_site_hse06_ddec_charge
 _atom_site_hse06_ddec_spin_density
 _atom_site_hse06_ddec_sum_bond_order
 _atom_site_hse06_magmom
 _atom_site_pbe_bader_spin_density
 _atom_site_pbe_cm5_charge
 _atom_site_pbe_ddec_charge
 _atom_site_pbe_ddec_spin_density
 _atom_site_pbe_ddec_sum_bond_order
 _atom_site_pbe_magmom
Zn  Zn0  1  0.73223842  0.17943998  0.83918646  1  0  0.918923  0  1.847812  0  0  0.717058  0  2.287863  0  0  0.7694  0  2.239363  0  0  0.674063  0.680421  0  2.320911  0
Zn  Zn1  1  0.26776148  0.82056060  0.16081285  1  0  0.918932  0  1.847795  0  0  0.717082  0  2.287836  0  0  0.769419  0  2.239339  0  0  0.674047  0.680445  0  2.320887  0
H  H2  1  0.45109592  0.15253437  0.60460699  1  0  0.083606  0  0.959849  0  0  0.085784  0  1.035023  0  0  0.088118  0  1.032525  0  0  0.119962  0.084  0  1.036882  0
H  H3  1  0.54890928  0.84746253  0.39539136  1  0  0.083563  0  0.95987  0  0  0.085733  0  1.035057  0  0  0.088066  0  1.032561  0  0  0.119946  0.08395  0  1.036915  0
H  H4  1  0.60568007  0.47166643  0.55104690  1  0  0.098756  0  0.96095  0  0  0.102059  0  1.033579  0  0  0.105398  0  1.029923  0  0  0.109414  0.099585  0  1.036286  0
H  H5  1  0.39431859  0.52833141  0.44895277  1  0  0.098799  0  0.960839  0  0  0.10207  0  1.033505  0  0  0.105406  0  1.029853  0  0  0.109418  0.099596  0  1.036212  0
H  H6  1  0.85798499  0.55173047  0.74672907  1  0  0.111222  0  0.956598  0  0  0.114205  0  1.024205  0  0  0.118028  0  1.022259  0  0  0.107091  0.111409  0  1.025842  0
H  H7  1  0.14200993  0.44827196  0.25327300  1  0  0.111258  0  0.956557  0  0  0.114229  0  1.024187  0  0  0.118054  0  1.022238  0  0  0.107094  0.111433  0  1.025824  0
H  H8  1  0.88982442  0.42828579  0.86253321  1  0  0.085542  0  0.946921  0  0  0.088385  0  1.02151  0  0  0.091456  0  1.018007  0  0  0.115201  0.086053  0  1.024213  0
H  H9  1  0.11017015  0.57171848  0.13747181  1  0  0.085509  0  0.946872  0  0  0.088401  0  1.021414  0  0  0.091472  0  1.017911  0  0  0.115182  0.08607  0  1.024117  0
H  H10  1  0.00965991  0.20783771  0.06347501  1  0  0.08724  0  0.957128  0  0  0.089041  0  1.035273  0  0  0.092228  0  1.031412  0  0  0.119608  0.08669  0  1.038042  0
H  H11  1  0.99033420  0.79216289  0.93652387  1  0  0.087206  0  0.957215  0  0  0.089008  0  1.035361  0  0  0.092195  0  1.031502  0  0  0.119614  0.086658  0  1.038128  0
H  H12  1  0.82703110  0.95770027  0.19552702  1  0  0.110675  0  0.95133  0  0  0.11431  0  1.023841  0  0  0.117512  0  1.021039  0  0  0.113198  0.111942  0  1.025876  0
H  H13  1  0.17296608  0.04229940  0.80447061  1  0  0.110656  0  0.951384  0  0  0.114293  0  1.023939  0  0  0.117495  0  1.021137  0  0  0.113193  0.111925  0  1.025974  0
H  H14  1  0.57934545  0.85043199  0.99391212  1  0  0.132472  0  0.950754  0  0  0.141892  0  1.006753  0  0  0.14564  0  1.005051  0  0  0.114983  0.13914  0  1.008195  0
H  H15  1  0.42064909  0.14956951  0.00608480  1  0  0.132451  0  0.950759  0  0  0.141862  0  1.006774  0  0  0.145604  0  1.005074  0  0  0.114993  0.13911  0  1.008216  0
H  H16  1  0.55433890  0.93694675  0.84285351  1  0  0.084478  0  0.942974  0  0  0.092767  0  1.004011  0  0  0.094457  0  1.003026  0  0  0.121687  0.09135  0  1.004918  0
H  H17  1  0.44565679  0.06305476  0.15714445  1  0  0.084477  0  0.94306  0  0  0.092775  0  1.004079  0  0  0.094463  0  1.003098  0  0  0.121679  0.091378  0  1.004961  0
H  H18  1  0.89350517  0.67980932  0.03210289  1  0  0.092741  0  0.955242  0  0  0.096275  0  1.028781  0  0  0.099889  0  1.024302  0  0  0.120466  0.093607  0  1.032033  0
H  H19  1  0.10650132  0.32019309  0.96790163  1  0  0.09279  0  0.955273  0  0  0.096297  0  1.028827  0  0  0.099911  0  1.02435  0  0  0.120465  0.093631  0  1.032073  0
H  H20  1  0.71933522  0.72428367  0.32246458  1  0  0.095425  0  0.983276  0  0  0.09557  0  1.063756  0  0  0.098636  0  1.060679  0  0  0.107724  0.093357  0  1.065904  0
H  H21  1  0.28067047  0.27571690  0.67753754  1  0  0.095421  0  0.983257  0  0  0.095566  0  1.063748  0  0  0.098633  0  1.060671  0  0  0.107743  0.093354  0  1.065897  0
H  H22  1  0.99211147  0.88712477  0.47153694  1  0  0.116906  0  0.960526  0  0  0.120029  0  1.028694  0  0  0.123332  0  1.027488  0  0  0.11199  0.117685  0  1.029683  0
H  H23  1  0.00789006  0.11287948  0.52846717  1  0  0.116929  0  0.960614  0  0  0.120057  0  1.028761  0  0  0.12336  0  1.027554  0  0  0.112019  0.117713  0  1.02975  0
H  H24  1  0.20507374  0.93370519  0.39085389  1  0  0.088476  0  0.953763  0  0  0.093821  0  1.023289  0  0  0.096285  0  1.020716  0  0  0.11635  0.091942  0  1.02523  0
H  H25  1  0.79493043  0.06629723  0.60915094  1  0  0.088445  0  0.953861  0  0  0.093839  0  1.023314  0  0  0.096303  0  1.020736  0  0  0.116338  0.091961  0  1.025261  0
C  C26  1  0.08854647  0.15317412  0.25725393  1  0  0.270316  0  3.741169  0  0  0.257666  0  4.001798  0  0  0.26522  0  4.018477  0  0  0.249262  0.251906  0  3.991418  0
C  C27  1  0.91145031  0.84682464  0.74274171  1  0  0.270403  0  3.741108  0  0  0.257772  0  4.001714  0  0  0.265324  0  4.018399  0  0  0.249306  0.252033  0  3.991307  0
C  C28  1  0.35557635  0.25501703  0.45475254  1  0  0.28257  0  3.746125  0  0  0.268101  0  4.008342  0  0  0.276705  0  4.024288  0  0  0.254205  0.261799  0  3.998299  0
C  C29  1  0.64442347  0.74498080  0.54524579  1  0  0.282529  0  3.746116  0  0  0.268125  0  4.008276  0  0  0.27673  0  4.024221  0  0  0.254223  0.261823  0  3.998234  0
C  C30  1  0.53873260  0.24142056  0.63440592  1  0  0.127857  0  3.662178  0  0  0.082432  0  3.924577  0  0  0.090685  0  3.941127  0  0  0.061147  0.077075  0  3.913478  0
C  C31  1  0.46126837  0.75857728  0.36559424  1  0  0.127912  0  3.66216  0  0  0.082513  0  3.92459  0  0  0.090765  0  3.941141  0  0  0.061178  0.077156  0  3.913492  0
C  C32  1  0.50900145  0.30579953  0.56408923  1  0  -0.056325  0  3.772172  0  0  -0.039113  0  4.008559  0  0  -0.047698  0  4.033835  0  0  0.000367  -0.033611  0  3.991788  0
C  C33  1  0.49099837  0.69419831  0.43590990  1  0  -0.056238  0  3.772077  0  0  -0.039091  0  4.008515  0  0  -0.047672  0  4.033786  0  0  0.000365  -0.033588  0  3.991744  0
C  C34  1  0.62586206  0.41905360  0.60323550  1  0  0.001092  0  3.650828  0  0  -0.027638  0  3.893749  0  0  -0.023355  0  3.911739  0  0  -0.048515  -0.030124  0  3.881447  0
C  C35  1  0.37413428  0.58094425  0.39676446  1  0  0.000959  0  3.65071  0  0  -0.027727  0  3.893671  0  0  -0.023443  0  3.911659  0  0  -0.048563  -0.030214  0  3.881371  0
C  C36  1  0.76452891  0.46377023  0.71136241  1  0  -0.092466  0  3.694696  0  0  -0.102067  0  3.945054  0  0  -0.11019  0  3.966102  0  0  -0.071577  -0.096923  0  3.931105  0
C  C37  1  0.23546749  0.53623037  0.28864013  1  0  -0.092458  0  3.694577  0  0  -0.102052  0  3.944966  0  0  -0.110177  0  3.966014  0  0  -0.07157  -0.096906  0  3.931015  0
C  C38  1  0.78334977  0.39475393  0.77673120  1  0  0.159215  0  3.644574  0  0  0.119837  0  3.903673  0  0  0.128387  0  3.920782  0  0  0.05914  0.114224  0  3.892253  0
C  C39  1  0.21664786  0.60524941  0.22327335  1  0  0.159221  0  3.644496  0  0  0.119797  0  3.903633  0  0  0.128348  0  3.920742  0  0  0.059165  0.114183  0  3.892216  0
C  C40  1  0.91679865  0.12877562  0.05051172  1  0  0.113927  0  3.654509  0  0  0.070672  0  3.90744  0  0  0.077672  0  3.926556  0  0  0.053373  0.066245  0  3.894406  0
C  C41  1  0.08319738  0.87122406  0.94948487  1  0  0.113986  0  3.654405  0  0  0.070728  0  3.907354  0  0  0.077728  0  3.92647  0  0  0.053347  0.066301  0  3.894319  0
C  C42  1  0.94003760  0.08825297  0.14221557  1  0  -0.056314  0  3.760409  0  0  -0.036247  0  3.992299  0  0  -0.044969  0  4.01895  0  0  -0.002085  -0.030625  0  3.97462  0
C  C43  1  0.05995619  0.91174946  0.85778231  1  0  -0.056518  0  3.760479  0  0  -0.036455  0  3.992422  0  0  -0.045174  0  4.019074  0  0  -0.0021  -0.030836  0  3.974735  0
C  C44  1  0.81583703  0.98770866  0.12351006  1  0  -0.001897  0  3.64779  0  0  -0.034564  0  3.900904  0  0  -0.029625  0  3.918024  0  0  -0.050644  -0.037522  0  3.889248  0
C  C45  1  0.18415750  0.01229285  0.87648766  1  0  -0.001788  0  3.648015  0  0  -0.034498  0  3.90114  0  0  -0.029561  0  3.91826  0  0  -0.050623  -0.037459  0  3.889488  0
C  C46  1  0.67770433  0.92982119  0.01309224  1  0  -0.110159  0  3.690339  0  0  -0.119175  0  3.939496  0  0  -0.127642  0  3.960817  0  0  -0.074936  -0.113793  0  3.925255  0
C  C47  1  0.32228946  0.07018124  0.98690564  1  0  -0.110213  0  3.690446  0  0  -0.119212  0  3.939609  0  0  -0.127672  0  3.960928  0  0  -0.074998  -0.113834  0  3.925374  0
C  C48  1  0.66359726  0.97760414  0.92795847  1  0  0.146028  0  3.671139  0  0  0.108826  0  3.928716  0  0  0.11657  0  3.947741  0  0  0.053822  0.103928  0  3.915824  0
C  C49  1  0.33639802  0.02239645  0.07203908  1  0  0.146017  0  3.671154  0  0  0.108816  0  3.92871  0  0  0.11656  0  3.947735  0  0  0.053865  0.103904  0  3.91581  0
C  C50  1  0.63260968  0.59013694  0.07715738  1  0  0.272781  0  3.746149  0  0  0.260135  0  4.009819  0  0  0.266997  0  4.027152  0  0  0.248875  0.255176  0  3.998629  0
C  C51  1  0.36739764  0.40986730  0.92284796  1  0  0.272703  0  3.746148  0  0  0.260104  0  4.00978  0  0  0.266964  0  4.027118  0  0  0.24888  0.255146  0  3.998588  0
C  C52  1  0.91080815  0.72539617  0.12839382  1  0  0.108706  0  3.647033  0  0  0.068595  0  3.896445  0  0  0.075224  0  3.914703  0  0  0.055816  0.064484  0  3.883923  0
C  C53  1  0.08919951  0.27460623  0.87161015  1  0  0.10848  0  3.647141  0  0  0.068417  0  3.896534  0  0  0.075042  0  3.914802  0  0  0.055731  0.064307  0  3.884007  0
C  C54  1  0.78587888  0.69086728  0.16593603  1  0  -0.041092  0  3.750729  0  0  -0.021451  0  3.977736  0  0  -0.028757  0  4.003084  0  0  0.003625  -0.017034  0  3.961184  0
C  C55  1  0.21412720  0.30913421  0.83406887  1  0  -0.041094  0  3.750742  0  0  -0.021489  0  3.977778  0  0  -0.028788  0  4.003116  0  0  0.003633  -0.017075  0  3.961225  0
C  C56  1  0.81418707  0.75038456  0.29115789  1  0  0.004276  0  3.646871  0  0  -0.02509  0  3.892791  0  0  -0.020259  0  3.909328  0  0  -0.049011  -0.027891  0  3.881422  0
C  C57  1  0.18581744  0.24961601  0.70884557  1  0  0.004346  0  3.646937  0  0  -0.025038  0  3.892901  0  0  -0.020207  0  3.909443  0  0  -0.049029  -0.027839  0  3.88153  0
C  C58  1  0.96459718  0.84018647  0.37336709  1  0  -0.103707  0  3.698246  0  0  -0.112702  0  3.948732  0  0  -0.121008  0  3.970382  0  0  -0.073756  -0.107427  0  3.934194  0
C  C59  1  0.03540583  0.15981594  0.62663748  1  0  -0.103729  0  3.698373  0  0  -0.112706  0  3.948856  0  0  -0.121014  0  3.970507  0  0  -0.07374  -0.107431  0  3.934319  0
C  C60  1  0.08362727  0.86720444  0.32894855  1  0  0.148211  0  3.669046  0  0  0.109268  0  3.927647  0  0  0.117265  0  3.945737  0  0  0.05281  0.104201  0  3.915281  0
C  C61  1  0.91637574  0.13279797  0.67105602  1  0  0.148103  0  3.669306  0  0  0.10912  0  3.927928  0  0  0.117122  0  3.946014  0  0  0.052739  0.104047  0  3.915566  0
N  N62  1  0.34357919  0.29910780  0.37040986  1  0  -0.15427  0  2.930558  0  0  -0.13505  0  3.202708  0  0  -0.138923  0  3.212346  0  0  -0.143707  -0.132445  0  3.196511  0
N  N63  1  0.65641989  0.70089095  0.62958864  1  0  -0.154298  0  2.930611  0  0  -0.135093  0  3.20275  0  0  -0.138965  0  3.212386  0  0  -0.143723  -0.132488  0  3.196555  0
N  N64  1  0.20698265  0.24736996  0.26980889  1  0  -0.162054  0  2.942515  0  0  -0.143548  0  3.216997  0  0  -0.146306  0  3.227069  0  0  -0.146745  -0.141559  0  3.210547  0
N  N65  1  0.79301452  0.75262972  0.73019032  1  0  -0.162002  0  2.942468  0  0  -0.143505  0  3.216954  0  0  -0.146261  0  3.227026  0  0  -0.146724  -0.141523  0  3.210499  0
N  N66  1  0.09207014  0.12157288  0.34937410  1  0  -0.147788  0  2.95943  0  0  -0.128332  0  3.234437  0  0  -0.130938  0  3.244638  0  0  -0.140244  -0.126467  0  3.228012  0
N  N67  1  0.90793152  0.87842128  0.65062175  1  0  -0.147709  0  2.959321  0  0  -0.128256  0  3.234315  0  0  -0.130861  0  3.244516  0  0  -0.140212  -0.126396  0  3.227886  0
N  N68  1  0.22705086  0.17394456  0.44995087  1  0  -0.151824  0  2.970821  0  0  -0.127316  0  3.246536  0  0  -0.131564  0  3.257184  0  0  -0.137654  -0.124515  0  3.239793  0
N  N69  1  0.77294923  0.82604869  0.55004432  1  0  -0.151935  0  2.970763  0  0  -0.127445  0  3.246476  0  0  -0.131692  0  3.257122  0  0  -0.137729  -0.124643  0  3.239736  0
N  N70  1  0.45560329  0.98500604  0.66856959  1  0  0.67665  0  4.138326  0  0  0.716787  0  4.419353  0  0  0.745439  0  4.424272  0  0  0.089588  0.697357  0  4.415467  0
N  N71  1  0.54440119  0.01499177  0.33142656  1  0  0.676685  0  4.138366  0  0  0.716824  0  4.419387  0  0  0.745481  0  4.424306  0  0  0.089626  0.697391  0  4.415506  0
N  N72  1  0.77584276  0.36129872  0.06776705  1  0  0.687779  0  4.129987  0  0  0.727225  0  4.415073  0  0  0.755895  0  4.420743  0  0  0.095167  0.707816  0  4.410638  0
N  N73  1  0.22415979  0.63870003  0.93223297  1  0  0.687639  0  4.129879  0  0  0.727293  0  4.414713  0  0  0.755962  0  4.420382  0  0  0.095275  0.707885  0  4.410277  0
N  N74  1  0.67281930  0.28467453  0.73849894  1  0  -0.323156  0  3.281133  0  0  -0.241788  0  3.548798  0  0  -0.263254  0  3.568547  0  0  -0.318767  -0.22732  0  3.535309  0
N  N75  1  0.32717943  0.71532606  0.26150250  1  0  -0.323118  0  3.281117  0  0  -0.241754  0  3.548816  0  0  -0.263219  0  3.568566  0  0  -0.318757  -0.227286  0  3.535329  0
N  N76  1  0.77938930  0.07681619  0.94677379  1  0  -0.325838  0  3.276312  0  0  -0.246494  0  3.547686  0  0  -0.267047  0  3.567178  0  0  -0.319186  -0.232732  0  3.534347  0
N  N77  1  0.22060598  0.92318440  0.05322455  1  0  -0.325744  0  3.276137  0  0  -0.246401  0  3.547503  0  0  -0.266955  0  3.566999  0  0  -0.319167  -0.23264  0  3.53417  0
N  N78  1  0.61532064  0.53464620  0.95845033  1  0  -0.16167  0  2.950064  0  0  -0.146286  0  3.232125  0  0  -0.149581  0  3.242344  0  0  -0.149128  -0.143949  0  3.225511  0
N  N79  1  0.38468436  0.46535804  0.04155452  1  0  -0.161701  0  2.950364  0  0  -0.146341  0  3.232431  0  0  -0.149636  0  3.242652  0  0  -0.149204  -0.144006  0  3.225817  0
N  N80  1  0.52010418  0.55729766  0.12046134  1  0  -0.137307  0  2.945489  0  0  -0.12232  0  3.227227  0  0  -0.124703  0  3.237484  0  0  -0.141853  -0.120671  0  3.220609  0
N  N81  1  0.47989612  0.44270384  0.87954075  1  0  -0.137339  0  2.945299  0  0  -0.122378  0  3.227039  0  0  -0.124763  0  3.237295  0  0  -0.141934  -0.120729  0  3.220422  0
N  N82  1  0.05734818  0.81126204  0.20844455  1  0  -0.335108  0  3.288967  0  0  -0.254407  0  3.561361  0  0  -0.275466  0  3.580983  0  0  -0.328593  -0.240087  0  3.547585  0
N  N83  1  0.94265326  0.18873946  0.79155937  1  0  -0.334816  0  3.289013  0  0  -0.254103  0  3.561357  0  0  -0.275166  0  3.580987  0  0  -0.328475  -0.239786  0  3.547581  0
O  O84  1  0.58760452  0.97877987  0.65213866  1  0  -0.486303  0  1.777829  0  0  -0.476102  0  2.006204  0  0  -0.494233  0  2.001005  0  0  -0.196592  -0.463012  0  2.009333  0
O  O85  1  0.41240067  0.02122708  0.34785058  1  0  -0.48622  0  1.777959  0  0  -0.476006  0  2.006326  0  0  -0.494119  0  2.001086  0  0  -0.196529  -0.462915  0  2.009454  0
O  O86  1  0.47076612  0.08053542  0.76385548  1  0  -0.481975  0  1.8146  0  0  -0.45518  0  2.050156  0  0  -0.475715  0  2.04212  0  0  -0.196791  -0.440492  0  2.055085  0
O  O87  1  0.52923585  0.91945692  0.23614374  1  0  -0.482116  0  1.814604  0  0  -0.455333  0  2.050171  0  0  -0.47587  0  2.042132  0  0  -0.196904  -0.440646  0  2.055106  0
O  O88  1  0.31994054  0.90517048  0.59889772  1  0  -0.393052  0  1.71331  0  0  -0.396866  0  1.902989  0  0  -0.407226  0  1.897522  0  0  -0.164965  -0.389314  0  1.906557  0
O  O89  1  0.68006500  0.09482459  0.40110006  1  0  -0.393051  0  1.713266  0  0  -0.39687  0  1.90295  0  0  -0.407229  0  1.897468  0  0  -0.164954  -0.389319  0  1.90652  0
O  O90  1  0.87268140  0.34304478  0.00820385  1  0  -0.523684  0  1.843186  0  0  -0.488887  0  2.086583  0  0  -0.511525  0  2.078274  0  0  -0.213854  -0.472741  0  2.091702  0
O  O91  1  0.12731809  0.65695489  0.99179506  1  0  -0.523675  0  1.843012  0  0  -0.488948  0  2.086351  0  0  -0.511582  0  2.078039  0  0  -0.213903  -0.472802  0  2.091471  0
O  O92  1  0.62869798  0.29060874  0.01254789  1  0  -0.45374  0  1.756191  0  0  -0.447808  0  1.965831  0  0  -0.462592  0  1.959728  0  0  -0.187872  -0.437318  0  1.969848  0
O  O93  1  0.37130382  0.70939092  0.98745150  1  0  -0.453677  0  1.756228  0  0  -0.447837  0  1.965829  0  0  -0.462623  0  1.959729  0  0  -0.187894  -0.437348  0  1.969849  0
O  O94  1  0.83229540  0.44605261  0.17375090  1  0  -0.406099  0  1.722027  0  0  -0.412254  0  1.914485  0  0  -0.423818  0  1.910037  0  0  -0.172376  -0.403762  0  1.917309  0
O  O95  1  0.16770706  0.55394339  0.82625050  1  0  -0.406024  0  1.721998  0  0  -0.412242  0  1.914381  0  0  -0.423807  0  1.909934  0  0  -0.172413  -0.40375  0  1.917205  0
