# generated using pymatgen
data_AlH7C15ClO5F
_symmetry_space_group_name_H-M   'P 1'
_cell_length_a   6.64452564
_cell_length_b   15.37777719
_cell_length_c   17.75960262
_cell_angle_alpha   84.94716652
_cell_angle_beta   79.67684299
_cell_angle_gamma   77.65622441
_symmetry_Int_Tables_number   1
_chemical_formula_structural   AlH7C15ClO5F
_chemical_formula_sum   'Al2 H14 C30 Cl2 O10 F2'
_cell_volume   1741.65660367
_cell_formula_units_Z   2
loop_
 _symmetry_equiv_pos_site_id
 _symmetry_equiv_pos_as_xyz
  1  'x, y, z'
loop_
 _atom_site_type_symbol
 _atom_site_label
 _atom_site_symmetry_multiplicity
 _atom_site_fract_x
 _atom_site_fract_y
 _atom_site_fract_z
 _atom_site_occupancy
 _atom_site_pbe_bader_charge
 _atom_site_pbe_bader_spin_density
 _atom_site_pbe_cm5_charge
 _atom_site_pbe_ddec_charge
 _atom_site_pbe_ddec_spin_density
 _atom_site_pbe_ddec_sum_bond_order
 _atom_site_pbe_magmom
Al  Al0  1  0.49766238  0.50030137  0.49925517  1  2.504575  0  0.399332  1.649048  0  2.5744  0
Al  Al1  1  0.99846712  0.49958908  0.49908496  1  2.505303  0  0.399092  1.64757  0  2.578426  0
H  H2  1  0.24111294  0.43360502  0.58560935  1  0.610201  0  0.354461  0.431453  0  0.852442  0
H  H3  1  0.73344479  0.59447477  0.43294826  1  0.631326  0  0.357615  0.435956  0  0.843904  0
H  H4  1  0.63444557  0.54937131  0.26920935  1  0.118881  0  0.111886  0.119945  0  0.98896  0
H  H5  1  0.71141238  0.55106298  0.12599309  1  0.090638  0  0.104008  0.110306  0  1.000652  0
H  H6  1  0.09570474  0.43650104  0.26774098  1  0.149528  0  0.115739  0.136403  0  0.985417  0
H  H7  1  0.90302335  0.56548354  0.72837393  1  0.111319  0  0.115338  0.135743  0  0.986651  0
H  H8  1  0.37507037  0.44271394  0.73464902  1  0.083152  0  0.109451  0.114823  0  0.992836  0
H  H9  1  0.31337696  0.43948227  0.87777202  1  0.100669  0  0.10704  0.11352  0  0.99409  0
H  H10  1  0.81234940  0.77094866  0.47616252  1  0.129285  0  0.114809  0.138161  0  0.993703  0
H  H11  1  0.17011036  0.23070873  0.53022722  1  0.123054  0  0.118203  0.14547  0  0.984029  0
H  H12  1  0.59243345  0.22904314  0.45361763  1  0.132672  0  0.111344  0.12  0  0.989761  0
H  H13  1  0.67783622  0.06638993  0.45701458  1  0.115127  0  0.096712  0.10649  0  1.059036  0
H  H14  1  0.40890219  0.77263914  0.53761985  1  0.091241  0  0.108383  0.11554  0  0.996197  0
H  H15  1  0.32498894  0.93516088  0.53338680  1  0.128111  0  0.095911  0.106846  0  1.070713  0
C  C16  1  0.82049766  0.34081078  0.49307494  1  1.565997  0  0.267412  0.635304  0  4.099145  0
C  C17  1  0.68836140  0.50189922  0.63772320  1  1.594054  0  0.267861  0.640941  0  4.092936  0
C  C18  1  0.17336266  0.66050695  0.50463812  1  1.556424  0  0.267554  0.642522  0  4.096409  0
C  C19  1  0.30872888  0.49672528  0.36187561  1  1.554563  0  0.270575  0.639751  0  4.09533  0
C  C20  1  0.35943144  0.49391076  0.27676700  1  -0.029202  0  -0.011541  -0.025624  0  3.972733  0
C  C21  1  0.53463374  0.52516371  0.23693338  1  0.015224  0  -0.081765  -0.095274  0  3.984511  0
C  C22  1  0.57775214  0.52575496  0.15761757  1  -0.016033  0  -0.076602  -0.105419  0  3.948936  0
C  C23  1  0.45049250  0.49302067  0.11563633  1  0.194031  0  -0.002164  0.082624  0  4.090334  0
C  C24  1  0.27778556  0.45930345  0.15707750  1  0.045949  0  0.022587  0.108814  0  4.001606  0
C  C25  1  0.23098959  0.46094800  0.23650702  1  -0.020261  0  -0.084185  -0.160247  0  3.957562  0
C  C26  1  0.49429684  0.49511023  0.03497058  1  -0.337437  0  -0.041487  -0.086119  0  4.128429  0
C  C27  1  0.53260917  0.49925801  0.96507925  1  -0.102906  0  -0.041078  -0.087575  0  4.129265  0
C  C28  1  0.57023780  0.50187894  0.88436725  1  0.170043  0  -0.001272  0.082657  0  4.088914  0
C  C29  1  0.73580240  0.53858195  0.84080186  1  0.065826  0  0.021468  0.109988  0  4.003804  0
C  C30  1  0.77366216  0.53830102  0.76127516  1  0.020144  0  -0.086984  -0.163463  0  3.963625  0
C  C31  1  0.64378002  0.50348862  0.72299435  1  -0.021301  0  -0.012534  -0.025832  0  3.97306  0
C  C32  1  0.47587177  0.46896002  0.76502827  1  -0.029131  0  -0.081817  -0.096326  0  3.990754  0
C  C33  1  0.44130680  0.46727456  0.84442091  1  0.009158  0  -0.077892  -0.105532  0  3.945433  0
C  C34  1  0.11891433  0.75952233  0.50639148  1  0.008144  0  -0.015179  -0.019819  0  4.001001  0
C  C35  1  0.87396300  0.24181926  0.49176541  1  0.007174  0  -0.012572  -0.013819  0  4.001498  0
C  C36  1  0.92694128  0.80622884  0.48892487  1  0.021759  0  -0.09268  -0.216595  0  3.995973  0
C  C37  1  0.88155161  0.89842523  0.48684057  1  0.367655  0  0.103295  0.243825  0  3.996621  0
C  C38  1  0.06017081  0.19518742  0.51412133  1  0.028646  0  -0.092018  -0.220895  0  3.993377  0
C  C39  1  0.10410611  0.10295249  0.51746687  1  0.405371  0  0.103437  0.244221  0  3.998205  0
C  C40  1  0.73817726  0.19339556  0.47117657  1  -0.047522  0  -0.085522  -0.101626  0  3.992542  0
C  C41  1  0.78776421  0.10089822  0.47352505  1  -0.023313  0  -0.08867  -0.117129  0  3.974595  0
C  C42  1  0.25948435  0.80815732  0.52304224  1  0.058744  0  -0.086244  -0.099566  0  3.991528  0
C  C43  1  0.21011081  0.90064163  0.52078670  1  -0.11233  0  -0.091685  -0.120551  0  3.974027  0
C  C44  1  0.01909732  0.95129098  0.50174569  1  0.008128  0  -0.005509  -0.010733  0  3.948406  0
C  C45  1  0.97235378  0.05021545  0.49776730  1  0.047205  0  -0.007379  -0.015375  0  3.948196  0
Cl  Cl46  1  0.12199257  0.41625401  0.10804264  1  -0.207404  0  -0.002226  -0.077748  0  1.486845  0
Cl  Cl47  1  0.89352049  0.58393947  0.88712819  1  -0.208582  0  -0.003466  -0.077708  0  1.479558  0
O  O48  1  0.63848815  0.37941982  0.48132461  1  -1.251356  0  -0.232069  -0.580502  0  2.331748  0
O  O49  1  0.86677605  0.51527880  0.60474021  1  -1.261636  0  -0.237423  -0.592373  0  2.333464  0
O  O50  1  0.03408266  0.62159233  0.49012904  1  -1.263718  0  -0.24075  -0.605453  0  2.347861  0
O  O51  1  0.44680727  0.51500321  0.39591245  1  -1.263519  0  -0.235266  -0.59614  0  2.35626  0
O  O52  1  0.35652160  0.62248308  0.51593914  1  -1.262576  0  -0.237114  -0.595898  0  2.333021  0
O  O53  1  0.13116739  0.48225962  0.39446357  1  -1.259031  0  -0.233263  -0.580526  0  2.323671  0
O  O54  1  0.95969523  0.37935422  0.50793675  1  -1.267148  0  -0.233955  -0.590913  0  2.351198  0
O  O55  1  0.54653930  0.48577452  0.60425035  1  -1.266201  0  -0.237057  -0.60173  0  2.339369  0
O  O56  1  0.25137686  0.45994677  0.53384362  1  -1.412974  0  -0.448311  -0.994264  0  2.207968  0
O  O57  1  0.74409727  0.54069164  0.46586876  1  -1.43441  0  -0.448825  -0.998866  0  2.21548  0
F  F58  1  0.68887909  0.93616853  0.46861014  1  -0.637612  0  -0.08682  -0.139028  0  1.401249  0
F  F59  1  0.28784601  0.06512571  0.54278092  1  -0.633723  0  -0.090191  -0.13925  0  1.387314  0
