# generated using pymatgen
data_ZnH8C14(N2O)2
_symmetry_space_group_name_H-M   'P 1'
_cell_length_a   7.65647428
_cell_length_b   10.97145777
_cell_length_c   15.86471695
_cell_angle_alpha   98.76088033
_cell_angle_beta   90.00009632
_cell_angle_gamma   90.00002110
_symmetry_Int_Tables_number   1
_chemical_formula_structural   ZnH8C14(N2O)2
_chemical_formula_sum   'Zn4 H32 C56 N16 O8'
_cell_volume   1317.12991705
_cell_formula_units_Z   4
loop_
 _symmetry_equiv_pos_site_id
 _symmetry_equiv_pos_as_xyz
  1  'x, y, z'
loop_
 _atom_site_type_symbol
 _atom_site_label
 _atom_site_symmetry_multiplicity
 _atom_site_fract_x
 _atom_site_fract_y
 _atom_site_fract_z
 _atom_site_occupancy
 _atom_site_hle17_bader_spin_density
 _atom_site_hle17_ddec_charge
 _atom_site_hle17_ddec_spin_density
 _atom_site_hle17_ddec_sum_bond_order
 _atom_site_hle17_magmom
 _atom_site_hse06_10hf_bader_spin_density
 _atom_site_hse06_10hf_ddec_charge
 _atom_site_hse06_10hf_ddec_spin_density
 _atom_site_hse06_10hf_ddec_sum_bond_order
 _atom_site_hse06_10hf_magmom
 _atom_site_hse06_bader_spin_density
 _atom_site_hse06_ddec_charge
 _atom_site_hse06_ddec_spin_density
 _atom_site_hse06_ddec_sum_bond_order
 _atom_site_hse06_magmom
 _atom_site_pbe_bader_spin_density
 _atom_site_pbe_cm5_charge
 _atom_site_pbe_ddec_charge
 _atom_site_pbe_ddec_spin_density
 _atom_site_pbe_ddec_sum_bond_order
 _atom_site_pbe_magmom
Zn  Zn0  1  0.94760089  0.02465797  0.88350316  1  0  1.029958  0  1.866168  0  0  0.836605  0  2.355738  0  0  0.880166  0  2.300317  0  0  0.745933  0.80627  0  2.394059  0
Zn  Zn1  1  0.44760030  0.97534216  0.61649545  1  0  1.029936  0  1.866163  0  0  0.836604  0  2.355716  0  0  0.880169  0  2.300297  0  0  0.745944  0.806267  0  2.394039  0
Zn  Zn2  1  0.05239925  0.97534337  0.11649623  1  0  1.030014  0  1.866124  0  0  0.836677  0  2.355694  0  0  0.880238  0  2.300276  0  0  0.745953  0.806345  0  2.394021  0
Zn  Zn3  1  0.55239854  0.02465826  0.38350448  1  0  1.029952  0  1.866203  0  0  0.836619  0  2.355766  0  0  0.880179  0  2.300342  0  0  0.745931  0.806283  0  2.39409  0
H  H4  1  0.17085559  0.53122894  0.77339644  1  0  0.086055  0  0.986474  0  0  0.094207  0  1.051863  0  0  0.096067  0  1.052948  0  0  0.097434  0.092824  0  1.051266  0
H  H5  1  0.67085456  0.46876922  0.72660174  1  0  0.086071  0  0.986467  0  0  0.094233  0  1.051848  0  0  0.096084  0  1.052943  0  0  0.097448  0.09285  0  1.051249  0
H  H6  1  0.82914586  0.46877055  0.22660276  1  0  0.086082  0  0.986506  0  0  0.09424  0  1.051886  0  0  0.096098  0  1.052973  0  0  0.097443  0.092856  0  1.051289  0
H  H7  1  0.32914559  0.53123026  0.27339619  1  0  0.08606  0  0.986445  0  0  0.094216  0  1.05183  0  0  0.096075  0  1.052916  0  0  0.097453  0.092833  0  1.051231  0
H  H8  1  0.44777028  0.36488722  0.81759388  1  0  0.095445  0  0.961443  0  0  0.105208  0  1.02498  0  0  0.107556  0  1.025347  0  0  0.099708  0.103476  0  1.024878  0
H  H9  1  0.94777441  0.63511200  0.68240590  1  0  0.095441  0  0.96137  0  0  0.105199  0  1.024919  0  0  0.10755  0  1.025278  0  0  0.099699  0.103465  0  1.02482  0
H  H10  1  0.55222725  0.63511412  0.18240614  1  0  0.095443  0  0.961344  0  0  0.105204  0  1.02488  0  0  0.10755  0  1.025254  0  0  0.099703  0.103474  0  1.024777  0
H  H11  1  0.05222312  0.36488660  0.31759636  1  0  0.095502  0  0.961338  0  0  0.105247  0  1.024903  0  0  0.1076  0  1.025257  0  0  0.0997  0.103513  0  1.024809  0
H  H12  1  0.06240080  0.32452369  0.70708299  1  0  0.103105  0  0.94169  0  0  0.114572  0  0.99916  0  0  0.117327  0  0.998346  0  0  0.106254  0.112523  0  0.999941  0
H  H13  1  0.56240011  0.67547260  0.79291681  1  0  0.103099  0  0.941597  0  0  0.114552  0  0.9991  0  0  0.117306  0  0.998287  0  0  0.106233  0.112505  0  0.999881  0
H  H14  1  0.93760065  0.67547581  0.29291621  1  0  0.103065  0  0.941594  0  0  0.114544  0  0.999069  0  0  0.117288  0  0.99827  0  0  0.106229  0.112496  0  0.999852  0
H  H15  1  0.43760395  0.32452689  0.20708239  1  0  0.103097  0  0.94159  0  0  0.114568  0  0.999083  0  0  0.117308  0  0.998287  0  0  0.106237  0.112518  0  0.999867  0
H  H16  1  0.78183298  0.54217238  0.97075961  1  0  0.095619  0  0.965867  0  0  0.106141  0  1.027103  0  0  0.108064  0  1.028348  0  0  0.099333  0.104795  0  1.026238  0
H  H17  1  0.28183181  0.45782861  0.52923957  1  0  0.095648  0  0.965916  0  0  0.106183  0  1.02713  0  0  0.108104  0  1.028375  0  0  0.099349  0.104837  0  1.026264  0
H  H18  1  0.21816847  0.45782712  0.02923959  1  0  0.095638  0  0.965882  0  0  0.106165  0  1.027113  0  0  0.108095  0  1.028335  0  0  0.099347  0.104818  0  1.026246  0
H  H19  1  0.71816311  0.54217182  0.47076098  1  0  0.095681  0  0.965863  0  0  0.106211  0  1.027089  0  0  0.108136  0  1.028327  0  0  0.099357  0.104865  0  1.026222  0
H  H20  1  0.02770118  0.64126332  0.90322567  1  0  0.093502  0  0.970231  0  0  0.100452  0  1.03804  0  0  0.103637  0  1.03566  0  0  0.099548  0.098165  0  1.039799  0
H  H21  1  0.52769964  0.35873662  0.59677257  1  0  0.093452  0  0.970233  0  0  0.100416  0  1.038031  0  0  0.103604  0  1.035646  0  0  0.099531  0.098127  0  1.039789  0
H  H22  1  0.97230027  0.35873525  0.09677407  1  0  0.093482  0  0.970166  0  0  0.100462  0  1.03795  0  0  0.103647  0  1.03557  0  0  0.099581  0.098174  0  1.039706  0
H  H23  1  0.47229659  0.64126379  0.40322672  1  0  0.093508  0  0.97012  0  0  0.100461  0  1.037933  0  0  0.103647  0  1.035551  0  0  0.099557  0.098172  0  1.039692  0
H  H24  1  0.19542053  0.26333237  0.87640847  1  0  0.089106  0  0.979252  0  0  0.095153  0  1.050733  0  0  0.097607  0  1.049835  0  0  0.098823  0.093325  0  1.051502  0
H  H25  1  0.69542450  0.73666765  0.62359055  1  0  0.089138  0  0.979237  0  0  0.095184  0  1.050714  0  0  0.097641  0  1.049809  0  0  0.09885  0.093357  0  1.051482  0
H  H26  1  0.80457700  0.73666897  0.12359218  1  0  0.089093  0  0.979261  0  0  0.095139  0  1.050743  0  0  0.097594  0  1.049841  0  0  0.098835  0.093312  0  1.051512  0
H  H27  1  0.30457433  0.26333186  0.37641117  1  0  0.089127  0  0.979239  0  0  0.095145  0  1.050748  0  0  0.097596  0  1.049849  0  0  0.098829  0.093321  0  1.051514  0
H  H28  1  0.77534000  0.26459722  0.01736222  1  0  0.10268  0  0.977454  0  0  0.109148  0  1.046939  0  0  0.112329  0  1.045222  0  0  0.098801  0.106822  0  1.048359  0
H  H29  1  0.27534056  0.73540357  0.48263732  1  0  0.102665  0  0.977452  0  0  0.109159  0  1.046904  0  0  0.112338  0  1.045196  0  0  0.098804  0.106838  0  1.048326  0
H  H30  1  0.22466014  0.73540227  0.98263698  1  0  0.102669  0  0.977472  0  0  0.109161  0  1.046922  0  0  0.112345  0  1.0452  0  0  0.098798  0.106838  0  1.048344  0
H  H31  1  0.72465958  0.26459780  0.51736585  1  0  0.102692  0  0.977497  0  0  0.109189  0  1.046938  0  0  0.112361  0  1.045242  0  0  0.09881  0.106863  0  1.048358  0
H  H32  1  0.52344476  0.16140484  0.07475082  1  0  0.102725  0  0.949214  0  0  0.109703  0  1.013224  0  0  0.113005  0  1.011158  0  0  0.104124  0.107354  0  1.014627  0
H  H33  1  0.02344256  0.83859307  0.42524823  1  0  0.102752  0  0.949274  0  0  0.109722  0  1.013275  0  0  0.113023  0  1.011208  0  0  0.104141  0.107375  0  1.014673  0
H  H34  1  0.47655669  0.83859466  0.92524901  1  0  0.102719  0  0.949236  0  0  0.109701  0  1.013239  0  0  0.113003  0  1.011173  0  0  0.104122  0.107352  0  1.014639  0
H  H35  1  0.97655758  0.16140645  0.57475476  1  0  0.102722  0  0.949217  0  0  0.109737  0  1.013178  0  0  0.113039  0  1.011111  0  0  0.104131  0.107389  0  1.014575  0
C  C36  1  0.79079618  0.19836765  0.76136893  1  0  0.28928  0  3.778692  0  0  0.265386  0  4.049569  0  0  0.275316  0  4.06699  0  0  0.227914  0.258734  0  4.037802  0
C  C37  1  0.29079592  0.80163149  0.73862944  1  0  0.289363  0  3.778585  0  0  0.265398  0  4.049537  0  0  0.275328  0  4.066958  0  0  0.227874  0.258748  0  4.03777  0
C  C38  1  0.20920658  0.80163369  0.23863046  1  0  0.289218  0  3.778694  0  0  0.265299  0  4.0496  0  0  0.275228  0  4.067019  0  0  0.227849  0.258651  0  4.037833  0
C  C39  1  0.70920553  0.19836801  0.26137102  1  0  0.289288  0  3.778615  0  0  0.265324  0  4.04958  0  0  0.275255  0  4.067003  0  0  0.227855  0.258675  0  4.037811  0
C  C40  1  0.06157556  0.48875445  0.80179982  1  0  -0.068303  0  3.773642  0  0  -0.081109  0  4.022492  0  0  -0.083202  0  4.043504  0  0  -0.090031  -0.079607  0  4.008165  0
C  C41  1  0.56157576  0.51124459  0.69819899  1  0  -0.068435  0  3.773825  0  0  -0.081246  0  4.022692  0  0  -0.083332  0  4.043708  0  0  -0.090089  -0.079743  0  4.008365  0
C  C42  1  0.93842458  0.51124504  0.19819875  1  0  -0.068534  0  3.773946  0  0  -0.08135  0  4.022835  0  0  -0.083441  0  4.043846  0  0  -0.090154  -0.079847  0  4.008507  0
C  C43  1  0.43842438  0.48875489  0.30179895  1  0  -0.068327  0  3.773603  0  0  -0.081122  0  4.022458  0  0  -0.083213  0  4.043465  0  0  -0.090058  -0.079621  0  4.008131  0
C  C44  1  0.46410557  0.32122910  0.87440531  1  0  -0.112772  0  3.717171  0  0  -0.130969  0  3.961877  0  0  -0.135468  0  3.982873  0  0  -0.088734  -0.127958  0  3.947646  0
C  C45  1  0.96410691  0.67877011  0.62559258  1  0  -0.112788  0  3.717163  0  0  -0.130971  0  3.961869  0  0  -0.135469  0  3.982866  0  0  -0.08874  -0.127957  0  3.947637  0
C  C46  1  0.53589458  0.67877315  0.12559354  1  0  -0.112824  0  3.717301  0  0  -0.131002  0  3.961994  0  0  -0.1355  0  3.982989  0  0  -0.088757  -0.12799  0  3.947763  0
C  C47  1  0.03589193  0.32122941  0.37440977  1  0  -0.112856  0  3.717206  0  0  -0.131079  0  3.961845  0  0  -0.135577  0  3.982843  0  0  -0.088748  -0.128068  0  3.947624  0
C  C48  1  0.78094724  0.37895500  0.87645623  1  0  0.027176  0  3.746203  0  0  0.03739  0  3.977256  0  0  0.037559  0  3.999675  0  0  0.000396  0.037305  0  3.962009  0
C  C49  1  0.28094910  0.62104414  0.62354277  1  0  0.027178  0  3.746233  0  0  0.03738  0  3.977301  0  0  0.037551  0  3.99972  0  0  0.000357  0.037296  0  3.962055  0
C  C50  1  0.21905160  0.62104449  0.12354234  1  0  0.027073  0  3.746236  0  0  0.037284  0  3.977306  0  0  0.037452  0  3.999726  0  0  0.00032  0.0372  0  3.962061  0
C  C51  1  0.71904843  0.37895537  0.37645895  1  0  0.027073  0  3.746073  0  0  0.037197  0  3.977185  0  0  0.037368  0  3.999605  0  0  0.000281  0.037112  0  3.96194  0
C  C52  1  0.00104761  0.37309269  0.76458345  1  0  -0.091732  0  3.741285  0  0  -0.111297  0  3.985589  0  0  -0.112437  0  4.004444  0  0  -0.082243  -0.110367  0  3.972714  0
C  C53  1  0.50104800  0.62690540  0.73541522  1  0  -0.091673  0  3.741315  0  0  -0.111249  0  3.985616  0  0  -0.112388  0  4.004473  0  0  -0.082215  -0.110318  0  3.972743  0
C  C54  1  0.99895254  0.62690679  0.23541386  1  0  -0.091666  0  3.741271  0  0  -0.111251  0  3.985598  0  0  -0.112382  0  4.004453  0  0  -0.082214  -0.11032  0  3.972724  0
C  C55  1  0.49895345  0.37309409  0.26458398  1  0  -0.091737  0  3.741259  0  0  -0.111333  0  3.985594  0  0  -0.112458  0  4.004452  0  0  -0.082231  -0.110401  0  3.972722  0
C  C56  1  0.86053987  0.31835627  0.80127663  1  0  -0.050561  0  3.778853  0  0  -0.037143  0  4.014  0  0  -0.03979  0  4.035642  0  0  -0.006954  -0.035442  0  3.999386  0
C  C57  1  0.36054072  0.68164383  0.69872253  1  0  -0.050673  0  3.778998  0  0  -0.037184  0  4.014096  0  0  -0.039836  0  4.035746  0  0  -0.006944  -0.035484  0  3.999485  0
C  C58  1  0.13946028  0.68164322  0.19872131  1  0  -0.050449  0  3.778824  0  0  -0.037002  0  4.013933  0  0  -0.039645  0  4.035566  0  0  -0.00688  -0.035303  0  3.999323  0
C  C59  1  0.63946074  0.31835659  0.30127739  1  0  -0.050487  0  3.778815  0  0  -0.037008  0  4.013947  0  0  -0.039662  0  4.035598  0  0  -0.006886  -0.035308  0  3.999335  0
C  C60  1  0.62848939  0.32217771  0.91382718  1  0  0.070814  0  3.76758  0  0  0.083933  0  3.999955  0  0  0.085819  0  4.023341  0  0  -1.7e-05  0.082848  0  3.983979  0
C  C61  1  0.12849115  0.67782321  0.58617188  1  0  0.070874  0  3.767513  0  0  0.083973  0  3.999927  0  0  0.085859  0  4.023312  0  0  2e-05  0.082889  0  3.983951  0
C  C62  1  0.37151075  0.67782270  0.08617148  1  0  0.070864  0  3.767472  0  0  0.083966  0  3.999871  0  0  0.085849  0  4.023269  0  0  3.3e-05  0.082882  0  3.983898  0
C  C63  1  0.87150769  0.32217724  0.41383057  1  0  0.070838  0  3.767602  0  0  0.084116  0  3.999786  0  0  0.086006  0  4.02316  0  0  9.1e-05  0.083031  0  3.983811  0
C  C64  1  0.84405210  0.49470145  0.91312334  1  0  -0.102581  0  3.728433  0  0  -0.119936  0  3.969688  0  0  -0.123285  0  3.99183  0  0  -0.084881  -0.117653  0  3.954617  0
C  C65  1  0.34405247  0.50529864  0.58687518  1  0  -0.102699  0  3.728487  0  0  -0.120073  0  3.969771  0  0  -0.123421  0  3.991911  0  0  -0.084912  -0.117788  0  3.954697  0
C  C66  1  0.15594804  0.50529897  0.08687596  1  0  -0.102665  0  3.728482  0  0  -0.120033  0  3.969759  0  0  -0.123379  0  3.991903  0  0  -0.084921  -0.117747  0  3.954683  0
C  C67  1  0.65594376  0.49470086  0.41312465  1  0  -0.102637  0  3.728408  0  0  -0.120002  0  3.969709  0  0  -0.123352  0  3.99185  0  0  -0.084909  -0.117716  0  3.954635  0
C  C68  1  0.98210123  0.54986264  0.87554259  1  0  -0.056813  0  3.7528  0  0  -0.071649  0  4.002217  0  0  -0.072379  0  4.022166  0  0  -0.086205  -0.071029  0  3.988665  0
C  C69  1  0.48210039  0.45013750  0.62445604  1  0  -0.056593  0  3.752782  0  0  -0.071435  0  4.002185  0  0  -0.072162  0  4.022128  0  0  -0.086119  -0.070813  0  3.98863  0
C  C70  1  0.01790153  0.45013684  0.12445597  1  0  -0.05658  0  3.752776  0  0  -0.071433  0  4.002163  0  0  -0.072163  0  4.022113  0  0  -0.086098  -0.070812  0  3.988606  0
C  C71  1  0.51789845  0.54986199  0.37554316  1  0  -0.056824  0  3.752673  0  0  -0.071654  0  4.002102  0  0  -0.072383  0  4.02205  0  0  -0.086204  -0.071032  0  3.988548  0
C  C72  1  0.32255612  0.26423545  0.90715790  1  0  -0.054098  0  3.750858  0  0  -0.078537  0  4.00063  0  0  -0.076715  0  4.020546  0  0  -0.083314  -0.079588  0  3.987126  0
C  C73  1  0.82255738  0.73576372  0.59284240  1  0  -0.05416  0  3.750817  0  0  -0.078599  0  4.000586  0  0  -0.076774  0  4.020499  0  0  -0.083355  -0.079635  0  3.987093  0
C  C74  1  0.67744272  0.73576591  0.09284401  1  0  -0.054043  0  3.750961  0  0  -0.078488  0  4.000733  0  0  -0.076663  0  4.020646  0  0  -0.083319  -0.079532  0  3.987238  0
C  C75  1  0.17744277  0.26423764  0.40715951  1  0  -0.054127  0  3.750859  0  0  -0.078542  0  4.000639  0  0  -0.076716  0  4.020552  0  0  -0.083346  -0.079584  0  3.98715  0
C  C76  1  0.64790575  0.26624206  0.98715868  1  0  -0.118139  0  3.720345  0  0  -0.136758  0  3.969361  0  0  -0.141607  0  3.990247  0  0  -0.089841  -0.133654  0  3.955282  0
C  C77  1  0.14790729  0.73375886  0.51284039  1  0  -0.118208  0  3.720318  0  0  -0.136841  0  3.969342  0  0  -0.141696  0  3.99023  0  0  -0.089907  -0.133745  0  3.955269  0
C  C78  1  0.35209439  0.73375927  0.01284008  1  0  -0.118176  0  3.72037  0  0  -0.136801  0  3.969372  0  0  -0.141653  0  3.990262  0  0  -0.089869  -0.133701  0  3.955296  0
C  C79  1  0.85209155  0.26624251  0.48716278  1  0  -0.118127  0  3.720421  0  0  -0.136809  0  3.969404  0  0  -0.141659  0  3.990282  0  0  -0.089874  -0.133702  0  3.955318  0
C  C80  1  0.34336738  0.20629841  0.97939780  1  0  -0.096954  0  3.791398  0  0  -0.073501  0  4.022181  0  0  -0.084682  0  4.047627  0  0  -0.026126  -0.066155  0  4.004851  0
C  C81  1  0.84336841  0.79370168  0.52060134  1  0  -0.09691  0  3.791441  0  0  -0.073467  0  4.022211  0  0  -0.084649  0  4.047656  0  0  -0.026102  -0.066164  0  4.00494  0
C  C82  1  0.65663146  0.79370293  0.02060222  1  0  -0.09693  0  3.791386  0  0  -0.073475  0  4.022164  0  0  -0.084657  0  4.047609  0  0  -0.026102  -0.06615  0  4.004864  0
C  C83  1  0.15663043  0.20630153  0.47940138  1  0  -0.096814  0  3.79137  0  0  -0.073387  0  4.022155  0  0  -0.084568  0  4.0476  0  0  -0.026071  -0.066081  0  4.004879  0
C  C84  1  0.50704417  0.20796728  0.01934941  1  0  -0.043443  0  3.722443  0  0  -0.067817  0  3.970338  0  0  -0.065824  0  3.989948  0  0  -0.079393  -0.068759  0  3.956678  0
C  C85  1  0.00704345  0.79203062  0.48064899  1  0  -0.043418  0  3.722516  0  0  -0.067776  0  3.970407  0  0  -0.065779  0  3.990013  0  0  -0.079355  -0.068705  0  3.956762  0
C  C86  1  0.49295597  0.79203222  0.98065105  1  0  -0.043398  0  3.722569  0  0  -0.067769  0  3.970457  0  0  -0.065774  0  3.990067  0  0  -0.079372  -0.068702  0  3.956802  0
C  C87  1  0.99295538  0.20797167  0.51935364  1  0  -0.043474  0  3.722362  0  0  -0.067883  0  3.970308  0  0  -0.065888  0  3.989914  0  0  -0.07939  -0.068811  0  3.956657  0
C  C88  1  0.19484953  0.14012568  0.01194799  1  0  0.671902  0  3.867847  0  0  0.621529  0  4.149719  0  0  0.657142  0  4.141641  0  0  0.224607  0.597281  0  4.154487  0
C  C89  1  0.69485093  0.85987417  0.48805266  1  0  0.671741  0  3.868013  0  0  0.621399  0  4.149848  0  0  0.657012  0  4.141768  0  0  0.22457  0.597164  0  4.154616  0
C  C90  1  0.80514930  0.85987475  0.98805257  1  0  0.671734  0  3.868034  0  0  0.621353  0  4.149916  0  0  0.656967  0  4.141839  0  0  0.224552  0.597112  0  4.154683  0
C  C91  1  0.30514791  0.14012719  0.51194862  1  0  0.671703  0  3.86807  0  0  0.621368  0  4.149901  0  0  0.656982  0  4.141823  0  0  0.224516  0.597131  0  4.154669  0
N  N92  1  0.69001337  0.18090035  0.69166070  1  0  -0.263563  0  2.867663  0  0  -0.249606  0  3.134093  0  0  -0.257677  0  3.14813  0  0  -0.205013  -0.244116  0  3.124682  0
N  N93  1  0.19001467  0.81909875  0.80833885  1  0  -0.263509  0  2.867511  0  0  -0.249535  0  3.133957  0  0  -0.257606  0  3.147994  0  0  -0.204969  -0.244045  0  3.124548  0
N  N94  1  0.30998547  0.81909822  0.30833840  1  0  -0.263399  0  2.867567  0  0  -0.249422  0  3.133974  0  0  -0.25749  0  3.148008  0  0  -0.204922  -0.243931  0  3.124564  0
N  N95  1  0.80998808  0.18090075  0.19166161  1  0  -0.263436  0  2.86754  0  0  -0.24944  0  3.133955  0  0  -0.257511  0  3.147991  0  0  -0.204939  -0.24395  0  3.124544  0
N  N96  1  0.80913624  0.09084050  0.79302217  1  0  -0.333205  0  3.226218  0  0  -0.263928  0  3.532609  0  0  -0.282167  0  3.54337  0  0  -0.228295  -0.251645  0  3.525277  0
N  N97  1  0.30913462  0.90915865  0.70697685  1  0  -0.333243  0  3.226314  0  0  -0.263969  0  3.532755  0  0  -0.28221  0  3.543518  0  0  -0.228277  -0.251686  0  3.525421  0
N  N98  1  0.19086913  0.90915805  0.20697504  1  0  -0.333223  0  3.226287  0  0  -0.26397  0  3.532723  0  0  -0.282209  0  3.543485  0  0  -0.228283  -0.251687  0  3.525391  0
N  N99  1  0.69086683  0.09084085  0.29302361  1  0  -0.333221  0  3.226231  0  0  -0.26394  0  3.532652  0  0  -0.282178  0  3.543413  0  0  -0.228279  -0.251657  0  3.52532  0
N  N100  1  0.71846645  0.00499730  0.74234289  1  0  -0.050717  0  2.923875  0  0  -0.055819  0  3.199423  0  0  -0.051039  0  3.212015  0  0  -0.091304  -0.058658  0  3.190866  0
N  N101  1  0.21846637  0.99500088  0.75765533  1  0  -0.050643  0  2.924033  0  0  -0.055729  0  3.199565  0  0  -0.050948  0  3.212157  0  0  -0.09127  -0.058566  0  3.191005  0
N  N102  1  0.28153761  0.99500034  0.25765486  1  0  -0.050645  0  2.92409  0  0  -0.055735  0  3.199636  0  0  -0.050954  0  3.212227  0  0  -0.091296  -0.058572  0  3.191077  0
N  N103  1  0.78153508  0.00499862  0.24234450  1  0  -0.050662  0  2.924011  0  0  -0.055755  0  3.199556  0  0  -0.050976  0  3.212149  0  0  -0.09131  -0.058593  0  3.191  0
N  N104  1  0.64846025  0.06035977  0.68248732  1  0  -0.144357  0  3.302688  0  0  -0.078941  0  3.621862  0  0  -0.08982  0  3.632928  0  0  -0.121256  -0.071501  0  3.614279  0
N  N105  1  0.14846165  0.93963932  0.81751220  1  0  -0.144471  0  3.302699  0  0  -0.079049  0  3.621857  0  0  -0.089929  0  3.632923  0  0  -0.121306  -0.071608  0  3.614274  0
N  N106  1  0.35154120  0.93963788  0.31751170  1  0  -0.144568  0  3.30285  0  0  -0.079157  0  3.622025  0  0  -0.090036  0  3.633087  0  0  -0.121325  -0.071715  0  3.614441  0
N  N107  1  0.85154110  0.06036019  0.18248826  1  0  -0.14454  0  3.302813  0  0  -0.079125  0  3.62199  0  0  -0.090003  0  3.633055  0  0  -0.121282  -0.071685  0  3.614409  0
O  O108  1  0.04365761  0.14290268  0.97707866  1  0  -0.668432  0  2.101912  0  0  -0.59592  0  2.39416  0  0  -0.621552  0  2.373875  0  0  -0.334779  -0.578006  0  2.407605  0
O  O109  1  0.54365999  0.85709544  0.52292130  1  0  -0.668318  0  2.101942  0  0  -0.595831  0  2.394185  0  0  -0.621463  0  2.373903  0  0  -0.334742  -0.577918  0  2.407628  0
O  O110  1  0.95633993  0.85709775  0.02292252  1  0  -0.668341  0  2.101998  0  0  -0.595824  0  2.394242  0  0  -0.621458  0  2.37396  0  0  -0.334729  -0.577912  0  2.407687  0
O  O111  1  0.45634016  0.14290221  0.47707771  1  0  -0.668358  0  2.10197  0  0  -0.595862  0  2.394204  0  0  -0.621492  0  2.373918  0  0  -0.334747  -0.577948  0  2.407646  0
O  O112  1  0.22512205  0.08356093  0.07494939  1  0  -0.601698  0  2.07498  0  0  -0.526514  0  2.342947  0  0  -0.553975  0  2.326609  0  0  -0.304502  -0.507613  0  2.353721  0
O  O113  1  0.72512325  0.91644078  0.42505147  1  0  -0.601627  0  2.074959  0  0  -0.526459  0  2.342909  0  0  -0.553924  0  2.326584  0  0  -0.304519  -0.507554  0  2.353675  0
O  O114  1  0.77487679  0.91643949  0.92505054  1  0  -0.601641  0  2.075006  0  0  -0.526464  0  2.342983  0  0  -0.553918  0  2.326634  0  0  -0.304515  -0.507559  0  2.35375  0
O  O115  1  0.27487820  0.08356241  0.57494874  1  0  -0.601619  0  2.075091  0  0  -0.526446  0  2.343025  0  0  -0.553904  0  2.32668  0  0  -0.304468  -0.507542  0  2.35379  0
