# generated using pymatgen
data_CoH12C5NO8
_symmetry_space_group_name_H-M   'P 1'
_cell_length_a   7.11147377
_cell_length_b   7.21893471
_cell_length_c   9.57351310
_cell_angle_alpha   88.76110802
_cell_angle_beta   96.41856825
_cell_angle_gamma   111.16064605
_symmetry_Int_Tables_number   1
_chemical_formula_structural   CoH12C5NO8
_chemical_formula_sum   'Co2 H24 C10 N2 O16'
_cell_volume   455.37252761
_cell_formula_units_Z   2
loop_
 _symmetry_equiv_pos_site_id
 _symmetry_equiv_pos_as_xyz
  1  'x, y, z'
loop_
 _atom_site_type_symbol
 _atom_site_label
 _atom_site_symmetry_multiplicity
 _atom_site_fract_x
 _atom_site_fract_y
 _atom_site_fract_z
 _atom_site_occupancy
 _atom_site_hle17_ddec_charge
 _atom_site_hle17_ddec_spin_density
 _atom_site_hle17_ddec_sum_bond_order
 _atom_site_hle17_magmom
 _atom_site_hse06_10hf_ddec_charge
 _atom_site_hse06_10hf_ddec_spin_density
 _atom_site_hse06_10hf_ddec_sum_bond_order
 _atom_site_hse06_10hf_magmom
 _atom_site_hse06_ddec_charge
 _atom_site_hse06_ddec_spin_density
 _atom_site_hse06_ddec_sum_bond_order
 _atom_site_hse06_magmom
 _atom_site_pbe_cm5_charge
 _atom_site_pbe_ddec_charge
 _atom_site_pbe_ddec_spin_density
 _atom_site_pbe_ddec_sum_bond_order
 _atom_site_pbe_magmom
Co  Co0  1  0.24870802  0.29157047  0.27975962  1  1.078307  2.832936  1.874953  2.583  1.062265  2.842713  2.266922  2.653  1.139153  2.881267  2.193325  2.727  0.611828  0.997212  2.806096  2.327301  2.583
Co  Co1  1  0.75128858  0.70842515  0.72024740  1  1.078317  2.832923  1.874945  2.583  1.06225  2.842695  2.26693  2.653  1.139128  2.881254  2.193335  2.727  0.611822  0.997183  2.806071  2.327336  2.583
H  H2  1  0.73073297  0.06811153  0.25191080  1  0.147525  -0.000474  0.93419  0.0  0.156471  -0.000196  0.99193  0.0  0.159757  -0.000247  0.989569  0.0  0.126594  0.154142  -0.000118  0.993749  0.0
H  H3  1  0.26925917  0.93188421  0.74808231  1  0.147489  -0.000471  0.934224  0.0  0.156443  -0.000196  0.991964  0.0  0.159726  -0.000247  0.989606  0.0  0.126562  0.154119  -0.000118  0.993783  0.0
H  H4  1  0.46164435  0.96038602  0.25871256  1  0.135206  -0.00031  0.937267  0.0  0.146605  -2.5e-05  0.998891  0.0  0.150171  -8.5e-05  0.996121  0.0  0.128787  0.143743  2.3e-05  1.00135  0.0
H  H5  1  0.53835167  0.03962009  0.74128389  1  0.135297  -0.000311  0.937158  0.0  0.146663  -2.5e-05  0.998817  0.0  0.150228  -8.5e-05  0.996049  0.0  0.128839  0.143809  2.3e-05  1.001269  0.0
H  H6  1  0.98608987  0.27556465  0.47137233  1  0.421255  -0.000583  0.887307  -0.001  0.392161  -0.000173  0.948741  0.0  0.402863  -0.000289  0.933545  0.0  0.295245  0.384431  -6e-05  0.959679  0.0
H  H7  1  0.01390996  0.72443254  0.52862551  1  0.42126  -0.000584  0.8873  -0.001  0.392161  -0.000173  0.948743  0.0  0.402861  -0.000289  0.933549  0.0  0.295252  0.384429  -5.9e-05  0.959687  0.0
H  H8  1  0.18738175  0.26485237  0.54834776  1  0.423271  -4e-05  0.819881  0.0  0.407056  0.000496  0.874878  0.001  0.416202  0.000316  0.86492  0.001  0.317879  0.400099  0.00068  0.882406  0.001
H  H9  1  0.81261609  0.73515073  0.45165406  1  0.42327  -4.1e-05  0.819897  0.0  0.407048  0.000496  0.8749  0.001  0.416196  0.000315  0.86494  0.001  0.317867  0.400096  0.00068  0.882418  0.001
H  H10  1  0.42933409  0.63938087  0.39158887  1  0.426385  -0.000198  0.864645  0.0  0.395548  0.000213  0.938354  0.001  0.407427  0.0  0.92125  0.0  0.293746  0.386829  0.000437  0.95083  0.001
H  H11  1  0.57066823  0.36061930  0.60840808  1  0.426337  -0.000198  0.864721  0.0  0.395548  0.000213  0.938354  0.001  0.407409  0.0  0.921262  0.0  0.293732  0.38683  0.000437  0.95083  0.001
H  H12  1  0.26876962  0.63625170  0.25872491  1  0.405616  -0.001102  0.905064  -0.001  0.369981  -0.000267  0.985961  0.0  0.38209  -0.000338  0.968461  0.0  0.285398  0.361419  -0.000201  0.998285  0.0
H  H13  1  0.73122939  0.36373957  0.74127083  1  0.405596  -0.001102  0.905088  -0.001  0.369915  -0.000267  0.986054  0.0  0.382028  -0.000338  0.968549  0.0  0.285355  0.361353  -0.000201  0.99838  0.0
H  H14  1  0.03689547  0.88059484  0.23517688  1  0.435005  6.5e-05  0.846543  0.0  0.410953  0.000317  0.902492  0.001  0.422344  0.000155  0.885807  0.001  0.301535  0.40254  0.00047  0.914796  0.001
H  H15  1  0.96311166  0.11940681  0.76482145  1  0.435043  6.4e-05  0.84654  0.0  0.410982  0.000317  0.902474  0.001  0.42238  0.000155  0.88578  0.001  0.301556  0.40257  0.00047  0.914774  0.001
H  H16  1  0.13689508  0.94291552  0.38599066  1  0.416516  -0.001022  0.894892  -0.001  0.384901  -0.000454  0.962578  0.0  0.3952  -0.00046  0.947405  0.0  0.29706  0.377616  -0.000431  0.973271  0.0
H  H17  1  0.86310711  0.05708014  0.61401259  1  0.416466  -0.00102  0.894955  -0.001  0.38491  -0.000454  0.962564  0.0  0.395211  -0.000461  0.947386  0.0  0.297069  0.377624  -0.000431  0.973253  0.0
H  H18  1  0.65901260  0.50281464  0.21752719  1  0.134154  -0.000645  0.937029  0.0  0.14204  -0.000234  1.001458  0.0  0.145643  -0.000311  0.998368  0.0  0.124546  0.139182  -0.000161  1.004113  0.0
H  H19  1  0.34099913  0.49719140  0.78247980  1  0.134159  -0.000645  0.937023  0.0  0.14201  -0.000235  1.001436  0.0  0.145623  -0.000311  0.998353  0.0  0.124543  0.139153  -0.000161  1.004091  0.0
H  H20  1  0.67294935  0.48876527  0.03492636  1  0.141993  -0.000973  0.911567  -0.001  0.150645  -0.000609  0.976242  0.0  0.154648  -0.000537  0.973227  0.0  0.127913  0.1475  -0.000684  0.978641  0.0
H  H21  1  0.32706771  0.51124375  0.96507995  1  0.141997  -0.000974  0.911635  -0.001  0.15063  -0.000609  0.976269  0.0  0.154645  -0.000537  0.97326  0.0  0.127947  0.147478  -0.000684  0.978677  0.0
H  H22  1  0.73050207  0.12130595  0.00530278  1  0.124694  0.000655  0.925496  0.001  0.132074  0.00065  0.987003  0.001  0.134356  0.000413  0.985334  0.001  0.122959  0.13032  0.000898  0.988489  0.001
H  H23  1  0.26949042  0.87870614  0.99468918  1  0.124662  0.000655  0.925444  0.001  0.132225  0.00065  0.986866  0.001  0.134493  0.000413  0.985183  0.001  0.123034  0.130468  0.000898  0.98835  0.001
H  H24  1  0.53188001  0.19433864  0.91764676  1  0.105841  -1.5e-05  0.93493  0.0  0.11805  0.000162  0.995638  0.0  0.11946  9.3e-05  0.99484  0.0  0.120553  0.116598  0.000227  0.99703  0.0
H  H25  1  0.46811141  0.80567785  0.08235240  1  0.105604  -1.5e-05  0.935128  0.0  0.117871  0.000162  0.995926  0.0  0.119263  9.3e-05  0.995118  0.0  0.120503  0.116424  0.000227  0.997306  0.0
C  C26  1  0.59331300  0.09929859  0.26194742  1  -0.248052  0.000368  3.523524  0.003  -0.305207  0.000634  3.764195  0.002  -0.308688  0.000142  3.76869  0.002  -0.073529  -0.302625  0.001133  3.761356  0.003
C  C27  1  0.40668409  0.90069855  0.73805649  1  -0.24806  0.000368  3.523475  0.003  -0.30527  0.000634  3.764166  0.002  -0.308757  0.000141  3.768665  0.002  -0.073473  -0.302696  0.001132  3.761338  0.003
C  C28  1  0.61142199  0.19647628  0.40460367  1  0.716097  -0.00943  3.82762  -0.007  0.663021  -0.003665  4.135315  -0.002  0.698196  -0.002473  4.126159  -0.002  0.221479  0.637952  -0.005674  4.14159  -0.004
C  C29  1  0.38857617  0.80352385  0.59539820  1  0.71594  -0.009432  3.827907  -0.007  0.663017  -0.003665  4.135325  -0.002  0.698193  -0.002473  4.126161  -0.002  0.221449  0.63796  -0.005673  4.141593  -0.004
C  C30  1  0.70336907  0.42611457  0.13686680  1  -0.224519  0.003274  3.484886  0.006  -0.281596  0.001985  3.73089  0.004  -0.284147  0.001151  3.733738  0.002  -0.066468  -0.279488  0.002968  3.72942  0.005
C  C31  1  0.29662495  0.57387812  0.86313588  1  -0.224613  0.003273  3.484854  0.006  -0.28153  0.001984  3.730713  0.004  -0.284144  0.001152  3.733631  0.002  -0.06652  -0.279422  0.002968  3.729243  0.005
C  C32  1  0.93004658  0.46101999  0.16542092  1  0.701121  -0.008226  3.835616  -0.006  0.652145  -0.001527  4.141024  0.0  0.687408  -0.000482  4.133335  0.0  0.21563  0.627155  -0.003275  4.14606  -0.002
C  C33  1  0.06994836  0.53896381  0.83457982  1  0.700884  -0.008222  3.836021  -0.006  0.65178  -0.001527  4.141537  0.0  0.68707  -0.000483  4.133849  0.0  0.215506  0.626791  -0.003274  4.14657  -0.002
C  C34  1  0.57180366  0.10803817  0.00360974  1  -0.071702  0.002928  3.492578  0.004  -0.125343  0.002411  3.730321  0.003  -0.123207  0.00168  3.739443  0.002  -0.066086  -0.126754  0.003117  3.724772  0.004
C  C35  1  0.42818752  0.89196649  0.99638323  1  -0.071367  0.002928  3.492358  0.004  -0.125624  0.002411  3.730582  0.003  -0.123374  0.001679  3.739604  0.002  -0.066154  -0.127027  0.003117  3.725022  0.004
N  N36  1  0.55603998  0.21273556  0.13420030  1  0.293316  -0.012496  3.389968  -0.012  0.368253  -0.003135  3.632851  -0.004  0.367037  -0.002278  3.654865  -0.003  -0.125877  0.367564  -0.003982  3.617239  -0.005
N  N37  1  0.44395393  0.78726457  0.86580126  1  0.293546  -0.012507  3.389726  -0.012  0.368523  -0.003139  3.63265  -0.004  0.367307  -0.002282  3.654652  -0.003  -0.125866  0.367828  -0.003987  3.617054  -0.005
O  O38  1  0.48807818  0.27976047  0.42879078  1  -0.64  0.024127  2.115907  0.053  -0.590258  0.020289  2.371623  0.039  -0.623307  0.016432  2.358797  0.033  -0.302037  -0.565596  0.023963  2.380484  0.045
O  O39  1  0.51192078  0.72023821  0.57120698  1  -0.639959  0.024131  2.115895  0.053  -0.590249  0.020291  2.371513  0.039  -0.623311  0.016433  2.358715  0.033  -0.302018  -0.565583  0.023966  2.38037  0.045
O  O40  1  0.74372556  0.17691895  0.49729561  1  -0.642368  0.00085  2.029494  0.003  -0.576184  0.00079  2.249945  0.002  -0.600836  0.000419  2.23908  0.002  -0.313932  -0.55937  0.001012  2.257896  0.003
O  O41  1  0.25627826  0.82307379  0.50270151  1  -0.642373  0.000851  2.029676  0.003  -0.576187  0.00079  2.250024  0.002  -0.600829  0.000418  2.23915  0.002  -0.313953  -0.559379  0.001012  2.257979  0.003
O  O42  1  0.98588932  0.31282728  0.16763739  1  -0.624144  0.021429  2.075268  0.046  -0.580911  0.017107  2.329553  0.031  -0.611604  0.014036  2.314315  0.025  -0.309808  -0.558154  0.020081  2.340736  0.036
O  O43  1  0.01410426  0.68716386  0.83237258  1  -0.62415  0.021431  2.075052  0.046  -0.580844  0.017107  2.329333  0.031  -0.611534  0.014037  2.314082  0.025  -0.30987  -0.55808  0.020081  2.340519  0.036
O  O44  1  0.04585212  0.64143935  0.18580664  1  -0.633288  -0.000573  1.970758  0.0  -0.570506  0.000207  2.187879  0.001  -0.595943  4.3e-05  2.176835  0.001  -0.311126  -0.55325  0.000378  2.195909  0.002
O  O45  1  0.95416125  0.35854443  0.81419752  1  -0.633011  -0.000575  1.971247  0.0  -0.570155  0.000207  2.18838  0.001  -0.595621  4.2e-05  2.177349  0.001  -0.3109  -0.552899  0.000378  2.196409  0.002
O  O46  1  0.35514541  0.21599207  0.12168701  1  -0.572279  0.071141  1.699042  0.131  -0.573507  0.050819  1.976252  0.088  -0.606157  0.035628  1.966259  0.063  -0.292659  -0.543354  0.066759  1.9806  0.113
O  O47  1  0.64486271  0.78401998  0.87831027  1  -0.572391  0.071147  1.698976  0.131  -0.573585  0.050827  1.976164  0.088  -0.606231  0.035634  1.966164  0.063  -0.292674  -0.543427  0.066767  1.980526  0.113
O  O48  1  0.13662394  0.33122618  0.47160107  1  -0.793672  0.023645  1.917611  0.039  -0.756221  0.02249  2.114889  0.034  -0.782061  0.01784  2.086744  0.027  -0.57231  -0.735871  0.026833  2.135082  0.039
O  O49  1  0.86337505  0.66877248  0.52839879  1  -0.793669  0.023644  1.917602  0.039  -0.756219  0.022487  2.1149  0.034  -0.78206  0.017838  2.086754  0.027  -0.57229  -0.735857  0.026829  2.135074  0.039
O  O50  1  0.39247807  0.60190425  0.28978544  1  -0.827275  0.033316  1.951349  0.057  -0.79583  0.029136  2.180592  0.046  -0.824939  0.022468  2.143948  0.036  -0.57955  -0.772632  0.035394  2.206595  0.054
O  O51  1  0.60752563  0.39809594  0.71020952  1  -0.827204  0.033313  1.951474  0.057  -0.795784  0.029135  2.18073  0.046  -0.824859  0.022466  2.144135  0.036  -0.579477  -0.772579  0.03539  2.206732  0.054
O  O52  1  0.05578256  0.98239169  0.30860681  1  -0.829026  0.021362  1.907156  0.039  -0.796521  0.019877  2.104454  0.032  -0.821013  0.015427  2.068495  0.026  -0.577785  -0.777145  0.024132  2.130061  0.038
O  O53  1  0.94422188  0.01760251  0.69139453  1  -0.829048  0.02136  1.907201  0.039  -0.79661  0.019876  2.104417  0.032  -0.821093  0.015427  2.068432  0.026  -0.577823  -0.777232  0.024131  2.130028  0.038
