# generated using pymatgen
data_NiH26C26(NO2)4
_symmetry_space_group_name_H-M   'P 1'
_cell_length_a   9.50130986
_cell_length_b   15.67658757
_cell_length_c   18.39772353
_cell_angle_alpha   89.99988272
_cell_angle_beta   90.00019877
_cell_angle_gamma   89.99960777
_symmetry_Int_Tables_number   1
_chemical_formula_structural   NiH26C26(NO2)4
_chemical_formula_sum   'Ni4 H104 C104 N16 O32'
_cell_volume   2740.30625989
_cell_formula_units_Z   4
loop_
 _symmetry_equiv_pos_site_id
 _symmetry_equiv_pos_as_xyz
  1  'x, y, z'
loop_
 _atom_site_type_symbol
 _atom_site_label
 _atom_site_symmetry_multiplicity
 _atom_site_fract_x
 _atom_site_fract_y
 _atom_site_fract_z
 _atom_site_occupancy
 _atom_site_pbe_bader_charge
 _atom_site_pbe_bader_spin_density
 _atom_site_pbe_cm5_charge
 _atom_site_pbe_ddec_charge
 _atom_site_pbe_ddec_spin_density
 _atom_site_pbe_ddec_sum_bond_order
 _atom_site_pbe_magmom
Ni  Ni0  1  0.95308407  0.56556790  0.23482235  1  1.181757  1.572815  0.634767  0.794048  1.786396  2.438031  1.561
Ni  Ni1  1  0.04691405  0.06556551  0.26517681  1  1.18203  1.57281  0.634754  0.794032  1.786402  2.438153  1.561
Ni  Ni2  1  0.04691702  0.93443133  0.73482547  1  1.181807  1.572813  0.634752  0.794022  1.786404  2.438112  1.561
Ni  Ni3  1  0.95308554  0.43443030  0.76517775  1  1.181804  1.572811  0.634765  0.794034  1.786398  2.438054  1.561
H  H4  1  0.95468960  0.70288278  0.29720712  1  0.635315  -0.000236  0.28451  0.367486  -0.000158  0.988593  0.0
H  H5  1  0.04531118  0.20288183  0.20279343  1  0.635264  -0.000236  0.28451  0.367462  -0.000158  0.988617  0.0
H  H6  1  0.04530666  0.79711885  0.79720722  1  0.635113  -0.000237  0.284539  0.367514  -0.000158  0.988551  0.0
H  H7  1  0.95469536  0.29711797  0.70279244  1  0.635086  -0.000237  0.284532  0.367508  -0.000158  0.988558  0.0
H  H8  1  0.98451025  0.64347047  0.36353388  1  0.639756  0.000361  0.301156  0.390719  0.000403  0.925589  0.001
H  H9  1  0.01549330  0.14347044  0.13646569  1  0.640185  0.000362  0.301149  0.390691  0.000403  0.925626  0.001
H  H10  1  0.01548960  0.85652909  0.86353545  1  0.640299  0.000362  0.30114  0.390682  0.000403  0.925633  0.001
H  H11  1  0.98450964  0.35653079  0.63646410  1  0.640272  0.000362  0.30112  0.390622  0.000404  0.925706  0.001
H  H12  1  0.95182753  0.65836694  0.11701639  1  0.62102  0.000198  0.291768  0.379403  0.000252  0.957399  0.0
H  H13  1  0.04817480  0.15836618  0.38298207  1  0.621013  0.000198  0.291771  0.379406  0.000252  0.957405  0.0
H  H14  1  0.04817909  0.84163258  0.61702130  1  0.621528  0.000199  0.291737  0.379379  0.000252  0.957452  0.0
H  H15  1  0.95182664  0.34163127  0.88298154  1  0.621049  0.000198  0.291775  0.37943  0.000252  0.957373  0.0
H  H16  1  0.10776945  0.62048478  0.13671375  1  0.642712  4.3e-05  0.280355  0.368845  0.000212  0.982263  0.0
H  H17  1  0.89223331  0.12048440  0.36328423  1  0.642734  4.3e-05  0.280371  0.368896  0.000212  0.982204  0.0
H  H18  1  0.89223519  0.87951533  0.63671685  1  0.642467  4.3e-05  0.280296  0.3688  0.000213  0.982342  0.0
H  H19  1  0.10776695  0.37951437  0.86328538  1  0.642742  4.3e-05  0.280374  0.368884  0.000212  0.982219  0.0
H  H20  1  0.50530883  0.60154091  0.25582071  1  0.106085  0.000207  0.098003  0.099139  0.000147  1.029399  0.0
H  H21  1  0.49468888  0.10154055  0.24417567  1  0.106067  0.000207  0.098002  0.099152  0.000147  1.029361  0.0
H  H22  1  0.49468819  0.89846146  0.75582306  1  0.105985  0.000207  0.097999  0.099158  0.000147  1.029311  0.0
H  H23  1  0.50531478  0.39846042  0.74417696  1  0.105987  0.000207  0.097996  0.099168  0.000147  1.029351  0.0
H  H24  1  0.25065640  0.64061306  0.26918569  1  0.151432  -8.8e-05  0.105056  0.122255  -0.000181  1.042063  0.0
H  H25  1  0.74933771  0.14061168  0.23081117  1  0.151078  -8.8e-05  0.10501  0.122256  -0.000181  1.042127  0.0
H  H26  1  0.74934387  0.85939055  0.76918639  1  0.151734  -8.8e-05  0.104989  0.122211  -0.000181  1.042115  0.0
H  H27  1  0.25066586  0.35938740  0.73081424  1  0.151051  -8.8e-05  0.10499  0.1222  -0.000181  1.042244  0.0
H  H28  1  0.18000107  0.79154593  0.26712654  1  0.087956  6.1e-05  0.101332  0.102933  -1.6e-05  1.018233  0.0
H  H29  1  0.82000081  0.29154298  0.23287386  1  0.087989  6.1e-05  0.101362  0.102935  -1.6e-05  1.018146  0.0
H  H30  1  0.81999498  0.70845513  0.76712709  1  0.088071  6.1e-05  0.101359  0.102938  -1.6e-05  1.018173  0.0
H  H31  1  0.18000278  0.20845546  0.73287543  1  0.088041  6.1e-05  0.101348  0.102949  -1.6e-05  1.018166  0.0
H  H32  1  0.36318146  0.90575728  0.26015890  1  0.05518  0.000118  0.095996  0.098394  -1.3e-05  1.035694  0.0
H  H33  1  0.63682439  0.40575698  0.23984022  1  0.055117  0.000118  0.096001  0.098395  -1.3e-05  1.035825  0.0
H  H34  1  0.63681560  0.59424380  0.76015986  1  0.055205  0.000118  0.095996  0.09838  -1.3e-05  1.035702  0.0
H  H35  1  0.36318451  0.09424336  0.73984123  1  0.055223  0.000118  0.096002  0.098398  -1.3e-05  1.035691  0.0
H  H36  1  0.73117388  0.88401905  0.22408413  1  0.097777  0.00018  0.105876  0.108006  0.000126  1.02836  0.0
H  H37  1  0.26882695  0.38401891  0.27591502  1  0.097795  0.00018  0.105886  0.107998  0.000126  1.028366  0.0
H  H38  1  0.26882083  0.61598340  0.72408277  1  0.097698  0.00018  0.105865  0.107979  0.000126  1.028357  0.0
H  H39  1  0.73118429  0.11598326  0.77591557  1  0.097669  0.00018  0.105856  0.107928  0.000126  1.028422  0.0
H  H40  1  0.55370468  0.95586271  0.34966629  1  0.023139  0.001898  0.092211  0.103555  0.000788  1.046586  0.001
H  H41  1  0.44629323  0.45586150  0.15033219  1  0.023183  0.001898  0.092205  0.103548  0.000788  1.046493  0.001
H  H42  1  0.44628771  0.54414326  0.84966755  1  0.022945  0.001898  0.092207  0.103556  0.000788  1.046472  0.001
H  H43  1  0.55370980  0.04413778  0.65033527  1  0.023249  0.001898  0.092198  0.103555  0.000788  1.046509  0.001
H  H44  1  0.70154484  0.55035667  0.14065288  1  0.146457  0.001787  0.120805  0.101987  0.00062  1.014364  0.001
H  H45  1  0.29845661  0.05035557  0.35934414  1  0.146446  0.001787  0.120782  0.101916  0.00062  1.0144  0.001
H  H46  1  0.29845457  0.94964151  0.64065696  1  0.146404  0.001788  0.120764  0.101933  0.00062  1.014392  0.001
H  H47  1  0.70154782  0.44964320  0.85934623  1  0.146444  0.001787  0.120775  0.10193  0.00062  1.014377  0.001
H  H48  1  0.60035062  0.45018341  0.04778051  1  0.078386  0.001075  0.109943  0.111821  0.000512  1.006962  0.0
H  H49  1  0.39965051  0.95018182  0.45221635  1  0.078417  0.001075  0.109949  0.111853  0.000512  1.006895  0.0
H  H50  1  0.39964856  0.04981548  0.54778439  1  0.079614  0.001074  0.109969  0.111881  0.000512  1.006936  0.0
H  H51  1  0.60034994  0.54981753  0.95221624  1  0.078905  0.001074  0.109954  0.111816  0.000512  1.006911  0.0
H  H52  1  0.97772374  0.29805830  0.06987611  1  0.132763  0.001221  0.113827  0.132017  0.000666  1.012542  0.001
H  H53  1  0.02227491  0.79805577  0.43012482  1  0.132717  0.001222  0.113836  0.132012  0.000666  1.012473  0.001
H  H54  1  0.02227560  0.20194118  0.56987850  1  0.132791  0.001222  0.113803  0.132031  0.000666  1.012537  0.001
H  H55  1  0.97772645  0.70194363  0.93012295  1  0.132745  0.001222  0.113841  0.132026  0.000666  1.012444  0.001
H  H56  1  0.05738932  0.40051159  0.16447277  1  0.142677  0.001719  0.124003  0.099317  0.000562  1.020735  0.001
H  H57  1  0.94260922  0.90051059  0.33552744  1  0.142675  0.00172  0.12398  0.099277  0.000562  1.020678  0.001
H  H58  1  0.94261065  0.09948893  0.66447699  1  0.142598  0.001719  0.123989  0.099271  0.000562  1.020758  0.001
H  H59  1  0.05739150  0.59948712  0.83552845  1  0.142656  0.001719  0.123996  0.099322  0.000562  1.020766  0.001
H  H60  1  0.55780540  0.15414350  0.94549615  1  0.005512  5.5e-05  0.104687  0.080348  2.6e-05  0.965491  0.0
H  H61  1  0.44219929  0.65414461  0.55450810  1  0.005541  5.5e-05  0.104607  0.080214  2.6e-05  0.965525  0.0
H  H62  1  0.44218804  0.34585315  0.44549271  1  0.005588  5.5e-05  0.104632  0.080211  2.6e-05  0.965447  0.0
H  H63  1  0.55780374  0.84585442  0.05450433  1  0.005554  5.5e-05  0.104664  0.080277  2.6e-05  0.965498  0.0
H  H64  1  0.61604196  0.23733247  0.88678506  1  0.116878  2e-06  0.116489  0.106031  -1.5e-05  1.013585  0.0
H  H65  1  0.38396494  0.73733496  0.61321796  1  0.117121  2e-06  0.116501  0.106044  -1.5e-05  1.013592  0.0
H  H66  1  0.38394687  0.26266369  0.38678384  1  0.1154  2e-06  0.116505  0.106044  -1.5e-05  1.013615  0.0
H  H67  1  0.61603849  0.76266521  0.11321661  1  0.117131  2e-06  0.116498  0.106047  -1.5e-05  1.013616  0.0
H  H68  1  0.56699099  0.30320563  0.10528718  1  0.098995  -1.8e-05  0.108732  0.090795  -5e-05  1.055435  0.0
H  H69  1  0.43301392  0.80319894  0.39471374  1  0.098645  -1.8e-05  0.108722  0.090757  -5e-05  1.055527  0.0
H  H70  1  0.43301174  0.19679758  0.60528760  1  0.098546  -1.8e-05  0.108697  0.09071  -5e-05  1.05555  0.0
H  H71  1  0.56698615  0.69679735  0.89471168  1  0.099079  -1.8e-05  0.10872  0.090797  -5e-05  1.055398  0.0
H  H72  1  0.52618240  0.19707742  0.08117936  1  0.030843  -3e-06  0.106725  0.087547  -1e-05  0.968968  0.0
H  H73  1  0.47382055  0.69707497  0.41882500  1  0.030802  -3e-06  0.106714  0.087532  -1e-05  0.968968  0.0
H  H74  1  0.47381807  0.30292458  0.58117424  1  0.030808  -3e-06  0.106718  0.087576  -1e-05  0.968926  0.0
H  H75  1  0.52617862  0.80292255  0.91882378  1  0.030868  -3e-06  0.1067  0.087494  -1e-05  0.968908  0.0
H  H76  1  0.30332221  0.27474974  0.09632988  1  0.126346  4e-06  0.117457  0.11073  -1e-05  1.005162  0.0
H  H77  1  0.69668196  0.77474640  0.40367272  1  0.126468  4e-06  0.117433  0.110723  -1e-05  1.005194  0.0
H  H78  1  0.69668046  0.22525350  0.59632366  1  0.126575  4e-06  0.117479  0.110797  -1e-05  1.005123  0.0
H  H79  1  0.30331711  0.72525051  0.90367123  1  0.126408  4e-06  0.117422  0.110711  -1e-05  1.00519  0.0
H  H80  1  0.35881915  0.35647475  0.03512338  1  0.053479  5.3e-05  0.112456  0.099159  2.3e-05  0.960465  0.0
H  H81  1  0.64118620  0.85647405  0.46487691  1  0.053507  5.3e-05  0.11243  0.099123  2.3e-05  0.960479  0.0
H  H82  1  0.64117890  0.14352735  0.53511937  1  0.053515  5.3e-05  0.112477  0.099193  2.3e-05  0.960451  0.0
H  H83  1  0.35881434  0.64352335  0.96487674  1  0.053442  5.3e-05  0.112424  0.099135  2.3e-05  0.960504  0.0
H  H84  1  0.34740769  0.04175532  0.94868884  1  0.058437  0.001213  0.104182  0.103501  0.000572  1.01389  0.0
H  H85  1  0.65260986  0.54175301  0.55131343  1  0.05828  0.001214  0.104117  0.103422  0.000572  1.013907  0.0
H  H86  1  0.65259104  0.45824644  0.44867961  1  0.05857  0.001213  0.104104  0.10343  0.000572  1.013921  0.0
H  H87  1  0.34739527  0.95824603  0.05131126  1  0.058175  0.001214  0.10415  0.103463  0.000572  1.013948  0.0
H  H88  1  0.27603733  0.94470018  0.84697595  1  0.12138  0.001915  0.118314  0.092572  0.00065  1.014201  0.001
H  H89  1  0.72397670  0.44469909  0.65302508  1  0.121359  0.001915  0.118251  0.092476  0.00065  1.014059  0.001
H  H90  1  0.72396557  0.55530389  0.34696972  1  0.121473  0.001915  0.118314  0.09262  0.00065  1.014229  0.001
H  H91  1  0.27602846  0.05529827  0.15302402  1  0.121157  0.001915  0.118258  0.09251  0.00065  1.014045  0.001
H  H92  1  0.93863480  0.09850068  0.79352393  1  0.127695  0.001654  0.120729  0.09387  0.000531  1.04545  0.001
H  H93  1  0.06136526  0.59850236  0.70648205  1  0.127558  0.001655  0.120723  0.093815  0.000531  1.045668  0.001
H  H94  1  0.06135973  0.40150144  0.29351754  1  0.127671  0.001656  0.120741  0.093851  0.000531  1.045623  0.001
H  H95  1  0.93863880  0.90149694  0.20647995  1  0.127642  0.001655  0.120685  0.093797  0.000531  1.045676  0.001
H  H96  1  0.98891711  0.19953074  0.89484675  1  0.142792  0.00125  0.113343  0.1339  0.00074  1.024529  0.0
H  H97  1  0.01108707  0.69953095  0.60516123  1  0.142669  0.00125  0.113353  0.133878  0.00074  1.024589  0.0
H  H98  1  0.01107073  0.30047178  0.39483664  1  0.142866  0.00125  0.113403  0.133868  0.00074  1.024526  0.0
H  H99  1  0.98891526  0.80046795  0.10515831  1  0.142706  0.00125  0.113337  0.13386  0.00074  1.024575  0.0
H  H100  1  0.39158305  0.31635585  0.90417770  1  0.110347  2.5e-05  0.111098  0.106583  2.9e-05  0.990808  0.0
H  H101  1  0.60842402  0.81635681  0.59582192  1  0.110324  2.5e-05  0.111093  0.106579  2.9e-05  0.990779  0.0
H  H102  1  0.60840801  0.18364154  0.40417539  1  0.110245  2.5e-05  0.111067  0.106536  2.9e-05  0.990803  0.0
H  H103  1  0.39157930  0.68364339  0.09582248  1  0.110324  2.5e-05  0.111104  0.106575  2.9e-05  0.990851  0.0
H  H104  1  0.35315306  0.21074944  0.87684231  1  0.098496  -4.9e-05  0.109761  0.095022  -7.8e-05  1.039675  0.0
H  H105  1  0.64685099  0.71075145  0.62315912  1  0.098526  -4.9e-05  0.109762  0.095043  -7.8e-05  1.039725  0.0
H  H106  1  0.64683360  0.28924611  0.37683717  1  0.098165  -4.9e-05  0.109771  0.09499  -7.8e-05  1.039742  0.0
H  H107  1  0.35315357  0.78924933  0.12315671  1  0.098512  -4.9e-05  0.109747  0.095027  -7.8e-05  1.039763  0.0
C  C108  1  0.73414352  0.30849683  0.99087570  1  1.364633  -0.0001  0.249703  0.421664  -0.000209  4.112104  0.0
C  C109  1  0.26586048  0.80849750  0.50912285  1  1.364563  -0.000101  0.249658  0.421692  -0.000209  4.112078  0.0
C  C110  1  0.26586075  0.19149844  0.49087983  1  1.364447  -0.0001  0.249609  0.421471  -0.000209  4.112223  0.0
C  C111  1  0.73413805  0.69150228  0.00912184  1  1.364522  -0.000101  0.249598  0.421526  -0.000209  4.112274  0.0
C  C112  1  0.73001621  0.70359582  0.25416790  1  1.546468  -0.00074  0.20734  0.566755  -0.001168  4.190542  -0.001
C  C113  1  0.26998455  0.20359639  0.24583374  1  1.545992  -0.000738  0.207402  0.566972  -0.001167  4.190171  -0.001
C  C114  1  0.26998185  0.79640464  0.75416840  1  1.546104  -0.000739  0.207413  0.566839  -0.001168  4.190435  -0.001
C  C115  1  0.73001912  0.29640266  0.74583506  1  1.545787  -0.000738  0.207322  0.566725  -0.001168  4.190527  -0.001
C  C116  1  0.57764654  0.73103196  0.25484880  1  -0.011268  0.006338  -0.020527  -0.096554  0.003764  3.926666  0.005
C  C117  1  0.42235812  0.23103189  0.24515279  1  -0.011206  0.006338  -0.020526  -0.096634  0.003765  3.926793  0.005
C  C118  1  0.42235153  0.76896659  0.75484745  1  -0.010961  0.006338  -0.020457  -0.096467  0.003765  3.926696  0.005
C  C119  1  0.57764976  0.26896844  0.74515280  1  -0.011249  0.006338  -0.020432  -0.096407  0.003764  3.926718  0.005
C  C120  1  0.47280137  0.66819515  0.25769640  1  -0.111225  -0.000365  -0.089473  -0.10045  -0.000475  3.989372  0.0
C  C121  1  0.52719980  0.16819402  0.24230530  1  -0.111148  -0.000365  -0.089406  -0.100308  -0.000474  3.989242  0.0
C  C122  1  0.52719252  0.83180721  0.75769621  1  -0.111391  -0.000365  -0.089541  -0.100464  -0.000475  3.989168  0.0
C  C123  1  0.47280806  0.33180759  0.74230067  1  -0.111247  -0.000365  -0.089575  -0.100541  -0.000474  3.989294  0.0
C  C124  1  0.33103976  0.68953682  0.26425576  1  -0.020329  0.000484  -0.090533  -0.075859  0.000239  3.964155  0.0
C  C125  1  0.66896327  0.18953831  0.23573829  1  -0.019987  0.000484  -0.090562  -0.076106  0.000239  3.964225  0.0
C  C126  1  0.66895522  0.81046681  0.76425803  1  -0.020616  0.000484  -0.090441  -0.075892  0.000239  3.964105  0.0
C  C127  1  0.33104560  0.31046396  0.73573942  1  -0.019776  0.000484  -0.090464  -0.07588  0.000239  3.964178  0.0
C  C128  1  0.29119109  0.77519330  0.26438990  1  -0.062691  -0.000528  -0.088637  -0.067474  -0.000592  3.999616  0.0
C  C129  1  0.70880677  0.27519653  0.23561650  1  -0.062783  -0.000528  -0.088665  -0.067313  -0.000592  3.999429  0.0
C  C130  1  0.70880495  0.72481097  0.76438479  1  -0.062685  -0.000529  -0.088702  -0.067468  -0.000593  3.999505  0.0
C  C131  1  0.29119368  0.22480700  0.73561281  1  -0.062667  -0.000528  -0.088641  -0.06743  -0.000592  3.999482  0.0
C  C132  1  0.39350713  0.83871839  0.26079874  1  -0.128609  0.000705  -0.098906  -0.157482  0.000349  3.990869  0.0
C  C133  1  0.60649210  0.33871950  0.23920430  1  -0.128568  0.000705  -0.098929  -0.157552  0.00035  3.99085  0.0
C  C134  1  0.60649203  0.66128269  0.76079735  1  -0.128651  0.000705  -0.098891  -0.157444  0.00035  3.990707  0.0
C  C135  1  0.39350942  0.16128212  0.73919819  1  -0.128684  0.000705  -0.098904  -0.157468  0.00035  3.990747  0.0
C  C136  1  0.53765473  0.81820789  0.25809474  1  0.002448  0.000526  -0.007978  0.083707  8.2e-05  3.987656  0.0
C  C137  1  0.46234053  0.31820640  0.24190398  1  0.002114  0.000526  -0.00794  0.083733  8.2e-05  3.9878  0.0
C  C138  1  0.46234020  0.68179128  0.75809742  1  0.002145  0.000526  -0.008049  0.083551  8.2e-05  3.98765  0.0
C  C139  1  0.53765996  0.18179330  0.74190461  1  0.002142  0.000526  -0.008009  0.083578  8.2e-05  3.987622  0.0
C  C140  1  0.64179157  0.88698923  0.26094893  1  -0.027471  -0.00121  -0.076329  -0.058366  -0.001441  3.984184  -0.001
C  C141  1  0.35821027  0.38698880  0.23905130  1  -0.027257  -0.00121  -0.076421  -0.058418  -0.00144  3.984361  -0.001
C  C142  1  0.35820128  0.61301058  0.76094937  1  -0.027759  -0.001209  -0.076237  -0.058146  -0.00144  3.984064  -0.001
C  C143  1  0.64179862  0.11301345  0.73905224  1  -0.027785  -0.001209  -0.076333  -0.058188  -0.00144  3.98413  -0.001
C  C144  1  0.63711833  0.95160911  0.30909342  1  -0.042557  0.006856  -0.113335  -0.261506  0.004105  3.947785  0.005
C  C145  1  0.36287752  0.45160751  0.19090670  1  -0.042527  0.006855  -0.113279  -0.261518  0.004104  3.947878  0.005
C  C146  1  0.36287063  0.54839377  0.80909397  1  -0.041706  0.006854  -0.11333  -0.261624  0.004104  3.947976  0.005
C  C147  1  0.63712473  0.04839295  0.69090938  1  -0.041919  0.006854  -0.113267  -0.261573  0.004104  3.947852  0.005
C  C148  1  0.75406123  0.01390606  0.31660777  1  1.504507  0.000402  0.196651  0.603168  -0.000157  4.226839  0.0
C  C149  1  0.24594064  0.51390384  0.18339040  1  1.504796  0.000402  0.196638  0.603235  -0.000156  4.226841  0.0
C  C150  1  0.24593871  0.48609665  0.81660952  1  1.504755  0.000402  0.196608  0.603247  -0.000156  4.226901  0.0
C  C151  1  0.75406327  0.98609615  0.68339306  1  1.504322  0.000403  0.196746  0.603357  -0.000157  4.226763  0.0
C  C152  1  0.75802468  0.49342965  0.12304971  1  0.505074  -0.004808  0.047454  0.090012  -0.005482  3.935702  -0.003
C  C153  1  0.24197596  0.99343017  0.37695251  1  0.505041  -0.004807  0.047472  0.090096  -0.005482  3.935913  -0.003
C  C154  1  0.24197396  0.00656906  0.62305338  1  0.503999  -0.004808  0.047646  0.090183  -0.005483  3.935887  -0.003
C  C155  1  0.75802609  0.50657063  0.87695058  1  0.504645  -0.004808  0.047462  0.090011  -0.005482  3.935749  -0.003
C  C156  1  0.70320396  0.43750311  0.07168847  1  -0.047732  0.0057  -0.083564  -0.169857  0.003117  3.992371  0.004
C  C157  1  0.29679416  0.93750456  0.42831168  1  -0.047756  0.005699  -0.083605  -0.169918  0.003117  3.992524  0.004
C  C158  1  0.29679328  0.06249380  0.57169159  1  -0.048389  0.0057  -0.083737  -0.170127  0.003117  3.99265  0.004
C  C159  1  0.70320824  0.56249357  0.92831336  1  -0.047787  0.0057  -0.08359  -0.169815  0.003117  3.992436  0.004
C  C160  1  0.78166822  0.36601165  0.05100941  1  -0.002589  -0.007533  0.007756  0.025195  -0.008325  3.989929  -0.005
C  C161  1  0.21833282  0.86601018  0.44898923  1  -0.002054  -0.007534  0.0078  0.025199  -0.008327  3.989897  -0.005
C  C162  1  0.21833310  0.13398723  0.55101227  1  -0.002072  -0.007533  0.007787  0.025363  -0.008326  3.989979  -0.005
C  C163  1  0.78166867  0.63398917  0.94898930  1  -0.001987  -0.007534  0.007795  0.025218  -0.008327  3.989927  -0.005
C  C164  1  0.91251983  0.35296067  0.08379675  1  -0.0446  0.006137  -0.069154  -0.128747  0.003522  3.892892  0.005
C  C165  1  0.08747819  0.85295982  0.41620355  1  -0.044581  0.006137  -0.069193  -0.128721  0.003522  3.892827  0.005
C  C166  1  0.08747854  0.14703558  0.58379663  1  -0.044634  0.006137  -0.069149  -0.128878  0.003522  3.892874  0.005
C  C167  1  0.91252307  0.64703834  0.91620437  1  -0.044566  0.006137  -0.069176  -0.128726  0.003522  3.89274  0.005
C  C168  1  0.95803235  0.41055404  0.13628421  1  0.446494  -0.004964  0.055707  0.101891  -0.005657  3.898102  -0.003
C  C169  1  0.04196923  0.91055287  0.36371544  1  0.446482  -0.004965  0.055734  0.101918  -0.005658  3.898114  -0.003
C  C170  1  0.04196848  0.08944719  0.63628738  1  0.446538  -0.004964  0.055778  0.102033  -0.005656  3.898026  -0.003
C  C171  1  0.95803274  0.58944541  0.86371427  1  0.446449  -0.004965  0.055755  0.101881  -0.005658  3.89815  -0.003
C  C172  1  0.55068700  0.22320384  0.93416859  1  0.329765  2.2e-05  -0.058343  -0.077509  -2e-06  3.903438  0.0
C  C173  1  0.44931270  0.72320489  0.56583336  1  0.329545  2.2e-05  -0.058244  -0.077265  -2e-06  3.903227  0.0
C  C174  1  0.44930426  0.27679221  0.43416638  1  0.331898  2.2e-05  -0.058309  -0.077402  -2e-06  3.903293  0.0
C  C175  1  0.55068516  0.77679475  0.06583242  1  0.32947  2.2e-05  -0.058296  -0.077329  -2e-06  3.903275  0.0
C  C176  1  0.52163311  0.26381646  0.06227914  1  0.29356  -4.3e-05  -0.057735  -0.087624  -8.1e-05  3.911151  0.0
C  C177  1  0.47837645  0.76381395  0.43772348  1  0.293954  -4.3e-05  -0.057683  -0.087482  -8.1e-05  3.911099  0.0
C  C178  1  0.47836828  0.23618558  0.56227685  1  0.293928  -4.3e-05  -0.057667  -0.087555  -8.1e-05  3.911175  0.0
C  C179  1  0.52162706  0.73618288  0.93772236  1  0.293435  -4.3e-05  -0.057677  -0.087496  -8.1e-05  3.910892  0.0
C  C180  1  0.36797727  0.28815437  0.04833758  1  0.304282  1.9e-05  -0.056018  -0.08389  1.9e-05  3.877664  0.0
C  C181  1  0.63202780  0.78815182  0.45166554  1  0.304027  1.9e-05  -0.055964  -0.083917  1.9e-05  3.877819  0.0
C  C182  1  0.63202087  0.21184835  0.54833344  1  0.304131  1.9e-05  -0.056074  -0.084081  1.9e-05  3.877724  0.0
C  C183  1  0.36797475  0.71184498  0.95166365  1  0.304369  1.9e-05  -0.055959  -0.083881  1.9e-05  3.877793  0.0
C  C184  1  0.20438043  0.18485047  0.99448882  1  1.407763  0.00019  0.245174  0.418122  5.7e-05  4.130084  0.0
C  C185  1  0.79562601  0.68484960  0.50551211  1  1.407696  0.00019  0.245321  0.418232  5.7e-05  4.129637  0.0
C  C186  1  0.79561228  0.31515181  0.49448281  1  1.408538  0.00019  0.24517  0.418196  5.7e-05  4.129659  0.0
C  C187  1  0.20437459  0.81515019  0.00551048  1  1.407761  0.00019  0.245281  0.418251  5.7e-05  4.129996  0.0
C  C188  1  0.17178293  0.12794793  0.93103262  1  -0.069398  -0.007495  0.009641  0.034725  -0.008271  3.985008  -0.005
C  C189  1  0.82822732  0.62794995  0.56897167  1  -0.06953  -0.007494  0.009575  0.034673  -0.00827  3.984839  -0.005
C  C190  1  0.82820620  0.37205323  0.43102277  1  -0.069925  -0.007495  0.009468  0.034513  -0.008271  3.985028  -0.005
C  C191  1  0.17177792  0.87205032  0.06897043  1  -0.069534  -0.007495  0.009588  0.034629  -0.008271  3.984935  -0.005
C  C192  1  0.25407510  0.05592445  0.91646356  1  -0.05588  0.005792  -0.085806  -0.168809  0.003154  3.985396  0.004
C  C193  1  0.74594017  0.55592359  0.58353705  1  -0.055968  0.005793  -0.085753  -0.168761  0.003155  3.985515  0.004
C  C194  1  0.74592341  0.44407802  0.41645452  1  -0.055763  0.005792  -0.085615  -0.168623  0.003154  3.985467  0.004
C  C195  1  0.25406938  0.94407728  0.08353691  1  -0.056108  0.005793  -0.085805  -0.168819  0.003155  3.98543  0.004
C  C196  1  0.21604572  0.00192687  0.85989897  1  0.540903  -0.004748  0.045767  0.091932  -0.005408  3.95527  -0.003
C  C197  1  0.78396069  0.50192763  0.64010609  1  0.54081  -0.004747  0.045828  0.092031  -0.005407  3.955251  -0.003
C  C198  1  0.78395030  0.49807573  0.35988936  1  0.540577  -0.004748  0.045741  0.091775  -0.005408  3.955543  -0.003
C  C199  1  0.21604082  0.99807119  0.14010470  1  0.541511  -0.004747  0.045845  0.092041  -0.005406  3.95529  -0.003
C  C200  1  0.02660389  0.08777315  0.83019070  1  0.489105  -0.005031  0.054379  0.104661  -0.005772  3.900659  -0.003
C  C201  1  0.97340366  0.58776987  0.66981475  1  0.489182  -0.005032  0.054405  0.104781  -0.005773  3.900809  -0.003
C  C202  1  0.97339509  0.41223335  0.33018484  1  0.48916  -0.005032  0.054337  0.104658  -0.005773  3.900913  -0.003
C  C203  1  0.02660016  0.91222633  0.16981154  1  0.489139  -0.005031  0.054473  0.104782  -0.005773  3.900741  -0.003
C  C204  1  0.05514720  0.14370037  0.88690259  1  -0.013615  0.006447  -0.072621  -0.137444  0.003652  3.900962  0.005
C  C205  1  0.94485972  0.64370245  0.61310277  1  -0.013405  0.006448  -0.072595  -0.137416  0.003653  3.90098  0.005
C  C206  1  0.94483953  0.35629834  0.38689297  1  -0.013318  0.006449  -0.072619  -0.137308  0.003653  3.900995  0.005
C  C207  1  0.05514582  0.85629707  0.11310025  1  -0.013445  0.006447  -0.072581  -0.137324  0.003652  3.900882  0.005
C  C208  1  0.39798997  0.24894766  0.92075427  1  0.243606  -6.4e-05  -0.060582  -0.095995  -8.8e-05  3.89592  0.0
C  C209  1  0.60201365  0.74894740  0.57924709  1  0.24363  -6.4e-05  -0.060598  -0.096109  -8.8e-05  3.895943  0.0
C  C210  1  0.60199909  0.25104970  0.42074966  1  0.243277  -6.4e-05  -0.060593  -0.09593  -8.8e-05  3.896033  0.0
C  C211  1  0.39798745  0.75105156  0.07924592  1  0.243599  -6.4e-05  -0.060618  -0.096097  -8.8e-05  3.896086  0.0
N  N212  1  0.88327707  0.48022303  0.15544950  1  -1.202296  0.071593  -0.317208  -0.231566  0.041321  3.562827  0.065
N  N213  1  0.11672583  0.98022032  0.34454949  1  -1.20221  0.071597  -0.317208  -0.231596  0.041322  3.562948  0.065
N  N214  1  0.11672495  0.01977751  0.65545346  1  -1.20134  0.071594  -0.31729  -0.2316  0.041322  3.562935  0.065
N  N215  1  0.88327811  0.51977546  0.84454885  1  -1.201891  0.071595  -0.317237  -0.231557  0.041321  3.562842  0.065
N  N216  1  0.60582776  0.27106037  0.99600342  1  -1.179638  -0.000269  -0.273499  -0.104687  -0.000305  3.616465  0.0
N  N217  1  0.39417456  0.77105605  0.50399573  1  -1.1797  -0.000269  -0.273541  -0.104873  -0.000305  3.616402  0.0
N  N218  1  0.39417129  0.22894191  0.49600445  1  -1.179734  -0.000269  -0.273527  -0.104687  -0.000305  3.616552  0.0
N  N219  1  0.60582498  0.72894373  0.00399497  1  -1.179743  -0.000269  -0.273589  -0.104886  -0.000305  3.616437  0.0
N  N220  1  0.31536901  0.23830576  0.98712873  1  -1.163796  0.000173  -0.272735  -0.097144  6.8e-05  3.621733  0.0
N  N221  1  0.68463893  0.73830405  0.51287321  1  -1.163808  0.000173  -0.272796  -0.097098  6.8e-05  3.621807  0.0
N  N222  1  0.68462576  0.26169462  0.48712206  1  -1.164255  0.000173  -0.272769  -0.097145  6.8e-05  3.621926  0.0
N  N223  1  0.31536382  0.76169507  0.01287132  1  -1.163909  0.000173  -0.272754  -0.097157  6.8e-05  3.621819  0.0
N  N224  1  0.10400831  0.01738779  0.81705388  1  -1.220768  0.069187  -0.323661  -0.231893  0.040142  3.575122  0.063
N  N225  1  0.89600214  0.51738607  0.68294898  1  -1.220663  0.06919  -0.323641  -0.231908  0.040144  3.575231  0.063
N  N226  1  0.89599584  0.48261555  0.31704939  1  -1.220746  0.069191  -0.323618  -0.231823  0.040145  3.57532  0.063
N  N227  1  0.10400387  0.98261009  0.18294796  1  -1.220977  0.069188  -0.32371  -0.23198  0.040143  3.575324  0.063
O  O228  1  0.75358177  0.62528028  0.23762518  1  -1.161325  0.065046  -0.316706  -0.569421  0.036275  2.36197  0.06
O  O229  1  0.24641883  0.12527899  0.26237388  1  -1.160778  0.065049  -0.316758  -0.569536  0.036276  2.361862  0.06
O  O230  1  0.24641723  0.87472277  0.73762876  1  -1.160683  0.06505  -0.316762  -0.569491  0.036278  2.361942  0.06
O  O231  1  0.75358496  0.37472066  0.76237456  1  -1.160712  0.065052  -0.316739  -0.569418  0.036277  2.361875  0.06
O  O232  1  0.82320522  0.75763990  0.27210820  1  -1.168511  -0.000909  -0.307962  -0.528368  -0.001678  2.193052  -0.001
O  O233  1  0.17680019  0.25763961  0.22789226  1  -1.168534  -0.000909  -0.307946  -0.5284  -0.001678  2.192986  -0.001
O  O234  1  0.17679612  0.74236116  0.77210862  1  -1.168772  -0.000909  -0.307989  -0.528427  -0.001678  2.193054  -0.001
O  O235  1  0.82320968  0.24236012  0.72789439  1  -1.168533  -0.000909  -0.307928  -0.528406  -0.001679  2.193162  -0.001
O  O236  1  0.84880695  0.01207963  0.26660710  1  -1.140666  0.071492  -0.321722  -0.568536  0.039756  2.364625  0.066
O  O237  1  0.15119598  0.51208024  0.23339161  1  -1.141032  0.071495  -0.321712  -0.56856  0.039758  2.364574  0.066
O  O238  1  0.15119581  0.48791873  0.76660706  1  -1.141073  0.071495  -0.32172  -0.568595  0.039758  2.364598  0.066
O  O239  1  0.84880615  0.98792027  0.73339444  1  -1.140663  0.071489  -0.321782  -0.568646  0.039755  2.364557  0.066
O  O240  1  0.75461264  0.06225389  0.37209611  1  -1.171424  -0.000189  -0.333725  -0.563213  -0.001262  2.120296  0.0
O  O241  1  0.24538762  0.56225308  0.12790360  1  -1.171401  -0.000189  -0.33373  -0.563244  -0.001261  2.120335  0.0
O  O242  1  0.24538978  0.43774996  0.87209687  1  -1.171383  -0.000189  -0.333703  -0.563228  -0.001261  2.120258  0.0
O  O243  1  0.75461486  0.93774577  0.62790580  1  -1.171319  -0.000189  -0.333757  -0.563249  -0.001261  2.120242  0.0
O  O244  1  0.81116224  0.29888176  0.93644730  1  -1.148674  -0.000329  -0.283059  -0.484136  -0.000664  2.204813  0.0
O  O245  1  0.18884291  0.79887942  0.56355017  1  -1.148993  -0.000329  -0.283024  -0.484115  -0.000664  2.204805  0.0
O  O246  1  0.18884166  0.20111109  0.43645345  1  -1.148828  -0.000329  -0.282967  -0.483982  -0.000664  2.204878  0.0
O  O247  1  0.81115282  0.70111767  0.06354819  1  -1.148922  -0.000329  -0.282965  -0.484003  -0.000664  2.204952  0.0
O  O248  1  0.13141156  0.18005480  0.05074102  1  -1.165786  -0.000215  -0.298223  -0.506924  -0.000518  2.172033  0.0
O  O249  1  0.86859790  0.68005191  0.44926175  1  -1.16576  -0.000215  -0.298299  -0.506954  -0.000518  2.171923  0.0
O  O250  1  0.86857817  0.31995046  0.55073222  1  -1.165866  -0.000215  -0.298146  -0.506846  -0.000518  2.171741  0.0
O  O251  1  0.13140254  0.81994489  0.94926141  1  -1.165819  -0.000215  -0.298238  -0.506903  -0.000518  2.1721  0.0
O  O252  1  0.01975778  0.65546812  0.31452640  1  -1.229282  0.066304  -0.567976  -0.730742  0.036991  2.14201  0.057
O  O253  1  0.98024459  0.15546781  0.18547314  1  -1.229692  0.066298  -0.567967  -0.730678  0.036989  2.142048  0.057
O  O254  1  0.98023964  0.84453347  0.81452809  1  -1.229552  0.066303  -0.567965  -0.730696  0.03699  2.142055  0.057
O  O255  1  0.01976184  0.34453139  0.68547094  1  -1.229535  0.066301  -0.567947  -0.73061  0.036989  2.142019  0.057
O  O256  1  0.02161596  0.65158673  0.15623998  1  -1.22219  0.068657  -0.57711  -0.737576  0.038207  2.165846  0.06
O  O257  1  0.97838540  0.15158731  0.34375903  1  -1.22238  0.068667  -0.577125  -0.737623  0.03821  2.165861  0.06
O  O258  1  0.97838987  0.84841333  0.65624383  1  -1.222613  0.068667  -0.577021  -0.737514  0.03821  2.165934  0.06
O  O259  1  0.02161578  0.34841086  0.84375900  1  -1.222277  0.068658  -0.577138  -0.737642  0.038208  2.165805  0.06
