# generated using pymatgen
data_AgH8C8N5O2
_symmetry_space_group_name_H-M   'P 1'
_cell_length_a   8.11887973
_cell_length_b   9.98843367
_cell_length_c   12.56196829
_cell_angle_alpha   82.43831593
_cell_angle_beta   89.98551957
_cell_angle_gamma   74.00580067
_symmetry_Int_Tables_number   1
_chemical_formula_structural   AgH8C8N5O2
_chemical_formula_sum   'Ag4 H32 C32 N20 O8'
_cell_volume   970.06747339
_cell_formula_units_Z   4
loop_
 _symmetry_equiv_pos_site_id
 _symmetry_equiv_pos_as_xyz
  1  'x, y, z'
loop_
 _atom_site_type_symbol
 _atom_site_label
 _atom_site_symmetry_multiplicity
 _atom_site_fract_x
 _atom_site_fract_y
 _atom_site_fract_z
 _atom_site_occupancy
 _atom_site_hle17_bader_spin_density
 _atom_site_hle17_ddec_charge
 _atom_site_hle17_ddec_spin_density
 _atom_site_hle17_ddec_sum_bond_order
 _atom_site_hle17_magmom
 _atom_site_hse06_10hf_bader_spin_density
 _atom_site_hse06_10hf_ddec_charge
 _atom_site_hse06_10hf_ddec_spin_density
 _atom_site_hse06_10hf_ddec_sum_bond_order
 _atom_site_hse06_10hf_magmom
 _atom_site_hse06_bader_spin_density
 _atom_site_hse06_ddec_charge
 _atom_site_hse06_ddec_spin_density
 _atom_site_hse06_ddec_sum_bond_order
 _atom_site_hse06_magmom
 _atom_site_pbe_bader_spin_density
 _atom_site_pbe_cm5_charge
 _atom_site_pbe_ddec_charge
 _atom_site_pbe_ddec_spin_density
 _atom_site_pbe_ddec_sum_bond_order
 _atom_site_pbe_magmom
Ag  Ag0  1  0.48702612  0.00427729  0.75830011  1  0  0.544903  0  1.405145  0  0  0.397952  0  1.830071  0  0  0.424896  0  1.794514  0  0  0.493142  0.379096  0  1.854295  0
Ag  Ag1  1  0.51297380  0.99572055  0.24170166  1  0  0.544896  0  1.405112  0  0  0.397955  0  1.830031  0  0  0.424897  0  1.794478  0  0  0.493136  0.379103  0  1.854255  0
Ag  Ag2  1  0.53414643  0.55758627  0.39297945  1  0  0.575068  0  1.33385  0  0  0.444578  0  1.783483  0  0  0.484352  0  1.721818  0  0  0.398126  0.416011  0  1.827776  0
Ag  Ag3  1  0.46585068  0.44242729  0.60701661  1  0  0.57505  0  1.333885  0  0  0.444564  0  1.783505  0  0  0.484341  0  1.721835  0  0  0.398112  0.415997  0  1.827796  0
H  H4  1  0.07758349  0.86785796  0.23245392  1  0  0.328135  0  0.923402  0  0  0.300693  0  1.005443  0  0  0.30924  0  0.998259  0  0  0.292389  0.294717  0  1.010297  0
H  H5  1  0.92241114  0.13214094  0.76754695  1  0  0.328081  0  0.923465  0  0  0.30062  0  1.005517  0  0  0.309161  0  0.998346  0  0  0.292372  0.294644  0  1.010366  0
H  H6  1  0.22404564  0.70206040  0.28290605  1  0  0.345102  0  0.90617  0  0  0.325656  0  0.971564  0  0  0.333222  0  0.965525  0  0  0.300351  0.320249  0  0.975926  0
H  H7  1  0.77594810  0.29793742  0.71709175  1  0  0.345094  0  0.906142  0  0  0.325635  0  0.971557  0  0  0.333202  0  0.965516  0  0  0.300337  0.320227  0  0.975919  0
H  H8  1  0.56715566  0.25170621  0.90251732  1  0  0.100722  0  0.931759  0  0  0.111947  0  0.986986  0  0  0.114447  0  0.984088  0  0  0.120412  0.109977  0  0.989254  0
H  H9  1  0.43284267  0.74829266  0.09748195  1  0  0.100723  0  0.931757  0  0  0.111949  0  0.986983  0  0  0.114449  0  0.984084  0  0  0.120418  0.109982  0  0.989252  0
H  H10  1  0.95241298  0.12644846  0.26197620  1  0  0.317079  0  0.936833  0  0  0.292057  0  1.016799  0  0  0.300073  0  1.010506  0  0  0.287348  0.286447  0  1.021082  0
H  H11  1  0.04758343  0.87355254  0.73802522  1  0  0.3171  0  0.936776  0  0  0.292087  0  1.016725  0  0  0.300102  0  1.010431  0  0  0.287361  0.286477  0  1.021007  0
H  H12  1  0.81345891  0.29494530  0.20962686  1  0  0.345619  0  0.919236  0  0  0.323506  0  0.98783  0  0  0.332355  0  0.980506  0  0  0.291881  0.317083  0  0.993188  0
H  H13  1  0.18653679  0.70505780  0.79037354  1  0  0.345653  0  0.919229  0  0  0.323533  0  0.987829  0  0  0.332384  0  0.980503  0  0  0.291896  0.31711  0  0.993188  0
H  H14  1  0.98422638  0.71476726  0.15831750  1  0  0.086787  0  0.928032  0  0  0.106206  0  0.985262  0  0  0.107243  0  0.984817  0  0  0.119313  0.105375  0  0.985637  0
H  H15  1  0.01577494  0.28523369  0.84168074  1  0  0.086802  0  0.928045  0  0  0.106201  0  0.985262  0  0  0.10724  0  0.984817  0  0  0.119305  0.105368  0  0.985636  0
H  H16  1  0.07073234  0.65058048  0.03939640  1  0  0.074939  0  0.944334  0  0  0.086911  0  1.012926  0  0  0.087582  0  1.012521  0  0  0.107013  0.086255  0  1.013212  0
H  H17  1  0.92926547  0.34942366  0.96060388  1  0  0.074931  0  0.944385  0  0  0.086883  0  1.01297  0  0  0.087553  0  1.012565  0  0  0.107002  0.086226  0  1.013259  0
H  H18  1  0.96593653  0.46612357  0.12803625  1  0  0.098349  0  0.946571  0  0  0.114874  0  1.010442  0  0  0.116596  0  1.010151  0  0  0.100575  0.113405  0  1.011286  0
H  H19  1  0.03406693  0.53387846  0.87196584  1  0  0.098372  0  0.946509  0  0  0.114891  0  1.010398  0  0  0.116619  0  1.010098  0  0  0.100548  0.113419  0  1.011243  0
H  H20  1  0.79866818  0.55105679  0.03377119  1  0  0.104993  0  0.930727  0  0  0.123985  0  0.986414  0  0  0.125889  0  0.985322  0  0  0.105432  0.123079  0  0.986483  0
H  H21  1  0.20133298  0.44894106  0.96623216  1  0  0.10495  0  0.930766  0  0  0.12394  0  0.986472  0  0  0.125845  0  0.985379  0  0  0.10542  0.123033  0  0.986543  0
H  H22  1  0.74424423  0.72427579  0.89289724  1  0  0.09915  0  0.925384  0  0  0.113477  0  0.982221  0  0  0.116057  0  0.978177  0  0  0.144079  0.111404  0  0.985349  0
H  H23  1  0.25576292  0.27572622  0.10710404  1  0  0.099134  0  0.925416  0  0  0.113473  0  0.98224  0  0  0.116051  0  0.978199  0  0  0.144062  0.111404  0  0.985369  0
H  H24  1  0.98529335  0.45352203  0.30779708  1  0  0.114303  0  0.963441  0  0  0.134459  0  1.015902  0  0  0.135585  0  1.016693  0  0  0.107128  0.133559  0  1.015435  0
H  H25  1  0.01472290  0.54645988  0.69219207  1  0  0.114327  0  0.963418  0  0  0.134421  0  1.015907  0  0  0.13554  0  1.016716  0  0  0.107118  0.133523  0  1.015428  0
H  H26  1  0.14734275  0.29925296  0.29425061  1  0  0.092459  0  0.940355  0  0  0.107063  0  1.008573  0  0  0.109119  0  1.007051  0  0  0.095213  0.105413  0  1.009927  0
H  H27  1  0.85268147  0.70073114  0.70575341  1  0  0.092588  0  0.94032  0  0  0.107142  0  1.008522  0  0  0.109193  0  1.007027  0  0  0.095285  0.105509  0  1.009827  0
H  H28  1  0.48909369  0.75079689  0.58064653  1  0  0.093318  0  0.938214  0  0  0.100582  0  1.005922  0  0  0.103815  0  1.000889  0  0  0.11998  0.098144  0  1.009619  0
H  H29  1  0.51090904  0.24919985  0.41935136  1  0  0.093369  0  0.938175  0  0  0.100583  0  1.005925  0  0  0.103812  0  1.0009  0  0  0.119995  0.098146  0  1.009623  0
H  H30  1  0.94419217  0.36519631  0.49700926  1  0  0.096424  0  0.94593  0  0  0.110232  0  1.007124  0  0  0.111342  0  1.006998  0  0  0.116049  0.10916  0  1.007818  0
H  H31  1  0.05581038  0.63480463  0.50298738  1  0  0.096422  0  0.945943  0  0  0.110206  0  1.007156  0  0  0.111316  0  1.007034  0  0  0.116054  0.109135  0  1.007852  0
H  H32  1  0.90166135  0.25916714  0.40492679  1  0  0.077185  0  0.929558  0  0  0.094681  0  0.991686  0  0  0.094959  0  0.992123  0  0  0.112378  0.094501  0  0.99141  0
H  H33  1  0.09834050  0.74083589  0.59506883  1  0  0.077109  0  0.929676  0  0  0.094624  0  0.991771  0  0  0.094904  0  0.992208  0  0  0.112352  0.094444  0  0.991496  0
H  H34  1  0.19173927  0.25520316  0.63882666  1  0  0.118773  0  0.94981  0  0  0.125988  0  1.013743  0  0  0.12917  0  1.009206  0  0  0.140684  0.123431  0  1.017558  0
H  H35  1  0.80826329  0.74479781  0.36117396  1  0  0.118778  0  0.949849  0  0  0.126  0  1.013776  0  0  0.129181  0  1.009243  0  0  0.140692  0.123443  0  1.017589  0
C  C36  1  0.81313029  0.94701844  0.04203058  1  0  0.302652  0  3.844123  0  0  0.263541  0  4.118125  0  0  0.279324  0  4.133554  0  0  0.223533  0.253123  0  4.107562  0
C  C37  1  0.18686207  0.05298366  0.95797472  1  0  0.302686  0  3.843909  0  0  0.263447  0  4.117976  0  0  0.27923  0  4.133407  0  0  0.223424  0.253032  0  4.10741  0
C  C38  1  0.30941492  0.96016133  0.54451048  1  0  0.005685  0  3.875673  0  0  0.002624  0  4.129853  0  0  -0.003398  0  4.155743  0  0  0.066003  0.006163  0  4.112636  0
C  C39  1  0.69057901  0.03983233  0.45549176  1  0  0.005613  0  3.875752  0  0  0.002547  0  4.12994  0  0  -0.003476  0  4.15583  0  0  0.065979  0.006096  0  4.112705  0
C  C40  1  0.18524050  0.04176925  0.46561105  1  0  0.305075  0  3.846094  0  0  0.268046  0  4.116026  0  0  0.284481  0  4.131215  0  0  0.225818  0.257454  0  4.10532  0
C  C41  1  0.81475730  0.95822755  0.53439084  1  0  0.305224  0  3.846108  0  0  0.268165  0  4.116  0  0  0.284598  0  4.131187  0  0  0.225831  0.257571  0  4.105292  0
C  C42  1  0.21975200  0.86291163  0.36877488  1  0  0.610242  0  3.841599  0  0  0.566099  0  4.121892  0  0  0.59203  0  4.129268  0  0  0.331869  0.548736  0  4.116391  0
C  C43  1  0.78024510  0.13708725  0.63122439  1  0  0.610424  0  3.841541  0  0  0.566169  0  4.121996  0  0  0.5921  0  4.12937  0  0  0.331879  0.548816  0  4.116482  0
C  C44  1  0.69903164  0.03248266  0.95961820  1  0  0.009332  0  3.850459  0  0  0.006692  0  4.105341  0  0  0.000575  0  4.130807  0  0  0.064755  0.00985  0  4.088702  0
C  C45  1  0.30096142  0.96751733  0.04038653  1  0  0.009261  0  3.850652  0  0  0.006872  0  4.105247  0  0  0.000755  0  4.130719  0  0  0.064836  0.010033  0  4.088605  0
C  C46  1  0.82012839  0.13439663  0.12159764  1  0  0.605482  0  3.83916  0  0  0.564863  0  4.12272  0  0  0.590296  0  4.12932  0  0  0.327524  0.547668  0  4.117791  0
C  C47  1  0.17986731  0.86560648  0.87840435  1  0  0.605439  0  3.839312  0  0  0.564876  0  4.122799  0  0  0.590309  0  4.129399  0  0  0.327546  0.547682  0  4.11787  0
C  C48  1  0.65197770  0.17700197  0.96405999  1  0  0.12791  0  3.726483  0  0  0.094332  0  3.987517  0  0  0.107362  0  3.999199  0  0  0.060356  0.086041  0  3.979759  0
C  C49  1  0.34801853  0.82299589  0.03594337  1  0  0.127912  0  3.72644  0  0  0.094264  0  3.987411  0  0  0.107295  0  3.999092  0  0  0.060359  0.085967  0  3.979658  0
C  C50  1  0.95162675  0.68354031  0.08253858  1  0  0.042244  0  3.613616  0  0  -0.021997  0  3.870296  0  0  -0.016478  0  3.880302  0  0  -0.053001  -0.025483  0  3.863334  0
C  C51  1  0.04836824  0.31646488  0.91745999  1  0  0.042202  0  3.613675  0  0  -0.021923  0  3.87021  0  0  -0.016407  0  3.880225  0  0  -0.052941  -0.025409  0  3.863245  0
C  C52  1  0.86585538  0.56546005  0.10564621  1  0  -0.287766  0  3.676135  0  0  -0.331708  0  3.934017  0  0  -0.337516  0  3.942114  0  0  -0.165812  -0.327706  0  3.928018  0
C  C53  1  0.13414507  0.43453990  0.89435612  1  0  -0.287701  0  3.676141  0  0  -0.331692  0  3.934026  0  0  -0.3375  0  3.942122  0  0  -0.1658  -0.32769  0  3.928026  0
C  C54  1  0.73740687  0.58464605  0.19599715  1  0  0.673182  0  3.909224  0  0  0.630254  0  4.204439  0  0  0.662635  0  4.199703  0  0  0.187493  0.608233  0  4.20663  0
C  C55  1  0.26259482  0.41535389  0.80400517  1  0  0.673193  0  3.909336  0  0  0.630312  0  4.204499  0  0  0.662693  0  4.19976  0  0  0.187495  0.608291  0  4.206688  0
C  C56  1  0.74741605  0.81685636  0.92835110  1  0  0.194526  0  3.648072  0  0  0.126979  0  3.919017  0  0  0.143395  0  3.930557  0  0  0.157554  0.115941  0  3.910998  0
C  C57  1  0.25258494  0.18314568  0.07165100  1  0  0.194558  0  3.648102  0  0  0.127011  0  3.919041  0  0  0.143425  0  3.930586  0  0  0.157608  0.115968  0  3.911028  0
C  C58  1  0.22080368  0.43583587  0.39134389  1  0  0.676968  0  3.904005  0  0  0.629697  0  4.201914  0  0  0.663361  0  4.197424  0  0  0.191323  0.606703  0  4.203837  0
C  C59  1  0.77920257  0.56416504  0.60865115  1  0  0.677448  0  3.903367  0  0  0.630071  0  4.201329  0  0  0.663735  0  4.196831  0  0  0.191476  0.607074  0  4.203255  0
C  C60  1  0.08762225  0.36975251  0.35238344  1  0  -0.283499  0  3.674667  0  0  -0.324193  0  3.923939  0  0  -0.330624  0  3.932622  0  0  -0.170143  -0.319475  0  3.917902  0
C  C61  1  0.91238681  0.63023999  0.64761252  1  0  -0.283873  0  3.674542  0  0  -0.324395  0  3.923764  0  0  -0.330829  0  3.932418  0  0  -0.170194  -0.319689  0  3.917772  0
C  C62  1  0.39038715  0.82398734  0.52604624  1  0  0.128754  0  3.721552  0  0  0.090382  0  3.981361  0  0  0.104027  0  3.994034  0  0  0.061091  0.081135  0  3.973152  0
C  C63  1  0.60960995  0.17601155  0.47395383  1  0  0.128682  0  3.721557  0  0  0.090339  0  3.981378  0  0  0.103985  0  3.994047  0  0  0.061059  0.081085  0  3.973172  0
C  C64  1  0.00356418  0.29427141  0.43995775  1  0  0.042349  0  3.61615  0  0  -0.021198  0  3.871545  0  0  -0.015675  0  3.881763  0  0  -0.055924  -0.025221  0  3.865156  0
C  C65  1  0.99644736  0.70572846  0.56004057  1  0  0.042571  0  3.616021  0  0  -0.021054  0  3.871365  0  0  -0.015538  0  3.881597  0  0  -0.05585  -0.02508  0  3.864976  0
C  C66  1  0.21026475  0.16665752  0.59435866  1  0  0.236945  0  3.590555  0  0  0.167609  0  3.860496  0  0  0.186813  0  3.868776  0  0  0.167422  0.154372  0  3.855515  0
C  C67  1  0.78973641  0.83334031  0.40564231  1  0  0.236883  0  3.590588  0  0  0.167498  0  3.860507  0  0  0.1867  0  3.868786  0  0  0.167402  0.154263  0  3.855525  0
N  N68  1  0.87813885  0.99202320  0.12329912  1  0  -0.529545  0  2.997364  0  0  -0.484204  0  3.269142  0  0  -0.503146  0  3.2772  0  0  -0.334674  -0.471075  0  3.263301  0
N  N69  1  0.12185193  0.00797994  0.87670367  1  0  -0.529539  0  2.997175  0  0  -0.484203  0  3.26899  0  0  -0.503143  0  3.277047  0  0  -0.334682  -0.471067  0  3.263128  0
N  N70  1  0.13594426  0.99888263  0.37817221  1  0  -0.516684  0  3.000234  0  0  -0.472546  0  3.27297  0  0  -0.490578  0  3.279863  0  0  -0.33061  -0.460324  0  3.267955  0
N  N71  1  0.86405354  0.00111415  0.62182808  1  0  -0.516783  0  3.000159  0  0  -0.472614  0  3.272923  0  0  -0.490648  0  3.279824  0  0  -0.330622  -0.460397  0  3.267907  0
N  N72  1  0.17430962  0.80756795  0.28512200  1  0  -0.697065  0  3.099269  0  0  -0.66016  0  3.346334  0  0  -0.683365  0  3.341981  0  0  -0.574246  -0.643686  0  3.348697  0
N  N73  1  0.82568818  0.19242882  0.71487750  1  0  -0.697078  0  3.09939  0  0  -0.660096  0  3.346502  0  0  -0.683299  0  3.342158  0  0  -0.574216  -0.643628  0  3.348854  0
N  N74  1  0.34689712  0.77710019  0.43823576  1  0  -0.468542  0  3.176466  0  0  -0.403621  0  3.470943  0  0  -0.428802  0  3.48123  0  0  -0.338963  -0.386887  0  3.464835  0
N  N75  1  0.65310314  0.22289657  0.56176294  1  0  -0.468576  0  3.176447  0  0  -0.403591  0  3.470898  0  0  -0.428771  0  3.481186  0  0  -0.338918  -0.386861  0  3.464787  0
N  N76  1  0.71198092  0.22697630  0.04435230  1  0  -0.452892  0  2.97811  0  0  -0.415582  0  3.249102  0  0  -0.433607  0  3.257558  0  0  -0.337987  -0.404041  0  3.243074  0
N  N77  1  0.28801478  0.77302679  0.95564809  1  0  -0.452829  0  2.97807  0  0  -0.415536  0  3.249054  0  0  -0.433563  0  3.25751  0  0  -0.337958  -0.403995  0  3.243026  0
N  N78  1  0.84113247  0.81055962  0.02038835  1  0  -0.139551  0  3.466135  0  0  -0.046506  0  3.689712  0  0  -0.064777  0  3.712234  0  0  -0.233539  -0.034175  0  3.673994  0
N  N79  1  0.15886412  0.18944455  0.97961511  1  0  -0.139548  0  3.465991  0  0  -0.046539  0  3.689598  0  0  -0.064809  0  3.71212  0  0  -0.233582  -0.034207  0  3.67388  0
N  N80  1  0.32141871  0.04209816  0.62408115  1  0  -0.375801  0  3.353796  0  0  -0.293344  0  3.658947  0  0  -0.314334  0  3.674374  0  0  -0.380721  -0.278875  0  3.648307  0
N  N81  1  0.67857998  0.95789969  0.37592141  1  0  -0.375735  0  3.353778  0  0  -0.293286  0  3.658946  0  0  -0.314274  0  3.674374  0  0  -0.380733  -0.278822  0  3.648304  0
N  N82  1  0.12508000  0.17159901  0.49922352  1  0  -0.151897  0  3.47688  0  0  -0.05969  0  3.699505  0  0  -0.079271  0  3.721931  0  0  -0.237528  -0.046437  0  3.684193  0
N  N83  1  0.87491746  0.82839885  0.50077984  1  0  -0.152014  0  3.476891  0  0  -0.059658  0  3.699363  0  0  -0.079232  0  3.721788  0  0  -0.237556  -0.046406  0  3.684054  0
N  N84  1  0.66056502  0.94746617  0.88958006  1  0  -0.368648  0  3.377671  0  0  -0.289281  0  3.688455  0  0  -0.308563  0  3.704011  0  0  -0.378552  -0.275908  0  3.677731  0
N  N85  1  0.33943033  0.05253798  0.11042022  1  0  -0.368648  0  3.377791  0  0  -0.289357  0  3.688525  0  0  -0.308639  0  3.704084  0  0  -0.378553  -0.275984  0  3.677803  0
N  N86  1  0.87483946  0.19162640  0.20110759  1  0  -0.700061  0  3.096804  0  0  -0.663113  0  3.34102  0  0  -0.687393  0  3.3376  0  0  -0.576831  -0.645769  0  3.343268  0
N  N87  1  0.12515748  0.80837672  0.79889519  1  0  -0.700108  0  3.09685  0  0  -0.663178  0  3.341049  0  0  -0.687455  0  3.337629  0  0  -0.576898  -0.645836  0  3.343296  0
O  O88  1  0.24375475  0.42796869  0.49226875  1  0  -0.643652  0  2.063489  0  0  -0.571145  0  2.329026  0  0  -0.602159  0  2.31859  0  0  -0.325531  -0.548849  0  2.335852  0
O  O89  1  0.75626382  0.57201748  0.50772948  1  0  -0.64376  0  2.06319  0  0  -0.571249  0  2.328826  0  0  -0.60226  0  2.318389  0  0  -0.325558  -0.548953  0  2.335653  0
O  O90  1  0.67598804  0.70670140  0.22112162  1  0  -0.666628  0  1.948605  0  0  -0.614016  0  2.208011  0  0  -0.639034  0  2.19557  0  0  -0.344236  -0.596119  0  2.216199  0
O  O91  1  0.32401365  0.29329853  0.77887991  1  0  -0.666638  0  1.948705  0  0  -0.614029  0  2.208068  0  0  -0.639047  0  2.195627  0  0  -0.344216  -0.596135  0  2.216257  0
O  O92  1  0.70381915  0.47353162  0.24111850  1  0  -0.639358  0  1.986549  0  0  -0.568627  0  2.223692  0  0  -0.597566  0  2.213015  0  0  -0.332258  -0.54783  0  2.230125  0
O  O93  1  0.29618219  0.52646938  0.75888451  1  0  -0.639404  0  1.986625  0  0  -0.568693  0  2.223764  0  0  -0.597632  0  2.213087  0  0  -0.332271  -0.547896  0  2.230196  0
O  O94  1  0.29799459  0.49340765  0.31847088  1  0  -0.653046  0  1.980716  0  0  -0.585017  0  2.222267  0  0  -0.613932  0  2.210317  0  0  -0.34567  -0.564846  0  2.230034  0
O  O95  1  0.70199124  0.50661013  0.68152235  1  0  -0.653261  0  1.980442  0  0  -0.585203  0  2.222047  0  0  -0.614118  0  2.210092  0  0  -0.345817  -0.565032  0  2.229818  0
