# generated using pymatgen
data_CdP2H18C14(NO3)2
_symmetry_space_group_name_H-M   'P 1'
_cell_length_a   5.77988347
_cell_length_b   10.38601802
_cell_length_c   14.65470770
_cell_angle_alpha   96.97956761
_cell_angle_beta   90.00012426
_cell_angle_gamma   90.00022890
_symmetry_Int_Tables_number   1
_chemical_formula_structural   CdP2H18C14(NO3)2
_chemical_formula_sum   'Cd2 P4 H36 C28 N4 O12'
_cell_volume   873.20258546
_cell_formula_units_Z   2
loop_
 _symmetry_equiv_pos_site_id
 _symmetry_equiv_pos_as_xyz
  1  'x, y, z'
loop_
 _atom_site_type_symbol
 _atom_site_label
 _atom_site_symmetry_multiplicity
 _atom_site_fract_x
 _atom_site_fract_y
 _atom_site_fract_z
 _atom_site_occupancy
 _atom_site_hle17_bader_spin_density
 _atom_site_hle17_ddec_charge
 _atom_site_hle17_ddec_spin_density
 _atom_site_hle17_ddec_sum_bond_order
 _atom_site_hle17_magmom
 _atom_site_hse06_10hf_bader_spin_density
 _atom_site_hse06_10hf_ddec_charge
 _atom_site_hse06_10hf_ddec_spin_density
 _atom_site_hse06_10hf_ddec_sum_bond_order
 _atom_site_hse06_10hf_magmom
 _atom_site_hse06_bader_spin_density
 _atom_site_hse06_ddec_charge
 _atom_site_hse06_ddec_spin_density
 _atom_site_hse06_ddec_sum_bond_order
 _atom_site_hse06_magmom
 _atom_site_pbe_bader_spin_density
 _atom_site_pbe_cm5_charge
 _atom_site_pbe_ddec_charge
 _atom_site_pbe_ddec_spin_density
 _atom_site_pbe_ddec_sum_bond_order
 _atom_site_pbe_magmom
Cd  Cd0  1  0.99999594  0.00000023  0.00000113  1  0  1.290603  0  1.659702  0  0  1.126193  0  2.110792  0  0  1.177264  0  2.053524  0  0  0.793879  1.088119  0  2.15218  0
Cd  Cd1  1  0.50000108  0.00000095  0.50000098  1  0  1.290587  0  1.659721  0  0  1.126138  0  2.110867  0  0  1.177215  0  2.053592  0  0  0.793881  1.088069  0  2.152256  0
P  P2  1  0.50367838  0.83617863  0.93843363  1  0  1.160348  0  4.713034  0  0  0.999785  0  5.184277  0  0  1.040377  0  5.163559  0  0  0.23126  0.971729  0  5.197744  0
P  P3  1  0.00368733  0.16382045  0.56156689  1  0  1.160227  0  4.713257  0  0  0.999713  0  5.184462  0  0  1.040282  0  5.163756  0  0  0.231211  0.971667  0  5.197929  0
P  P4  1  0.49631526  0.16381876  0.06156696  1  0  1.160335  0  4.713129  0  0  0.9998  0  5.184341  0  0  1.040393  0  5.163633  0  0  0.231238  0.971749  0  5.197804  0
P  P5  1  0.99631324  0.83618082  0.43843334  1  0  1.160302  0  4.713298  0  0  0.999807  0  5.18454  0  0  1.040398  0  5.163837  0  0  0.231239  0.971762  0  5.198002  0
H  H6  1  0.50504103  0.84977500  0.03581422  1  0  -0.117181  0  0.893246  0  0  -0.090714  0  0.982346  0  0  -0.092423  0  0.978234  0  0  0.085209  -0.089458  0  0.98501  0
H  H7  1  0.00504344  0.15022243  0.46418547  1  0  -0.117184  0  0.893253  0  0  -0.090715  0  0.982338  0  0  -0.092425  0  0.978228  0  0  0.085202  -0.089461  0  0.985004  0
H  H8  1  0.49495262  0.15022240  0.96418704  1  0  -0.117183  0  0.893258  0  0  -0.090717  0  0.982358  0  0  -0.092427  0  0.978244  0  0  0.085212  -0.089463  0  0.985023  0
H  H9  1  0.99495712  0.84977690  0.53581528  1  0  -0.117196  0  0.89325  0  0  -0.090734  0  0.982356  0  0  -0.092443  0  0.978242  0  0  0.085193  -0.089486  0  0.985026  0
H  H10  1  0.83910841  0.64044870  0.97302985  1  0  0.094059  0  0.95551  0  0  0.105104  0  1.017468  0  0  0.107918  0  1.016224  0  0  0.102296  0.102928  0  1.018738  0
H  H11  1  0.33911685  0.35955215  0.52696974  1  0  0.093985  0  0.955507  0  0  0.105066  0  1.017432  0  0  0.107879  0  1.016193  0  0  0.102276  0.102889  0  1.018704  0
H  H12  1  0.16088697  0.35955161  0.02697166  1  0  0.094038  0  0.95551  0  0  0.105063  0  1.017488  0  0  0.107876  0  1.016244  0  0  0.102289  0.102889  0  1.018755  0
H  H13  1  0.66088718  0.64045007  0.47302852  1  0  0.094036  0  0.955514  0  0  0.105076  0  1.017476  0  0  0.107889  0  1.016233  0  0  0.10228  0.1029  0  1.018744  0
H  H14  1  0.84843460  0.40012280  0.92927299  1  0  0.090748  0  0.9704  0  0  0.100216  0  1.033669  0  0  0.103051  0  1.032866  0  0  0.098445  0.097927  0  1.034841  0
H  H15  1  0.34843636  0.59987902  0.57072395  1  0  0.090763  0  0.970373  0  0  0.100196  0  1.033689  0  0  0.103032  0  1.032886  0  0  0.098435  0.097907  0  1.03486  0
H  H16  1  0.15156770  0.59987847  0.07072723  1  0  0.090754  0  0.970374  0  0  0.100224  0  1.033641  0  0  0.103059  0  1.032837  0  0  0.098452  0.097935  0  1.034813  0
H  H17  1  0.65156593  0.40012417  0.42927370  1  0  0.090781  0  0.970353  0  0  0.100215  0  1.033662  0  0  0.10305  0  1.032858  0  0  0.098447  0.097926  0  1.034833  0
H  H18  1  0.53716988  0.29191525  0.83269446  1  0  0.080856  0  0.954927  0  0  0.092148  0  1.01653  0  0  0.094915  0  1.015067  0  0  0.096892  0.090325  0  1.017313  0
H  H19  1  0.03717123  0.70808388  0.66729994  1  0  0.080881  0  0.954942  0  0  0.092185  0  1.016525  0  0  0.094956  0  1.01506  0  0  0.096898  0.090363  0  1.017309  0
H  H20  1  0.46283414  0.70808214  0.16730544  1  0  0.080874  0  0.954929  0  0  0.092168  0  1.016529  0  0  0.094936  0  1.015067  0  0  0.096916  0.090346  0  1.017313  0
H  H21  1  0.96282761  0.29191931  0.33269703  1  0  0.080922  0  0.954904  0  0  0.092207  0  1.016503  0  0  0.094978  0  1.015043  0  0  0.09693  0.090386  0  1.017287  0
H  H22  1  0.21144564  0.42198646  0.77918366  1  0  0.079085  0  0.990288  0  0  0.087866  0  1.057014  0  0  0.089367  0  1.058731  0  0  0.093704  0.086684  0  1.056083  0
H  H23  1  0.71144748  0.57801115  0.72081077  1  0  0.079045  0  0.99017  0  0  0.087794  0  1.056945  0  0  0.089297  0  1.058657  0  0  0.093668  0.086612  0  1.056013  0
H  H24  1  0.78855838  0.57800996  0.22081548  1  0  0.07902  0  0.990252  0  0  0.087822  0  1.056968  0  0  0.089325  0  1.058681  0  0  0.093681  0.086631  0  1.056047  0
H  H25  1  0.28855136  0.42199107  0.27918680  1  0  0.079005  0  0.99019  0  0  0.087804  0  1.056921  0  0  0.089306  0  1.058637  0  0  0.093682  0.086617  0  1.055996  0
H  H26  1  0.18983894  0.65873069  0.82988071  1  0  0.095799  0  0.960263  0  0  0.105266  0  1.023649  0  0  0.108139  0  1.022408  0  0  0.100888  0.102944  0  1.025039  0
H  H27  1  0.68984397  0.34126591  0.67011771  1  0  0.095788  0  0.960285  0  0  0.105261  0  1.023667  0  0  0.108134  0  1.022427  0  0  0.100863  0.10296  0  1.025029  0
H  H28  1  0.81016163  0.34126670  0.17011919  1  0  0.095789  0  0.960271  0  0  0.105248  0  1.023673  0  0  0.108124  0  1.022422  0  0  0.100891  0.102926  0  1.025062  0
H  H29  1  0.31016005  0.65873535  0.32988114  1  0  0.095767  0  0.96028  0  0  0.10524  0  1.02367  0  0  0.108114  0  1.022423  0  0  0.100888  0.102938  0  1.025035  0
H  H30  1  0.00540827  0.75649510  0.21405917  1  0  0.019012  0  0.928981  0  0  0.031433  0  0.996974  0  0  0.031619  0  0.994014  0  0  0.118787  0.03121  0  0.999097  0
H  H31  1  0.50542362  0.24350817  0.28594305  1  0  0.018983  0  0.928927  0  0  0.031426  0  0.996902  0  0  0.031617  0  0.993943  0  0  0.11879  0.031202  0  0.999026  0
H  H32  1  0.99458711  0.24350328  0.78594354  1  0  0.019007  0  0.929033  0  0  0.031498  0  0.996959  0  0  0.031689  0  0.994002  0  0  0.118807  0.031273  0  0.999087  0
H  H33  1  0.49458041  0.75649310  0.71405717  1  0  0.01899  0  0.928936  0  0  0.031444  0  0.9969  0  0  0.031633  0  0.993941  0  0  0.118797  0.031218  0  0.999027  0
H  H34  1  0.77770663  0.91924826  0.28467357  1  0  0.347438  0  0.917368  0  0  0.325999  0  0.980991  0  0  0.334671  0  0.974372  0  0  0.296995  0.319893  0  0.985685  0
H  H35  1  0.27771236  0.08075469  0.21533023  1  0  0.347458  0  0.91735  0  0  0.326004  0  0.981003  0  0  0.334676  0  0.974386  0  0  0.296988  0.319897  0  0.985705  0
H  H36  1  0.22229048  0.08075010  0.71532778  1  0  0.347405  0  0.917411  0  0  0.325961  0  0.981045  0  0  0.334634  0  0.974428  0  0  0.296973  0.319853  0  0.985744  0
H  H37  1  0.72228647  0.91924659  0.78467205  1  0  0.347469  0  0.917322  0  0  0.326021  0  0.980962  0  0  0.334694  0  0.974344  0  0  0.296997  0.319912  0  0.985665  0
H  H38  1  0.75572695  0.99776284  0.18146231  1  0  0.345158  0  0.916758  0  0  0.324428  0  0.981489  0  0  0.332946  0  0.974721  0  0  0.297923  0.318479  0  0.986175  0
H  H39  1  0.25573441  0.00224007  0.31854146  1  0  0.345179  0  0.91673  0  0  0.324436  0  0.981472  0  0  0.332952  0  0.974705  0  0  0.297959  0.318488  0  0.986157  0
H  H40  1  0.24427016  0.00223359  0.81853888  1  0  0.345022  0  0.91688  0  0  0.324393  0  0.981467  0  0  0.332908  0  0.974703  0  0  0.297925  0.318442  0  0.986155  0
H  H41  1  0.74426788  0.99776218  0.68146020  1  0  0.345088  0  0.916834  0  0  0.324458  0  0.981419  0  0  0.332975  0  0.974652  0  0  0.297958  0.318509  0  0.986105  0
C  C42  1  0.51345987  0.66407075  0.90368192  1  0  -0.215771  0  3.80409  0  0  -0.170225  0  4.038609  0  0  -0.179535  0  4.062555  0  0  -0.033584  -0.163981  0  4.022146  0
C  C43  1  0.01347025  0.33592738  0.59631648  1  0  -0.215568  0  3.803771  0  0  -0.170124  0  4.038445  0  0  -0.179354  0  4.062241  0  0  -0.033531  -0.163903  0  4.022017  0
C  C44  1  0.48653378  0.33592955  0.09631891  1  0  -0.215716  0  3.803992  0  0  -0.170186  0  4.038532  0  0  -0.1795  0  4.062485  0  0  -0.033525  -0.163951  0  4.022079  0
C  C45  1  0.98653551  0.66407582  0.40368186  1  0  -0.215642  0  3.803723  0  0  -0.170313  0  4.038544  0  0  -0.179623  0  4.06248  0  0  -0.033569  -0.164073  0  4.02209  0
C  C46  1  0.70093578  0.59171424  0.93130972  1  0  -0.046886  0  3.73702  0  0  -0.066988  0  3.97539  0  0  -0.067217  0  3.997659  0  0  -0.079038  -0.066559  0  3.960433  0
C  C47  1  0.20094307  0.40828432  0.56868750  1  0  -0.046856  0  3.736859  0  0  -0.066957  0  3.975235  0  0  -0.067204  0  3.997494  0  0  -0.079025  -0.066522  0  3.960283  0
C  C48  1  0.29906305  0.40828508  0.06868965  1  0  -0.046856  0  3.736967  0  0  -0.066936  0  3.975348  0  0  -0.067161  0  3.997611  0  0  -0.07903  -0.066503  0  3.960392  0
C  C49  1  0.79905922  0.59171597  0.43131127  1  0  -0.046906  0  3.736821  0  0  -0.066945  0  3.975244  0  0  -0.06717  0  3.997509  0  0  -0.079025  -0.066512  0  3.960286  0
C  C50  1  0.70758415  0.45801923  0.90634477  1  0  -0.067706  0  3.74764  0  0  -0.079828  0  3.995267  0  0  -0.083531  0  4.018628  0  0  -0.089555  -0.077228  0  3.979731  0
C  C51  1  0.20759082  0.54198034  0.59365527  1  0  -0.067669  0  3.74755  0  0  -0.079768  0  3.995173  0  0  -0.083473  0  4.018545  0  0  -0.089556  -0.077166  0  3.979634  0
C  C52  1  0.29241641  0.54197914  0.09365589  1  0  -0.067721  0  3.747499  0  0  -0.079845  0  3.995127  0  0  -0.083546  0  4.018486  0  0  -0.08957  -0.077244  0  3.979594  0
C  C53  1  0.79241321  0.45802191  0.40634639  1  0  -0.067645  0  3.747491  0  0  -0.079735  0  3.995079  0  0  -0.083439  0  4.018444  0  0  -0.089538  -0.077135  0  3.979543  0
C  C54  1  0.53083282  0.39664233  0.85214182  1  0  -0.059792  0  3.757405  0  0  -0.072403  0  4.004258  0  0  -0.073343  0  4.025512  0  0  -0.085693  -0.071889  0  3.989515  0
C  C55  1  0.03083676  0.60335775  0.64785266  1  0  -0.059969  0  3.757535  0  0  -0.072576  0  4.00434  0  0  -0.073522  0  4.025603  0  0  -0.085725  -0.072062  0  3.989597  0
C  C56  1  0.46917294  0.60335699  0.14785688  1  0  -0.05988  0  3.757378  0  0  -0.0725  0  4.004252  0  0  -0.073444  0  4.025512  0  0  -0.085756  -0.071986  0  3.989511  0
C  C57  1  0.96916727  0.39664544  0.35214500  1  0  -0.060026  0  3.757418  0  0  -0.072616  0  4.004252  0  0  -0.073564  0  4.025515  0  0  -0.085763  -0.072101  0  3.989509  0
C  C58  1  0.34687773  0.46860727  0.82316317  1  0  -0.077605  0  3.765227  0  0  -0.088111  0  4.009873  0  0  -0.091803  0  4.033728  0  0  -0.092985  -0.085466  0  3.993823  0
C  C59  1  0.84688071  0.53139162  0.67683080  1  0  -0.077418  0  3.765195  0  0  -0.087897  0  4.009815  0  0  -0.091593  0  4.033683  0  0  -0.092943  -0.085255  0  3.993771  0
C  C60  1  0.65312630  0.53139011  0.17683537  1  0  -0.077475  0  3.765247  0  0  -0.087989  0  4.009871  0  0  -0.091681  0  4.033727  0  0  -0.09297  -0.085337  0  3.993825  0
C  C61  1  0.15312158  0.46861156  0.32316549  1  0  -0.077456  0  3.765219  0  0  -0.087977  0  4.009825  0  0  -0.09167  0  4.033685  0  0  -0.092974  -0.085329  0  3.993784  0
C  C62  1  0.33578118  0.60212064  0.85020114  1  0  -0.061203  0  3.766416  0  0  -0.082102  0  4.006633  0  0  -0.082097  0  4.027855  0  0  -0.085363  -0.081846  0  3.992401  0
C  C63  1  0.83578651  0.39787727  0.64979547  1  0  -0.061338  0  3.766356  0  0  -0.082233  0  4.006598  0  0  -0.08225  0  4.027815  0  0  -0.085355  -0.081985  0  3.992364  0
C  C64  1  0.66421939  0.39787869  0.14979893  1  0  -0.061206  0  3.76651  0  0  -0.082105  0  4.006735  0  0  -0.082099  0  4.027963  0  0  -0.085354  -0.081842  0  3.992497  0
C  C65  1  0.16421579  0.60212591  0.35020150  1  0  -0.061209  0  3.766386  0  0  -0.082063  0  4.00668  0  0  -0.082057  0  4.027908  0  0  -0.085344  -0.081818  0  3.99244  0
C  C66  1  0.94867485  0.83249729  0.17229852  1  0  0.543395  0  3.841456  0  0  0.475786  0  4.131896  0  0  0.505103  0  4.131359  0  0  0.179151  0.456017  0  4.13158  0
C  C67  1  0.44868529  0.16750511  0.32770606  1  0  0.54348  0  3.841307  0  0  0.475875  0  4.131727  0  0  0.505187  0  4.131191  0  0  0.179166  0.456107  0  4.13141  0
C  C68  1  0.05132225  0.16750207  0.82770632  1  0  0.543284  0  3.841535  0  0  0.475628  0  4.131991  0  0  0.504938  0  4.131463  0  0  0.179057  0.455856  0  4.131679  0
C  C69  1  0.55131354  0.83249519  0.67229340  1  0  0.543421  0  3.841243  0  0  0.475804  0  4.131686  0  0  0.505116  0  4.131153  0  0  0.179144  0.456034  0  4.131372  0
N  N70  1  0.81295457  0.92266303  0.21585961  1  0  -0.639618  0  3.12665  0  0  -0.591816  0  3.358156  0  0  -0.615645  0  3.354481  0  0  -0.563129  -0.575517  0  3.36029  0
N  N71  1  0.31295893  0.07733805  0.28414133  1  0  -0.63966  0  3.126366  0  0  -0.591834  0  3.357874  0  0  -0.615666  0  3.354209  0  0  -0.56316  -0.575536  0  3.360009  0
N  N72  1  0.18704254  0.07733242  0.78414013  1  0  -0.639429  0  3.126592  0  0  -0.591694  0  3.358012  0  0  -0.615527  0  3.354351  0  0  -0.563069  -0.575397  0  3.360147  0
N  N73  1  0.68703991  0.92266322  0.71586026  1  0  -0.63961  0  3.126332  0  0  -0.591873  0  3.357739  0  0  -0.615705  0  3.354071  0  0  -0.563178  -0.575576  0  3.359876  0
O  O74  1  0.72518298  0.89811150  0.90608169  1  0  -0.815262  0  2.036886  0  0  -0.723925  0  2.305188  0  0  -0.751935  0  2.288173  0  0  -0.380075  -0.70346  0  2.316432  0
O  O75  1  0.22518993  0.10188908  0.59391777  1  0  -0.815206  0  2.037041  0  0  -0.72387  0  2.305339  0  0  -0.751873  0  2.288318  0  0  -0.380046  -0.703404  0  2.31658  0
O  O76  1  0.27480893  0.10188687  0.09391966  1  0  -0.815264  0  2.036988  0  0  -0.723948  0  2.305318  0  0  -0.751959  0  2.288302  0  0  -0.380072  -0.703481  0  2.316563  0
O  O77  1  0.77481063  0.89811219  0.40608313  1  0  -0.815214  0  2.037035  0  0  -0.723873  0  2.305316  0  0  -0.751883  0  2.288302  0  0  -0.380054  -0.703407  0  2.316559  0
O  O78  1  0.27792653  0.89165631  0.90536377  1  0  -0.809742  0  2.028184  0  0  -0.720087  0  2.297771  0  0  -0.747053  0  2.279602  0  0  -0.376815  -0.700907  0  2.3101  0
O  O79  1  0.77793640  0.10834247  0.59463832  1  0  -0.809734  0  2.028249  0  0  -0.720057  0  2.297778  0  0  -0.747041  0  2.279629  0  0  -0.376812  -0.700892  0  2.310135  0
O  O80  1  0.72206538  0.10834109  0.09463818  1  0  -0.80979  0  2.028259  0  0  -0.720075  0  2.297762  0  0  -0.747052  0  2.279598  0  0  -0.376812  -0.70092  0  2.310142  0
O  O81  1  0.22206417  0.89166075  0.40536343  1  0  -0.809818  0  2.028328  0  0  -0.720053  0  2.297779  0  0  -0.747032  0  2.279619  0  0  -0.376801  -0.700906  0  2.310174  0
O  O82  1  0.01494125  0.82684290  0.09006676  1  0  -0.590408  0  2.027946  0  0  -0.524942  0  2.283391  0  0  -0.552164  0  2.274838  0  0  -0.312249  -0.505883  0  2.288858  0
O  O83  1  0.51496196  0.17315649  0.40993242  1  0  -0.590429  0  2.028014  0  0  -0.525003  0  2.283528  0  0  -0.552223  0  2.274976  0  0  -0.312254  -0.505943  0  2.288991  0
O  O84  1  0.98505413  0.17315449  0.90993314  1  0  -0.590354  0  2.028107  0  0  -0.5249  0  2.283601  0  0  -0.55212  0  2.275053  0  0  -0.312217  -0.505842  0  2.289068  0
O  O85  1  0.48504726  0.82684283  0.59006696  1  0  -0.590382  0  2.028053  0  0  -0.524944  0  2.283564  0  0  -0.552163  0  2.275012  0  0  -0.312249  -0.505884  0  2.289028  0
