# generated using pymatgen
data_Gd2H10C14N4O15
_symmetry_space_group_name_H-M   'P 1'
_cell_length_a   10.96632214
_cell_length_b   11.79844104
_cell_length_c   19.01384513
_cell_angle_alpha   90.00002954
_cell_angle_beta   89.99989064
_cell_angle_gamma   89.99998762
_symmetry_Int_Tables_number   1
_chemical_formula_structural   Gd2H10C14N4O15
_chemical_formula_sum   'Gd8 H40 C56 N16 O60'
_cell_volume   2460.11595545
_cell_formula_units_Z   4
loop_
 _symmetry_equiv_pos_site_id
 _symmetry_equiv_pos_as_xyz
  1  'x, y, z'
loop_
 _atom_site_type_symbol
 _atom_site_label
 _atom_site_symmetry_multiplicity
 _atom_site_fract_x
 _atom_site_fract_y
 _atom_site_fract_z
 _atom_site_occupancy
 _atom_site_pbe_bader_charge
 _atom_site_pbe_bader_spin_density
 _atom_site_pbe_cm5_charge
 _atom_site_pbe_ddec_charge
 _atom_site_pbe_ddec_spin_density
 _atom_site_pbe_ddec_sum_bond_order
 _atom_site_pbe_magmom
Gd  Gd0  1  0.36008345  0.83899827  0.42780872  1  2.166934  0  1.448061  1.943277  0  2.259132  0
Gd  Gd1  1  0.63991672  0.16100125  0.92780885  1  2.16693  0  1.448036  1.9433  0  2.259114  0
Gd  Gd2  1  0.86008528  0.66100203  0.92780934  1  2.166936  0  1.448039  1.943295  0  2.259102  0
Gd  Gd3  1  0.13991672  0.33899834  0.42780824  1  2.166908  0  1.448031  1.943308  0  2.259092  0
Gd  Gd4  1  0.88279335  0.02373449  0.20714016  1  2.190779  0  1.437692  1.967706  0  2.220766  0
Gd  Gd5  1  0.11720300  0.97626825  0.70713849  1  2.190791  0  1.437654  1.967619  0  2.220905  0
Gd  Gd6  1  0.38279256  0.47626572  0.70713984  1  2.190781  0  1.437667  1.967638  0  2.220826  0
Gd  Gd7  1  0.61720288  0.52373193  0.20713933  1  2.190684  0  1.437627  1.967586  0  2.22093  0
H  H8  1  0.13958579  0.99658348  0.32807470  1  0.152059  0  0.142555  0.08766  0  0.999499  0
H  H9  1  0.86041563  0.00341851  0.82807243  1  0.152129  0  0.142554  0.087688  0  0.999552  0
H  H10  1  0.63958583  0.50341679  0.82807421  1  0.152064  0  0.142544  0.087622  0  0.999566  0
H  H11  1  0.36041558  0.49658266  0.32807187  1  0.152086  0  0.142573  0.087699  0  0.999552  0
H  H12  1  0.29184957  0.74856164  0.14329081  1  0.202344  0  0.133429  0.161715  0  0.966028  0
H  H13  1  0.70815063  0.25144443  0.64329089  1  0.202391  0  0.133439  0.161682  0  0.966077  0
H  H14  1  0.79184956  0.75143930  0.64329040  1  0.202332  0  0.133455  0.161742  0  0.965992  0
H  H15  1  0.20815065  0.24855745  0.14329077  1  0.2024  0  0.133453  0.161705  0  0.966056  0
H  H16  1  0.64392719  0.88417621  0.32350931  1  0.187629  0  0.14154  0.090426  0  0.986133  0
H  H17  1  0.35607972  0.11582408  0.82351026  1  0.187547  0  0.141577  0.090344  0  0.986206  0
H  H18  1  0.14392649  0.61582406  0.82350941  1  0.187616  0  0.141546  0.090392  0  0.986209  0
H  H19  1  0.85607859  0.38417369  0.32350964  1  0.187623  0  0.141556  0.090335  0  0.986222  0
H  H20  1  0.48901115  0.27026206  0.32332312  1  0.156834  0  0.126606  0.147445  0  1.00236  0
H  H21  1  0.51098755  0.72973653  0.82332252  1  0.15678  0  0.126598  0.147444  0  1.002391  0
H  H22  1  0.98901114  0.22973653  0.82332481  1  0.156803  0  0.126595  0.147413  0  1.002404  0
H  H23  1  0.01098665  0.77026122  0.32332188  1  0.15682  0  0.126598  0.147432  0  1.002423  0
H  H24  1  0.58537583  0.89566254  0.49147695  1  0.599488  0  0.327869  0.410998  0  0.872672  0
H  H25  1  0.41462596  0.10433788  0.99147678  1  0.599497  0  0.327848  0.410993  0  0.872765  0
H  H26  1  0.08537604  0.60433872  0.99147704  1  0.5995  0  0.327864  0.410984  0  0.872696  0
H  H27  1  0.91462666  0.39566255  0.49147669  1  0.599348  0  0.327857  0.411002  0  0.87272  0
H  H28  1  0.59046779  0.76441046  0.49505011  1  0.649118  0  0.295965  0.407438  0  0.92694  0
H  H29  1  0.40953307  0.23559082  0.99504947  1  0.649099  0  0.295975  0.407479  0  0.926885  0
H  H30  1  0.09046798  0.73558996  0.99505025  1  0.64911  0  0.295961  0.407437  0  0.926935  0
H  H31  1  0.90953289  0.26440962  0.49504986  1  0.649136  0  0.295966  0.407465  0  0.926907  0
H  H32  1  0.40905779  0.64238675  0.53410331  1  0.637261  0  0.301502  0.407393  0  0.922666  0
H  H33  1  0.59094278  0.35761330  0.03410120  1  0.637325  0  0.301517  0.407394  0  0.922664  0
H  H34  1  0.90905758  0.85761407  0.03410321  1  0.637259  0  0.301524  0.407413  0  0.92263  0
H  H35  1  0.09094299  0.14238682  0.53410078  1  0.637338  0  0.301529  0.407422  0  0.922626  0
H  H36  1  0.32531606  0.60258486  0.46861634  1  0.654259  0  0.303163  0.40027  0  0.931598  0
H  H37  1  0.67468763  0.39741725  0.96861598  1  0.654197  0  0.303155  0.400266  0  0.931605  0
H  H38  1  0.82531692  0.89741549  0.96861650  1  0.654264  0  0.30317  0.400272  0  0.931595  0
H  H39  1  0.17468950  0.10258322  0.46861581  1  0.654187  0  0.30316  0.400291  0  0.931564  0
H  H40  1  0.96313636  0.12188818  0.34441168  1  0.644808  0  0.304321  0.400636  0  0.935151  0
H  H41  1  0.03686501  0.87810958  0.84441007  1  0.644785  0  0.304312  0.400625  0  0.935179  0
H  H42  1  0.46313469  0.37811212  0.84441186  1  0.644813  0  0.30431  0.400615  0  0.93518  0
H  H43  1  0.53686486  0.62189073  0.34441147  1  0.644779  0  0.304349  0.400678  0  0.935093  0
H  H44  1  0.88434053  0.01791684  0.37498574  1  0.616025  0  0.341254  0.432585  0  0.841471  0
H  H45  1  0.11566255  0.98208010  0.87498303  1  0.6161  0  0.341268  0.432552  0  0.841522  0
H  H46  1  0.38433975  0.48208351  0.87498596  1  0.616017  0  0.341246  0.43256  0  0.841503  0
H  H47  1  0.61566152  0.51792021  0.37498387  1  0.616049  0  0.341298  0.432595  0  0.84147  0
C  C48  1  0.17305744  0.94015821  0.28700197  1  1.073821  0  0.198468  0.273268  0  3.937153  0
C  C49  1  0.82694321  0.05984629  0.78699923  1  1.07385  0  0.198413  0.273081  0  3.937246  0
C  C50  1  0.67305746  0.55984117  0.78700203  1  1.073815  0  0.198512  0.273361  0  3.93709  0
C  C51  1  0.32694318  0.44015485  0.28699918  1  1.073877  0  0.198438  0.273122  0  3.937294  0
C  C52  1  0.14904775  0.86375400  0.17731558  1  0.457024  0  0.145631  0.162668  0  3.942435  0
C  C53  1  0.85095143  0.13624955  0.67731337  1  0.456956  0  0.145574  0.16261  0  3.942498  0
C  C54  1  0.64904868  0.63624614  0.67731567  1  0.457016  0  0.145653  0.162631  0  3.942481  0
C  C55  1  0.35094960  0.36375318  0.17731329  1  0.456975  0  0.145589  0.162556  0  3.942577  0
C  C56  1  0.25730920  0.80299343  0.18494890  1  0.087329  0  -0.049847  -0.159342  0  3.831655  0
C  C57  1  0.74268995  0.19701268  0.68495051  1  0.087282  0  -0.049857  -0.159252  0  3.831764  0
C  C58  1  0.75731011  0.69700585  0.68494847  1  0.087318  0  -0.04987  -0.159334  0  3.831633  0
C  C59  1  0.24268905  0.30298923  0.18494988  1  0.087281  0  -0.049891  -0.159288  0  3.831623  0
C  C60  1  0.31530757  0.81064870  0.24967749  1  0.477587  0  0.141653  0.16264  0  3.927484  0
C  C61  1  0.68469684  0.18935916  0.74967811  1  0.477347  0  0.141619  0.162411  0  3.927702  0
C  C62  1  0.81530757  0.68935147  0.74967706  1  0.477577  0  0.141635  0.162574  0  3.927519  0
C  C63  1  0.18469502  0.31064113  0.24967801  1  0.477334  0  0.141608  0.16246  0  3.92764  0
C  C64  1  0.41879348  0.73166284  0.26873985  1  1.615877  0  0.240537  0.589495  0  4.150098  0
C  C65  1  0.58120449  0.26834504  0.76873955  1  1.615948  0  0.240605  0.589676  0  4.15003  0
C  C66  1  0.91879346  0.76833733  0.76873944  1  1.615871  0  0.240567  0.589528  0  4.150056  0
C  C67  1  0.08120542  0.23165444  0.26873890  1  1.615919  0  0.240643  0.589703  0  4.150203  0
C  C68  1  0.07392514  0.85387641  0.11109861  1  1.6316  0  0.227174  0.562839  0  4.220932  0
C  C69  1  0.92606970  0.14612370  0.61109527  1  1.631693  0  0.227286  0.563129  0  4.220891  0
C  C70  1  0.57392515  0.64612285  0.61109870  1  1.631922  0  0.227193  0.562892  0  4.220817  0
C  C71  1  0.42606878  0.35387642  0.11109624  1  1.631682  0  0.227264  0.563068  0  4.220979  0
C  C72  1  0.60943430  0.97070374  0.32305231  1  1.030718  0  0.204474  0.286614  0  3.901925  0
C  C73  1  0.39057078  0.02929570  0.82305109  1  1.030843  0  0.204465  0.286725  0  3.901985  0
C  C74  1  0.10943271  0.52929823  0.82305238  1  1.030694  0  0.204498  0.286749  0  3.901908  0
C  C75  1  0.89057055  0.47070291  0.32305102  1  1.030727  0  0.204487  0.286747  0  3.901992  0
C  C76  1  0.63113909  0.15591133  0.28872928  1  0.500886  0  0.143476  0.153805  0  3.927061  0
C  C77  1  0.36886155  0.84408893  0.78872940  1  0.500786  0  0.143454  0.153791  0  3.927036  0
C  C78  1  0.13113925  0.34408815  0.78873103  1  0.501202  0  0.143519  0.153921  0  3.926912  0
C  C79  1  0.86885866  0.65591042  0.28873081  1  0.501174  0  0.143499  0.153797  0  3.927008  0
C  C80  1  0.52307727  0.18390658  0.32273404  1  0.020138  0  -0.055138  -0.157579  0  3.847675  0
C  C81  1  0.47692416  0.81609201  0.82273246  1  0.019977  0  -0.055206  -0.157681  0  3.847748  0
C  C82  1  0.02307562  0.31609210  0.82273473  1  0.019343  0  -0.055166  -0.15764  0  3.847738  0
C  C83  1  0.97692400  0.68390564  0.32273230  1  0.019756  0  -0.055166  -0.157668  0  3.847739  0
C  C84  1  0.46074184  0.09634080  0.35590305  1  0.50629  0  0.140461  0.152851  0  3.955171  0
C  C85  1  0.53925767  0.90365782  0.85590248  1  0.506294  0  0.140536  0.152926  0  3.955301  0
C  C86  1  0.96074270  0.40365867  0.85590269  1  0.506663  0  0.140461  0.152891  0  3.955154  0
C  C87  1  0.03926045  0.59634079  0.35590073  1  0.506279  0  0.140551  0.153023  0  3.955242  0
C  C88  1  0.33858505  0.11607648  0.38992938  1  1.624168  0  0.2425  0.598071  0  4.16753  0
C  C89  1  0.66141525  0.88391369  0.88992656  1  1.624577  0  0.242404  0.597991  0  4.167515  0
C  C90  1  0.83858592  0.38392389  0.88992954  1  1.624169  0  0.242521  0.598058  0  4.167681  0
C  C91  1  0.16141712  0.61608578  0.38992640  1  1.624495  0  0.242409  0.597918  0  4.167464  0
C  C92  1  0.70572294  0.24487815  0.25050395  1  1.648815  0  0.240862  0.610321  0  4.179922  0
C  C93  1  0.29428056  0.75511869  0.75050413  1  1.648825  0  0.240792  0.610153  0  4.180061  0
C  C94  1  0.20572586  0.25512128  0.75050567  1  1.648799  0  0.240868  0.610312  0  4.179962  0
C  C95  1  0.79427764  0.74488149  0.25050714  1  1.648782  0  0.240834  0.61038  0  4.179803  0
C  C96  1  0.70030757  0.06580611  0.08111368  1  1.586333  0  0.213994  0.516995  0  4.209158  0
C  C97  1  0.29969011  0.93419482  0.58111180  1  1.586064  0  0.213835  0.516874  0  4.209194  0
C  C98  1  0.20030497  0.43419487  0.58111335  1  1.586475  0  0.21404  0.517153  0  4.209033  0
C  C99  1  0.79969362  0.56580691  0.08111475  1  1.586286  0  0.214022  0.516983  0  4.209155  0
C  C100  1  0.82359598  0.11552622  0.05443832  1  1.597631  0  0.21208  0.504394  0  4.225079  0
C  C101  1  0.17639814  0.88447639  0.55443919  1  1.598064  0  0.212044  0.5044  0  4.225096  0
C  C102  1  0.32359340  0.38447303  0.55443955  1  1.597607  0  0.212078  0.504436  0  4.225313  0
C  C103  1  0.67640255  0.61552450  0.05444163  1  1.59828  0  0.212165  0.504646  0  4.224804  0
N  N104  1  0.27542629  0.88226581  0.29987674  1  -1.242529  0  -0.348045  -0.367129  0  3.464941  0
N  N105  1  0.72457887  0.11773954  0.79987571  1  -1.24229  0  -0.348062  -0.367021  0  3.465129  0
N  N106  1  0.77542631  0.61773441  0.79987628  1  -1.2425  0  -0.348054  -0.367114  0  3.46491  0
N  N107  1  0.22457794  0.38226077  0.29987511  1  -1.242253  0  -0.348047  -0.367039  0  3.465141  0
N  N108  1  0.10496816  0.93011958  0.22881546  1  -1.222053  0  -0.332134  -0.356131  0  3.418664  0
N  N109  1  0.89503176  0.06988487  0.72881107  1  -1.221902  0  -0.332091  -0.35606  0  3.418554  0
N  N110  1  0.60496819  0.56988146  0.72881499  1  -1.222033  0  -0.332141  -0.356153  0  3.418671  0
N  N111  1  0.39503083  0.43011705  0.22881154  1  -1.22192  0  -0.33212  -0.356033  0  3.418622  0
N  N112  1  0.50440359  0.99002920  0.35736474  1  -1.220062  0  -0.327979  -0.357793  0  3.411586  0
N  N113  1  0.49560047  0.00996857  0.85736340  1  -1.220099  0  -0.327986  -0.357804  0  3.411668  0
N  N114  1  0.00440382  0.50997027  0.85736427  1  -1.220074  0  -0.327968  -0.357844  0  3.411557  0
N  N115  1  0.99560023  0.49003004  0.35736228  1  -1.220094  0  -0.328001  -0.357839  0  3.41171  0
N  N116  1  0.67408057  0.04889719  0.28816650  1  -1.200477  0  -0.314167  -0.339138  0  3.398454  0
N  N117  1  0.32592280  0.95110476  0.78816617  1  -1.20031  0  -0.314145  -0.339073  0  3.398415  0
N  N118  1  0.17408071  0.45110398  0.78816670  1  -1.200319  0  -0.314205  -0.339232  0  3.398397  0
N  N119  1  0.82591993  0.54889544  0.28816807  1  -1.20034  0  -0.314188  -0.339144  0  3.398412  0
O  O120  1  0.45988919  0.73929692  0.33181176  1  -1.181259  0  -0.356698  -0.62365  0  2.333115  0
O  O121  1  0.54011313  0.26070762  0.83181571  1  -1.181309  0  -0.356782  -0.62375  0  2.332926  0
O  O122  1  0.95988826  0.76070414  0.83181188  1  -1.181237  0  -0.356736  -0.623688  0  2.333042  0
O  O123  1  0.04011314  0.23929192  0.33181507  1  -1.18128  0  -0.35679  -0.623778  0  2.332949  0
O  O124  1  0.45234993  0.66181714  0.22306731  1  -1.163039  0  -0.336447  -0.566532  0  2.294945  0
O  O125  1  0.54764910  0.33818560  0.72307075  1  -1.163116  0  -0.336376  -0.566466  0  2.295256  0
O  O126  1  0.95235081  0.83818213  0.72306693  1  -1.163044  0  -0.33644  -0.566526  0  2.294962  0
O  O127  1  0.04765004  0.16181553  0.22306956  1  -1.163126  0  -0.336387  -0.5665  0  2.295376  0
O  O128  1  0.96261141  0.88542540  0.11579681  1  -1.173104  0  -0.333714  -0.601302  0  2.265915  0
O  O129  1  0.03738981  0.11457641  0.61579443  1  -1.173078  0  -0.33368  -0.60137  0  2.265734  0
O  O130  1  0.46261162  0.61457293  0.61579638  1  -1.173113  0  -0.333733  -0.601324  0  2.265874  0
O  O131  1  0.53738868  0.38542464  0.11579434  1  -1.17307  0  -0.333687  -0.601348  0  2.265778  0
O  O132  1  0.12869200  0.81533739  0.05832335  1  -1.167072  0  -0.305836  -0.527331  0  2.159863  0
O  O133  1  0.87130576  0.18466268  0.55831955  1  -1.167283  0  -0.305912  -0.527471  0  2.160013  0
O  O134  1  0.62869200  0.68466181  0.55832345  1  -1.167379  0  -0.305844  -0.527332  0  2.159836  0
O  O135  1  0.37130302  0.31533656  0.05831998  1  -1.167239  0  -0.30591  -0.527458  0  2.159987  0
O  O136  1  0.29150085  0.03371477  0.42385993  1  -1.183628  0  -0.353803  -0.626857  0  2.35472  0
O  O137  1  0.70850207  0.96628475  0.92385761  1  -1.183767  0  -0.353782  -0.626843  0  2.354297  0
O  O138  1  0.79150079  0.46628564  0.92386012  1  -1.183623  0  -0.353777  -0.626796  0  2.354717  0
O  O139  1  0.20850396  0.53371304  0.42385743  1  -1.183825  0  -0.353831  -0.626862  0  2.354266  0
O  O140  1  0.29078964  0.21135856  0.38017285  1  -1.174885  0  -0.354784  -0.592185  0  2.368542  0
O  O141  1  0.70920614  0.78864008  0.88017678  1  -1.174993  0  -0.35472  -0.592116  0  2.368868  0
O  O142  1  0.79078961  0.28864181  0.88017297  1  -1.174867  0  -0.354827  -0.592219  0  2.368652  0
O  O143  1  0.20920890  0.71136107  0.38017507  1  -1.175029  0  -0.354709  -0.592078  0  2.368812  0
O  O144  1  0.80213180  0.21206277  0.22103011  1  -1.163402  0  -0.35096  -0.588304  0  2.281114  0
O  O145  1  0.19786268  0.78794167  0.72102935  1  -1.163438  0  -0.351013  -0.588361  0  2.280858  0
O  O146  1  0.30213653  0.28793577  0.72103394  1  -1.163393  0  -0.350998  -0.588348  0  2.281169  0
O  O147  1  0.69785704  0.71206020  0.22103393  1  -1.163366  0  -0.351074  -0.58851  0  2.280807  0
O  O148  1  0.66501557  0.34551687  0.25300743  1  -1.191777  0  -0.393593  -0.65796  0  2.337822  0
O  O149  1  0.33497698  0.65448759  0.75300647  1  -1.19178  0  -0.393454  -0.657761  0  2.338183  0
O  O150  1  0.16501668  0.15448342  0.75300807  1  -1.191769  0  -0.393571  -0.657935  0  2.337859  0
O  O151  1  0.83497587  0.84551257  0.25300742  1  -1.191749  0  -0.393468  -0.657844  0  2.338076  0
O  O152  1  0.60767494  0.08141410  0.04239195  1  -1.187131  0  -0.385664  -0.613569  0  2.267258  0
O  O153  1  0.39232287  0.91858595  0.54239049  1  -1.187116  0  -0.385618  -0.613514  0  2.267215  0
O  O154  1  0.10767508  0.41858857  0.54239056  1  -1.187164  0  -0.385634  -0.613557  0  2.267184  0
O  O155  1  0.89232729  0.58141657  0.04239450  1  -1.1872  0  -0.385703  -0.613591  0  2.267191  0
O  O156  1  0.70295012  0.01340430  0.13920449  1  -1.171383  0  -0.383479  -0.596388  0  2.265073  0
O  O157  1  0.29704554  0.98659753  0.63920158  1  -1.171437  0  -0.383427  -0.596336  0  2.2651  0
O  O158  1  0.20294842  0.48659419  0.63920418  1  -1.171521  0  -0.383537  -0.596497  0  2.265081  0
O  O159  1  0.79704815  0.51340340  0.13920452  1  -1.171368  0  -0.383492  -0.596382  0  2.265087  0
O  O160  1  0.82462303  0.15400627  0.99221024  1  -1.17331  0  -0.390114  -0.592244  0  2.269805  0
O  O161  1  0.17537511  0.84598992  0.49221137  1  -1.17328  0  -0.39008  -0.592209  0  2.269693  0
O  O162  1  0.32462211  0.34598995  0.49221016  1  -1.173276  0  -0.390105  -0.592276  0  2.269724  0
O  O163  1  0.67537877  0.65400878  0.99221303  1  -1.173757  0  -0.39029  -0.592505  0  2.269625  0
O  O164  1  0.91241329  0.11181896  0.09662963  1  -1.147531  0  -0.378943  -0.573261  0  2.272481  0
O  O165  1  0.08757886  0.88818792  0.59662797  1  -1.147671  0  -0.378875  -0.573233  0  2.272613  0
O  O166  1  0.41241071  0.38817776  0.59663034  1  -1.147474  0  -0.37895  -0.573323  0  2.272794  0
O  O167  1  0.58758236  0.61181301  0.09662989  1  -1.147629  0  -0.378849  -0.573236  0  2.272568  0
O  O168  1  0.57487191  0.82940971  0.46136941  1  -1.219231  0  -0.631236  -0.825493  0  2.032128  0
O  O169  1  0.42512907  0.17058984  0.96136873  1  -1.219221  0  -0.631233  -0.825536  0  2.032184  0
O  O170  1  0.07487484  0.67059153  0.96136900  1  -1.219221  0  -0.63122  -0.825466  0  2.032146  0
O  O171  1  0.92512887  0.32941057  0.46136861  1  -1.219074  0  -0.631239  -0.825543  0  2.032165  0
O  O172  1  0.38399477  0.66100783  0.48479400  1  -1.28832  0  -0.656533  -0.860507  0  2.064765  0
O  O173  1  0.61600613  0.33899429  0.98479316  1  -1.288301  0  -0.656531  -0.860499  0  2.064687  0
O  O174  1  0.88399565  0.83899252  0.98479467  1  -1.28833  0  -0.656544  -0.860498  0  2.064725  0
O  O175  1  0.11600525  0.16100451  0.48479196  1  -1.288307  0  -0.656549  -0.860551  0  2.06464  0
O  O176  1  0.92935660  0.04424911  0.33425119  1  -1.24559  0  -0.616128  -0.848796  0  2.085926  0
O  O177  1  0.07064206  0.95574864  0.83425010  1  -1.245677  0  -0.616135  -0.848759  0  2.08602  0
O  O178  1  0.42935673  0.45575119  0.83425140  1  -1.245587  0  -0.616104  -0.848728  0  2.085957  0
O  O179  1  0.57063919  0.54424995  0.33425200  1  -1.245595  0  -0.616182  -0.848834  0  2.085938  0
