# generated using pymatgen
data_AgH8C3N7O4
_symmetry_space_group_name_H-M   'P 1'
_cell_length_a   6.48425080
_cell_length_b   6.48424042
_cell_length_c   11.14392091
_cell_angle_alpha   99.34075725
_cell_angle_beta   99.34058114
_cell_angle_gamma   101.89934264
_symmetry_Int_Tables_number   1
_chemical_formula_structural   AgH8C3N7O4
_chemical_formula_sum   'Ag2 H16 C6 N14 O8'
_cell_volume   443.00649345
_cell_formula_units_Z   2
loop_
 _symmetry_equiv_pos_site_id
 _symmetry_equiv_pos_as_xyz
  1  'x, y, z'
loop_
 _atom_site_type_symbol
 _atom_site_label
 _atom_site_symmetry_multiplicity
 _atom_site_fract_x
 _atom_site_fract_y
 _atom_site_fract_z
 _atom_site_occupancy
 _atom_site_hle17_bader_spin_density
 _atom_site_hle17_ddec_charge
 _atom_site_hle17_ddec_spin_density
 _atom_site_hle17_ddec_sum_bond_order
 _atom_site_hle17_magmom
 _atom_site_hse06_10hf_bader_spin_density
 _atom_site_hse06_10hf_ddec_charge
 _atom_site_hse06_10hf_ddec_spin_density
 _atom_site_hse06_10hf_ddec_sum_bond_order
 _atom_site_hse06_10hf_magmom
 _atom_site_hse06_bader_spin_density
 _atom_site_hse06_ddec_charge
 _atom_site_hse06_ddec_spin_density
 _atom_site_hse06_ddec_sum_bond_order
 _atom_site_hse06_magmom
 _atom_site_pbe_bader_spin_density
 _atom_site_pbe_cm5_charge
 _atom_site_pbe_ddec_charge
 _atom_site_pbe_ddec_spin_density
 _atom_site_pbe_ddec_sum_bond_order
 _atom_site_pbe_magmom
Ag  Ag0  1  0.04001474  0.71643501  0.75548318  1  0  0.566306  0  1.340782  0  0  0.434414  0  1.760054  0  0  0.46439  0  1.715827  0  0  0.456759  0.413153  0  1.790978  0
Ag  Ag1  1  0.71643115  0.04001528  0.25548528  1  0  0.566277  0  1.340821  0  0  0.434392  0  1.760071  0  0  0.464371  0  1.715838  0  0  0.456754  0.413129  0  1.790993  0
H  H2  1  0.43528820  0.75590799  0.65809594  1  0  0.410002  0  0.897994  0  0  0.379098  0  0.963241  0  0  0.388769  0  0.949128  0  0  0.288461  0.37226  0  0.97319  0
H  H3  1  0.75590609  0.43528795  0.15809485  1  0  0.41  0  0.897994  0  0  0.379102  0  0.963232  0  0  0.388773  0  0.94912  0  0  0.288473  0.372265  0  0.97318  0
H  H4  1  0.38044126  0.98231852  0.65050955  1  0  0.40947  0  0.898195  0  0  0.374399  0  0.969225  0  0  0.385257  0  0.953442  0  0  0.283716  0.366668  0  0.980434  0
H  H5  1  0.98231893  0.38044248  0.15051040  1  0  0.409463  0  0.898201  0  0  0.374396  0  0.969228  0  0  0.385256  0  0.953443  0  0  0.28372  0.366666  0  0.980437  0
H  H6  1  0.66696043  0.64306533  0.52707588  1  0  0.333364  0  0.911431  0  0  0.308478  0  0.987015  0  0  0.317173  0  0.978739  0  0  0.302774  0.302198  0  0.993168  0
H  H7  1  0.64306258  0.66695968  0.02707404  1  0  0.333361  0  0.911475  0  0  0.308476  0  0.987048  0  0  0.317171  0  0.978774  0  0  0.302777  0.302199  0  0.9932  0
H  H8  1  0.66143829  0.71102654  0.38166838  1  0  0.334855  0  0.936909  0  0  0.311543  0  1.009327  0  0  0.321029  0  0.999702  0  0  0.293261  0.304836  0  1.0161  0
H  H9  1  0.71102387  0.66143875  0.88166696  1  0  0.334962  0  0.936818  0  0  0.311601  0  1.009296  0  0  0.321087  0  0.999674  0  0  0.293277  0.304896  0  1.016072  0
H  H10  1  0.99223642  0.12422266  0.88340540  1  0  0.330958  0  0.906564  0  0  0.313862  0  0.967069  0  0  0.320716  0  0.96218  0  0  0.304252  0.309038  0  0.970495  0
H  H11  1  0.12421923  0.99223259  0.38340566  1  0  0.331034  0  0.906523  0  0  0.313913  0  0.967059  0  0  0.320778  0  0.962156  0  0  0.304268  0.309088  0  0.970483  0
H  H12  1  0.08876343  0.39529235  0.88718085  1  0  0.339767  0  0.897491  0  0  0.317961  0  0.971624  0  0  0.326283  0  0.962784  0  0  0.303928  0.312042  0  0.977914  0
H  H13  1  0.39529277  0.08875733  0.38718123  1  0  0.33979  0  0.897474  0  0  0.317989  0  0.971596  0  0  0.326309  0  0.96276  0  0  0.303944  0.312066  0  0.977884  0
H  H14  1  0.03503231  0.41060144  0.37243275  1  0  0.337102  0  0.889613  0  0  0.319503  0  0.95461  0  0  0.327168  0  0.947325  0  0  0.309903  0.314046  0  0.959864  0
H  H15  1  0.41059882  0.03503435  0.87243481  1  0  0.337145  0  0.889583  0  0  0.319541  0  0.954589  0  0  0.327206  0  0.947304  0  0  0.309918  0.314086  0  0.959844  0
H  H16  1  0.13239177  0.60288853  0.51110946  1  0  0.359199  0  0.896073  0  0  0.340872  0  0.954986  0  0  0.349112  0  0.948067  0  0  0.303419  0.335023  0  0.959922  0
H  H17  1  0.60288524  0.13238930  0.01110970  1  0  0.359219  0  0.896074  0  0  0.340894  0  0.954978  0  0  0.349134  0  0.948059  0  0  0.303431  0.335047  0  0.959914  0
C  C18  1  0.82100444  0.95359989  0.53350975  1  0  0.696756  0  3.850201  0  0  0.641848  0  4.126362  0  0  0.673134  0  4.130003  0  0  0.343307  0.620488  0  4.123424  0
C  C19  1  0.95360016  0.82100023  0.03350954  1  0  0.696849  0  3.850261  0  0  0.641992  0  4.126346  0  0  0.673276  0  4.129996  0  0  0.343391  0.620632  0  4.123414  0
C  C20  1  0.96023773  0.20277379  0.71422939  1  0  0.689977  0  3.868104  0  0  0.632381  0  4.156641  0  0  0.663253  0  4.161015  0  0  0.339352  0.611522  0  4.153088  0
C  C21  1  0.20276900  0.96023412  0.21422856  1  0  0.689884  0  3.868255  0  0  0.632358  0  4.156689  0  0  0.663199  0  4.161105  0  0  0.339315  0.611499  0  4.153125  0
C  C22  1  0.96722724  0.30699587  0.52739739  1  0  0.69529  0  3.847624  0  0  0.634128  0  4.13637  0  0  0.665813  0  4.140474  0  0  0.342545  0.612494  0  4.133129  0
C  C23  1  0.30699208  0.96722107  0.02739813  1  0  0.695302  0  3.847404  0  0  0.63414  0  4.136175  0  0  0.665823  0  4.140279  0  0  0.342534  0.612505  0  4.132937  0
N  N24  1  0.88316621  0.99374231  0.65859294  1  0  -0.63939  0  3.022632  0  0  -0.573337  0  3.305758  0  0  -0.60152  0  3.309525  0  0  -0.373159  -0.553974  0  3.302813  0
N  N25  1  0.99373747  0.88316315  0.15859236  1  0  -0.639316  0  3.022726  0  0  -0.57329  0  3.305814  0  0  -0.601461  0  3.309588  0  0  -0.373138  -0.553925  0  3.302869  0
N  N26  1  0.99753302  0.36705826  0.65279108  1  0  -0.635316  0  3.081837  0  0  -0.560299  0  3.380473  0  0  -0.591497  0  3.386166  0  0  -0.379816  -0.538881  0  3.37613  0
N  N27  1  0.36705669  0.99752829  0.15279215  1  0  -0.63532  0  3.081685  0  0  -0.560334  0  3.380321  0  0  -0.591514  0  3.386012  0  0  -0.37984  -0.53893  0  3.376013  0
N  N28  1  0.86848273  0.10397057  0.46291744  1  0  -0.666155  0  3.125717  0  0  -0.580773  0  3.412371  0  0  -0.61133  0  3.415344  0  0  -0.379464  -0.559658  0  3.409701  0
N  N29  1  0.10397047  0.86848036  0.96291754  1  0  -0.666247  0  3.12578  0  0  -0.58093  0  3.412516  0  0  -0.611478  0  3.415468  0  0  -0.379548  -0.559815  0  3.409854  0
N  N30  1  0.71215502  0.75547379  0.47627604  1  0  -0.677914  0  3.126936  0  0  -0.63621  0  3.370093  0  0  -0.657931  0  3.361822  0  0  -0.569384  -0.621065  0  3.375822  0
N  N31  1  0.75547117  0.71215632  0.97627471  1  0  -0.678018  0  3.126931  0  0  -0.636301  0  3.37014  0  0  -0.658021  0  3.361868  0  0  -0.56941  -0.621157  0  3.375875  0
N  N32  1  0.99950638  0.24937800  0.83854840  1  0  -0.675426  0  3.093017  0  0  -0.641134  0  3.339696  0  0  -0.661005  0  3.331893  0  0  -0.574831  -0.627272  0  3.344717  0
N  N33  1  0.24937671  0.99950518  0.33854903  1  0  -0.675466  0  3.093037  0  0  -0.641195  0  3.339749  0  0  -0.661065  0  3.33194  0  0  -0.574826  -0.62733  0  3.344764  0
N  N34  1  0.03596118  0.45635548  0.46398820  1  0  -0.677109  0  3.074932  0  0  -0.636554  0  3.314439  0  0  -0.657926  0  3.307493  0  0  -0.568473  -0.621739  0  3.319269  0
N  N35  1  0.45635679  0.03595899  0.96399020  1  0  -0.677185  0  3.07486  0  0  -0.636616  0  3.314367  0  0  -0.657989  0  3.307423  0  0  -0.568485  -0.6218  0  3.319203  0
N  N36  1  0.51676923  0.38451901  0.66331788  1  0  0.705287  0  4.129436  0  0  0.724583  0  4.441668  0  0  0.753022  0  4.447784  0  0  0.101105  0.705449  0  4.437215  0
N  N37  1  0.38451861  0.51676887  0.16331908  1  0  0.705366  0  4.129381  0  0  0.724468  0  4.441876  0  0  0.752905  0  4.447999  0  0  0.101175  0.705338  0  4.437415  0
O  O38  1  0.31776613  0.82434603  0.63086978  1  0  -0.830105  0  1.913048  0  0  -0.766709  0  2.104439  0  0  -0.788654  0  2.072965  0  0  -0.592045  -0.750954  0  2.126314  0
O  O39  1  0.82434747  0.31776576  0.13086975  1  0  -0.830112  0  1.913054  0  0  -0.766726  0  2.104431  0  0  -0.788669  0  2.072956  0  0  -0.59206  -0.750969  0  2.126305  0
O  O40  1  0.58560238  0.58333786  0.71718362  1  0  -0.513657  0  1.887032  0  0  -0.485747  0  2.122085  0  0  -0.502866  0  2.111805  0  0  -0.188535  -0.47395  0  2.129268  0
O  O41  1  0.58333785  0.58559862  0.21718532  1  0  -0.513596  0  1.886948  0  0  -0.485648  0  2.122089  0  0  -0.502762  0  2.111809  0  0  -0.188564  -0.473851  0  2.129269  0
O  O42  1  0.49585922  0.33439455  0.54750878  1  0  -0.443187  0  1.770243  0  0  -0.425982  0  1.981463  0  0  -0.440511  0  1.976578  0  0  -0.172704  -0.416039  0  1.984831  0
O  O43  1  0.33439514  0.49584787  0.04750994  1  0  -0.443289  0  1.770255  0  0  -0.425982  0  1.981534  0  0  -0.440513  0  1.976655  0  0  -0.172754  -0.416042  0  1.984902  0
O  O44  1  0.47444974  0.24496175  0.72825372  1  0  -0.450094  0  1.801682  0  0  -0.426304  0  2.009434  0  0  -0.44186  0  2.003409  0  0  -0.174366  -0.415664  0  2.013537  0
O  O45  1  0.24496174  0.47446291  0.22825634  1  0  -0.450086  0  1.801657  0  0  -0.42626  0  2.009496  0  0  -0.441833  0  2.003497  0  0  -0.174355  -0.415618  0  2.013589  0
