# generated using pymatgen
data_LaH19C30N5O7
_symmetry_space_group_name_H-M   'P 1'
_cell_length_a   10.65879038
_cell_length_b   11.13710247
_cell_length_c   13.77400000
_cell_angle_alpha   110.43821466
_cell_angle_beta   100.65003304
_cell_angle_gamma   108.22073963
_symmetry_Int_Tables_number   1
_chemical_formula_structural   LaH19C30N5O7
_chemical_formula_sum   'La2 H38 C60 N10 O14'
_cell_volume   1373.64749859
_cell_formula_units_Z   2
loop_
 _symmetry_equiv_pos_site_id
 _symmetry_equiv_pos_as_xyz
  1  'x, y, z'
loop_
 _atom_site_type_symbol
 _atom_site_label
 _atom_site_symmetry_multiplicity
 _atom_site_fract_x
 _atom_site_fract_y
 _atom_site_fract_z
 _atom_site_occupancy
 _atom_site_hle17_bader_spin_density
 _atom_site_hle17_ddec_charge
 _atom_site_hle17_ddec_spin_density
 _atom_site_hle17_ddec_sum_bond_order
 _atom_site_hle17_magmom
 _atom_site_hse06_10hf_bader_spin_density
 _atom_site_hse06_10hf_ddec_charge
 _atom_site_hse06_10hf_ddec_spin_density
 _atom_site_hse06_10hf_ddec_sum_bond_order
 _atom_site_hse06_10hf_magmom
 _atom_site_hse06_bader_spin_density
 _atom_site_hse06_ddec_charge
 _atom_site_hse06_ddec_spin_density
 _atom_site_hse06_ddec_sum_bond_order
 _atom_site_hse06_magmom
 _atom_site_pbe_bader_charge
 _atom_site_pbe_bader_spin_density
 _atom_site_pbe_cm5_charge
 _atom_site_pbe_ddec_charge
 _atom_site_pbe_ddec_spin_density
 _atom_site_pbe_ddec_sum_bond_order
 _atom_site_pbe_magmom
La  La0  1  0.49913975  0.91644303  0.61732222  1  0  2.021604  0  1.886462  0  0  1.874843  0  2.429279  0  0  1.977502  0  2.333706  0  2.234162  0  1.401248  1.798122  0  2.495881  0
La  La1  1  0.50085499  0.08355879  0.38267254  1  0  2.021721  0  1.886373  0  0  1.874952  0  2.429182  0  0  1.977604  0  2.33362  0  2.23417  0  1.401292  1.798225  0  2.495799  0
H  H2  1  0.43066601  0.58317421  0.01040775  1  0  0.095472  0  0.970233  0  0  0.103865  0  1.034227  0  0  0.106276  0  1.035519  0  0.085735  0  0.100001  0.102053  0  1.033714  0
H  H3  1  0.56933999  0.41683181  0.98959561  1  0  0.0955  0  0.97021  0  0  0.103897  0  1.034188  0  0  0.106311  0  1.035474  0  0.085684  0  0.10002  0.102078  0  1.033697  0
H  H4  1  0.26854492  0.33673402  0.96031769  1  0  0.059753  0  0.944766  0  0  0.068614  0  1.008651  0  0  0.070898  0  1.007316  0  0.0964  0  0.105434  0.066948  0  1.009641  0
H  H5  1  0.73146161  0.66327095  0.03968618  1  0  0.059716  0  0.94478  0  0  0.068568  0  1.008683  0  0  0.070853  0  1.007345  0  0.096327  0  0.105441  0.066912  0  1.009662  0
H  H6  1  0.95085735  0.44455660  0.37575749  1  0  0.069456  0  0.950025  0  0  0.076542  0  1.018499  0  0  0.079474  0  1.015957  0  0.097877  0  0.107889  0.074331  0  1.020547  0
H  H7  1  0.04914417  0.55544313  0.62424272  1  0  0.069428  0  0.950017  0  0  0.076527  0  1.01848  0  0  0.079459  0  1.015938  0  0.097883  0  0.107882  0.074315  0  1.02053  0
H  H8  1  0.01812905  0.30366911  0.46588311  1  0  0.10367  0  0.962423  0  0  0.112453  0  1.025258  0  0  0.115041  0  1.025886  0  0.076067  0  0.104712  0.110314  0  1.02561  0
H  H9  1  0.98186703  0.69632432  0.53411091  1  0  0.103613  0  0.962504  0  0  0.112427  0  1.025292  0  0  0.114998  0  1.025942  0  0.076256  0  0.104697  0.110288  0  1.025644  0
H  H10  1  0.21888884  0.23764956  0.43425564  1  0  0.115313  0  0.940557  0  0  0.1218  0  1.00468  0  0  0.125111  0  1.002459  0  0.139771  0  0.116179  0.119336  0  1.006394  0
H  H11  1  0.78110853  0.76234701  0.56574091  1  0  0.115321  0  0.940528  0  0  0.121816  0  1.004642  0  0  0.12513  0  1.002414  0  0.139598  0  0.116177  0.11935  0  1.00636  0
H  H12  1  0.04313316  0.66525512  0.29469451  1  0  0.106848  0  0.947099  0  0  0.111385  0  1.015128  0  0  0.115839  0  1.011362  0  0.113293  0  0.105439  0.10785  0  1.01837  0
H  H13  1  0.95686697  0.33474355  0.70530666  1  0  0.106846  0  0.947068  0  0  0.111351  0  1.015129  0  0  0.115809  0  1.01136  0  0.113309  0  0.105406  0.107817  0  1.01837  0
H  H14  1  0.78000391  0.55010510  0.22572029  1  0  0.0992  0  0.959268  0  0  0.111107  0  1.015594  0  0  0.114394  0  1.014826  0  0.090808  0  0.103614  0.108788  0  1.016155  0
H  H15  1  0.21999823  0.44989148  0.77428275  1  0  0.099229  0  0.959213  0  0  0.111153  0  1.015522  0  0  0.114442  0  1.014751  0  0.090835  0  0.103626  0.108832  0  1.016086  0
H  H16  1  0.65023646  0.68356745  0.31379267  1  0  0.074876  0  0.96076  0  0  0.083301  0  1.024195  0  0  0.085955  0  1.022042  0  0.086956  0  0.109798  0.081261  0  1.026071  0
H  H17  1  0.34975972  0.31642387  0.68620368  1  0  0.074881  0  0.960711  0  0  0.083283  0  1.024173  0  0  0.085954  0  1.022001  0  0.086973  0  0.109798  0.081244  0  1.02605  0
H  H18  1  0.84537496  0.09009741  0.77903747  1  0  0.085606  0  0.951962  0  0  0.091193  0  1.01774  0  0  0.094497  0  1.01451  0  0.141202  0  0.121152  0.088778  0  1.020071  0
H  H19  1  0.15462241  0.90989916  0.22095981  1  0  0.085599  0  0.951928  0  0  0.091186  0  1.017713  0  0  0.094489  0  1.014483  0  0.141225  0  0.121158  0.08878  0  1.020034  0
H  H20  1  0.02102742  0.23855604  0.97142121  1  0  0.103099  0  0.984096  0  0  0.108179  0  1.051269  0  0  0.111632  0  1.050084  0  0.122437  0  0.101958  0.106012  0  1.051553  0
H  H21  1  0.97897271  0.76144263  0.02857488  1  0  0.103087  0  0.984172  0  0  0.108179  0  1.051324  0  0  0.111632  0  1.050137  0  0.122457  0  0.101969  0.106013  0  1.051606  0
H  H22  1  0.93471803  0.31949938  0.12757504  1  0  0.102987  0  0.969806  0  0  0.109361  0  1.036603  0  0  0.112349  0  1.034783  0  0.128932  0  0.105378  0.107181  0  1.03789  0
H  H23  1  0.06528402  0.68049929  0.87242349  1  0  0.102979  0  0.969872  0  0  0.10935  0  1.03666  0  0  0.112335  0  1.034852  0  0.128899  0  0.10538  0.10717  0  1.037949  0
H  H24  1  0.72877062  0.31229483  0.19481523  1  0  0.106581  0  0.949085  0  0  0.118107  0  1.0102  0  0  0.120963  0  1.008871  0  0.087467  0  0.108471  0.116021  0  1.01115  0
H  H25  1  0.27123366  0.68770700  0.80518380  1  0  0.106617  0  0.949066  0  0  0.118137  0  1.010189  0  0  0.120992  0  1.00886  0  0.087479  0  0.108471  0.116058  0  1.011119  0
H  H26  1  0.47488638  0.24296028  0.15358696  1  0  0.114474  0  0.965846  0  0  0.123044  0  1.028104  0  0  0.126319  0  1.02703  0  0.116677  0  0.109945  0.120711  0  1.028868  0
H  H27  1  0.52511695  0.75704154  0.84641266  1  0  0.114471  0  0.965849  0  0  0.123039  0  1.028106  0  0  0.126316  0  1.027031  0  0.116719  0  0.109954  0.120706  0  1.028871  0
H  H28  1  0.23297026  0.11471832  0.01605346  1  0  0.106942  0  0.929006  0  0  0.11592  0  0.990783  0  0  0.119628  0  0.987671  0  0.09745  0  0.111932  0.11319  0  0.993109  0
H  H29  1  0.76703264  0.88528245  0.98394870  1  0  0.106968  0  0.928993  0  0  0.115967  0  0.99074  0  0  0.119658  0  0.987649  0  0.097475  0  0.111925  0.113238  0  0.993066  0
H  H30  1  0.07812915  0.96403366  0.81822069  1  0  0.109043  0  0.936259  0  0  0.122977  0  0.985664  0  0  0.125664  0  0.986287  0  0.100009  0  0.111451  0.121283  0  0.984905  0
H  H31  1  0.92186812  0.03596502  0.18178080  1  0  0.10903  0  0.936232  0  0  0.122966  0  0.985637  0  0  0.125653  0  0.98626  0  0.100018  0  0.111461  0.121273  0  0.984876  0
H  H32  1  0.19108048  0.90239105  0.67425568  1  0  0.083852  0  0.957971  0  0  0.088093  0  1.028561  0  0  0.091027  0  1.025877  0  0.149911  0  0.121141  0.08581  0  1.030825  0
H  H33  1  0.80891817  0.09760868  0.32574557  1  0  0.083871  0  0.957933  0  0  0.088098  0  1.028533  0  0  0.091032  0  1.02585  0  0.149897  0  0.121144  0.08581  0  1.030808  0
H  H34  1  0.50287885  0.76488578  0.20626825  1  0  0.093788  0  0.987925  0  0  0.099533  0  1.057382  0  0  0.102289  0  1.05575  0  0.122616  0  0.112761  0.097596  0  1.058452  0
H  H35  1  0.49712247  0.23511814  0.79373457  1  0  0.093847  0  0.987842  0  0  0.099577  0  1.057317  0  0  0.102334  0  1.055685  0  0.122686  0  0.112765  0.097641  0  1.058386  0
H  H36  1  0.27020012  0.62740887  0.54544022  1  0  0.415193  0  0.850689  0  0  0.394253  0  0.914828  0  0  0.402134  0  0.907193  0  0.597407  0  0.309486  0.388628  0  0.920351  0
H  H37  1  0.72980192  0.37258980  0.45456049  1  0  0.415168  0  0.850701  0  0  0.394238  0  0.91482  0  0  0.40212  0  0.907199  0  0.59741  0  0.309486  0.388615  0  0.920336  0
H  H38  1  0.38290592  0.64377590  0.64577820  1  0  0.412974  0  0.897932  0  0  0.381172  0  0.964226  0  0  0.393514  0  0.946559  0  0.640261  0  0.287406  0.37243  0  0.976653  0
H  H39  1  0.61709379  0.35622173  0.35422116  1  0  0.412995  0  0.897902  0  0  0.381184  0  0.964209  0  0  0.393528  0  0.94654  0  0.640274  0  0.287421  0.372443  0  0.976634  0
C  C40  1  0.42189738  0.72714142  0.36919836  1  0  0.692937  0  3.872855  0  0  0.646078  0  4.162506  0  0  0.682773  0  4.15564  0  1.566047  0  0.225888  0.62077  0  4.166641  0
C  C41  1  0.57810446  0.27286146  0.63080496  1  0  0.693037  0  3.872922  0  0  0.646156  0  4.162593  0  0  0.682853  0  4.155721  0  1.565809  0  0.225942  0.620847  0  4.166731  0
C  C42  1  0.37496260  0.61954783  0.25298735  1  0  -0.13004  0  3.68426  0  0  -0.112704  0  3.918369  0  0  -0.123731  0  3.936583  0  -0.048514  0  -0.004193  -0.106367  0  3.907517  0
C  C43  1  0.62504159  0.38045610  0.74701516  1  0  -0.130179  0  3.684364  0  0  -0.112854  0  3.91849  0  0  -0.123871  0  3.936715  0  -0.048284  0  -0.004271  -0.106517  0  3.907639  0
C  C44  1  0.39085083  0.55663636  0.07092853  1  0  -0.134043  0  3.762521  0  0  -0.144224  0  4.01048  0  0  -0.151783  0  4.032252  0  -0.002775  0  -0.092343  -0.139545  0  3.995946  0
C  C45  1  0.60915145  0.44336757  0.92907297  1  0  -0.134112  0  3.762436  0  0  -0.144288  0  4.010402  0  0  -0.151848  0  4.032173  0  -0.002762  0  -0.092396  -0.139611  0  3.995868  0
C  C46  1  0.30032863  0.41973401  0.04330372  1  0  0.122886  0  3.75605  0  0  0.098682  0  4.013376  0  0  0.105771  0  4.02958  0  0.433856  0  0.040936  0.094382  0  4.002237  0
C  C47  1  0.69967460  0.58026991  0.95669865  1  0  0.122996  0  3.756004  0  0  0.098798  0  4.013326  0  0  0.105887  0  4.029525  0  0.433744  0  0.040958  0.09449  0  4.002185  0
C  C48  1  0.28345786  0.47875697  0.21702088  1  0  0.206747  0  3.712177  0  0  0.196069  0  3.962662  0  0  0.205368  0  3.977971  0  0.612767  0  0.140317  0.190045  0  3.952493  0
C  C49  1  0.71654494  0.52124590  0.78298041  1  0  0.20688  0  3.711956  0  0  0.196243  0  3.962388  0  0  0.205503  0  3.97775  0  0.612778  0  0.140328  0.190219  0  3.95222  0
C  C50  1  0.21568781  0.43039012  0.29040352  1  0  0.188791  0  3.738883  0  0  0.177062  0  3.994331  0  0  0.185877  0  4.009057  0  0.562719  0  0.132436  0.171389  0  3.984249  0
C  C51  1  0.78431447  0.56961381  0.70959799  1  0  0.188698  0  3.738958  0  0  0.176953  0  3.994374  0  0  0.185782  0  4.009102  0  0.562685  0  0.132396  0.171281  0  3.984292  0
C  C52  1  0.03920187  0.41701773  0.36623435  1  0  0.10957  0  3.755748  0  0  0.084926  0  4.016723  0  0  0.091152  0  4.033276  0  0.442747  0  0.037284  0.081108  0  4.005371  0
C  C53  1  0.96079774  0.58298200  0.63376559  1  0  0.10967  0  3.755663  0  0  0.085014  0  4.016651  0  0  0.09124  0  4.033198  0  0.442747  0  0.03733  0.081193  0  4.005304  0
C  C54  1  0.07609370  0.33755227  0.41598073  1  0  -0.141903  0  3.766463  0  0  -0.153097  0  4.01857  0  0  -0.160454  0  4.04064  0  -0.075411  0  -0.09236  -0.148602  0  4.004188  0
C  C55  1  0.92390410  0.66244535  0.58401618  1  0  -0.141908  0  3.766481  0  0  -0.15313  0  4.018613  0  0  -0.160475  0  4.040687  0  -0.075409  0  -0.092386  -0.148635  0  4.004229  0
C  C56  1  0.18718336  0.30184565  0.39918931  1  0  -0.010447  0  3.678253  0  0  -0.036793  0  3.92279  0  0  -0.031616  0  3.938626  0  -0.008444  0  -0.06009  -0.039882  0  3.912409  0
C  C57  1  0.81281539  0.69815198  0.60080919  1  0  -0.010448  0  3.678254  0  0  -0.036811  0  3.922786  0  0  -0.031631  0  3.938618  0  -0.008562  0  -0.060094  -0.039897  0  3.912403  0
C  C58  1  0.26035205  0.35050766  0.33656479  1  0  -0.118088  0  3.681376  0  0  -0.102328  0  3.916713  0  0  -0.111571  0  3.933955  0  -0.021058  0  -0.001964  -0.096908  0  3.90608  0
C  C59  1  0.73964851  0.64949207  0.66343529  1  0  -0.118026  0  3.681479  0  0  -0.10221  0  3.916747  0  0  -0.111455  0  3.933988  0  -0.021013  0  -0.001911  -0.096793  0  3.906114  0
C  C60  1  0.38463712  0.31850993  0.32293055  1  0  0.685892  0  3.885591  0  0  0.636801  0  4.183519  0  0  0.672594  0  4.174341  0  1.598753  0  0.222516  0.611918  0  4.18961  0
C  C61  1  0.61536344  0.68148980  0.67706807  1  0  0.685779  0  3.885482  0  0  0.636632  0  4.183488  0  0  0.672423  0  4.174317  0  1.59872  0  0.222444  0.61175  0  4.189576  0
C  C62  1  0.20831143  0.92016243  0.45154885  1  0  0.720741  0  3.900876  0  0  0.66378  0  4.216114  0  0  0.703177  0  4.20194  0  1.613341  0  0.236017  0.636445  0  4.225279  0
C  C63  1  0.79168522  0.07983940  0.54845054  1  0  0.720884  0  3.900654  0  0  0.663799  0  4.216059  0  0  0.703196  0  4.201879  0  1.613028  0  0.236  0.636464  0  4.225222  0
C  C64  1  0.05088300  0.85938113  0.41192557  1  0  -0.111775  0  3.681846  0  0  -0.093183  0  3.917207  0  0  -0.10033  0  3.934242  0  -0.004084  0  -0.000593  -0.088916  0  3.90609  0
C  C65  1  0.94911193  0.14061649  0.58807311  1  0  -0.111765  0  3.681713  0  0  -0.093054  0  3.917021  0  0  -0.100197  0  3.934049  0  -0.0041  0  -0.000543  -0.088789  0  3.905907  0
C  C66  1  0.98224159  0.72221934  0.32763601  1  0  -0.048369  0  3.728385  0  0  -0.072648  0  3.974907  0  0  -0.070917  0  3.99264  0  -0.073667  0  -0.074339  -0.073338  0  3.962988  0
C  C67  1  0.01776003  0.27777828  0.67236652  1  0  -0.048352  0  3.728335  0  0  -0.072631  0  3.974851  0  0  -0.070903  0  3.992582  0  -0.073622  0  -0.074319  -0.073321  0  3.962931  0
C  C68  1  0.83665179  0.65743819  0.28995296  1  0  -0.125382  0  3.764721  0  0  -0.135727  0  4.012593  0  0  -0.141008  0  4.032641  0  -0.028862  0  -0.09035  -0.132227  0  3.998738  0
C  C69  1  0.16334844  0.34255838  0.71004763  1  0  -0.125465  0  3.764779  0  0  -0.135824  0  4.012628  0  0  -0.141108  0  4.03268  0  -0.028829  0  -0.090371  -0.132323  0  3.998775  0
C  C70  1  0.76400244  0.73247840  0.33842447  1  0  0.119055  0  3.741703  0  0  0.090817  0  4.003886  0  0  0.097431  0  4.019091  0  0.491513  0  0.042605  0.086428  0  3.993562  0
C  C71  1  0.23599173  0.26751502  0.66157291  1  0  0.119019  0  3.741758  0  0  0.090804  0  4.003934  0  0  0.097408  0  4.019135  0  0.491524  0  0.042552  0.086413  0  3.993611  0
C  C72  1  0.96858155  0.92764849  0.45501839  1  0  0.149029  0  3.7534  0  0  0.14057  0  4.000255  0  0  0.146219  0  4.019563  0  0.514133  0  0.119178  0.136765  0  3.987266  0
C  C73  1  0.03141114  0.07234598  0.54497618  1  0  0.149011  0  3.75345  0  0  0.140446  0  4.000378  0  0  0.146094  0  4.019684  0  0.489081  0  0.119148  0.136641  0  3.987388  0
C  C74  1  0.81224446  0.12641850  0.85031033  1  0  0.149568  0  3.697041  0  0  0.122914  0  3.949386  0  0  0.131297  0  3.966025  0  0.501622  0  0.061167  0.117183  0  3.938018  0
C  C75  1  0.18775758  0.87358017  0.14968894  1  0  0.149626  0  3.696901  0  0  0.12298  0  3.949241  0  0  0.131366  0  3.965876  0  0.501561  0  0.061177  0.117242  0  3.937871  0
C  C76  1  0.90940280  0.20911703  0.95699940  1  0  -0.123357  0  3.742455  0  0  -0.131929  0  3.985393  0  0  -0.138981  0  4.006217  0  -0.012536  0  -0.086311  -0.127338  0  3.970774  0
C  C77  1  0.09059595  0.79088059  0.04299765  1  0  -0.123365  0  3.742378  0  0  -0.13195  0  3.985326  0  0  -0.139  0  4.006146  0  -0.01248  0  -0.086288  -0.12736  0  3.970711  0
C  C78  1  0.86156675  0.25318994  0.04399967  1  0  -0.044006  0  3.678585  0  0  -0.065227  0  3.919646  0  0  -0.063433  0  3.938433  0  -0.093194  0  -0.064399  -0.065729  0  3.906668  0
C  C79  1  0.13843519  0.74681084  0.95599799  1  0  -0.043964  0  3.678499  0  0  -0.06517  0  3.919576  0  0  -0.063378  0  3.938362  0  -0.093268  0  -0.064432  -0.065674  0  3.9066  0
C  C80  1  0.71621613  0.21178710  0.02415461  1  0  0.021083  0  3.80315  0  0  0.037144  0  4.033306  0  0  0.034442  0  4.058758  0  -0.073545  0  -0.004318  0.038568  0  4.016464  0
C  C81  1  0.28378635  0.78821262  0.97584574  1  0  0.021069  0  3.803088  0  0  0.037098  0  4.033267  0  0  0.034398  0  4.058717  0  -0.073535  0  -0.004325  0.038526  0  4.01642  0
C  C82  1  0.62567071  0.12723150  0.91357372  1  0  0.122376  0  3.76568  0  0  0.119104  0  4.005161  0  0  0.123053  0  4.027938  0  0.492657  0  0.118721  0.116044  0  3.990159  0
C  C83  1  0.37432943  0.87276718  0.08642672  1  0  0.122326  0  3.765752  0  0  0.119106  0  4.005191  0  0  0.123056  0  4.027966  0  0.492675  0  0.118767  0.116044  0  3.99019  0
C  C84  1  0.65841601  0.25115430  0.11008414  1  0  -0.102264  0  3.737203  0  0  -0.125338  0  3.993616  0  0  -0.128621  0  4.016064  0  -0.051359  0  -0.084086  -0.122721  0  3.978259  0
C  C85  1  0.34158732  0.74884753  0.88991693  1  0  -0.102379  0  3.737174  0  0  -0.125448  0  3.993614  0  0  -0.128736  0  4.016069  0  -0.051344  0  -0.084118  -0.122831  0  3.978263  0
C  C86  1  0.51733301  0.21074197  0.08748088  1  0  -0.092231  0  3.712823  0  0  -0.117163  0  3.971622  0  0  -0.119624  0  3.993187  0  0.007695  0  -0.081574  -0.115568  0  3.957068  0
C  C87  1  0.48266894  0.78925880  0.91252041  1  0  -0.09216  0  3.712717  0  0  -0.117071  0  3.971521  0  0  -0.119531  0  3.993085  0  0.007609  0  -0.081578  -0.115479  0  3.956969  0
C  C88  1  0.42304071  0.12605087  0.97718621  1  0  0.017217  0  3.78488  0  0  0.032385  0  4.018853  0  0  0.029597  0  4.043026  0  0.007768  0  -0.004879  0.034195  0  4.002611  0
C  C89  1  0.57696071  0.87395095  0.02281458  1  0  0.017228  0  3.784738  0  0  0.032348  0  4.018794  0  0  0.029561  0  4.042963  0  0.007807  0  -0.004889  0.03416  0  4.002549  0
C  C90  1  0.47632779  0.08286239  0.88971166  1  0  0.127792  0  3.767629  0  0  0.125547  0  4.004813  0  0  0.130192  0  4.027323  0  0.508629  0  0.122768  0.122568  0  3.989441  0
C  C91  1  0.52367320  0.91713838  0.11028950  1  0  0.127838  0  3.767523  0  0  0.125569  0  4.004755  0  0  0.130215  0  4.027264  0  0.508603  0  0.122756  0.12259  0  3.989385  0
C  C92  1  0.27639953  0.08219435  0.95045900  1  0  -0.040709  0  3.686665  0  0  -0.065226  0  3.937423  0  0  -0.062357  0  3.954883  0  -0.082694  0  -0.058754  -0.066732  0  3.925344  0
C  C93  1  0.72360284  0.91780748  0.04954338  1  0  -0.040848  0  3.686803  0  0  -0.065371  0  3.937573  0  0  -0.062489  0  3.955045  0  -0.082679  0  -0.058785  -0.066879  0  3.925496  0
C  C94  1  0.19165118  0.00088232  0.84207165  1  0  -0.126934  0  3.737854  0  0  -0.137055  0  3.985388  0  0  -0.144623  0  4.006944  0  -0.054127  0  -0.083335  -0.132358  0  3.970505  0
C  C95  1  0.80834748  0.99911740  0.15792961  1  0  -0.12687  0  3.737916  0  0  -0.136991  0  3.985441  0  0  -0.144558  0  4.006993  0  -0.054171  0  -0.083335  -0.132293  0  3.970557  0
C  C96  1  0.25384908  0.96451998  0.76084467  1  0  0.158397  0  3.694241  0  0  0.128118  0  3.954365  0  0  0.136943  0  3.971739  0  0.494344  0  0.065073  0.122375  0  3.942602  0
C  C97  1  0.74614957  0.03547974  0.23915586  1  0  0.158435  0  3.694238  0  0  0.128169  0  3.954353  0  0  0.136995  0  3.971726  0  0.494369  0  0.065111  0.122427  0  3.942587  0
C  C98  1  0.42909039  0.65715249  0.17802580  1  0  -0.013474  0  3.726127  0  0  -0.043554  0  3.977564  0  0  -0.038156  0  3.99444  0  -0.065616  0  -0.063931  -0.046631  0  3.966189  0
C  C99  1  0.57091284  0.34285144  0.82197584  1  0  -0.013525  0  3.725958  0  0  -0.043594  0  3.97741  0  0  -0.038198  0  3.99429  0  -0.06558  0  -0.063924  -0.046669  0  3.966033  0
N  N100  1  0.24742528  0.38056113  0.11412000  1  0  -0.347943  0  3.058021  0  0  -0.317397  0  3.328435  0  0  -0.329971  0  3.341929  0  -1.204093  0  -0.31356  -0.309178  0  3.319115  0
N  N101  1  0.75257710  0.61944069  0.88588238  1  0  -0.348034  0  3.057945  0  0  -0.317515  0  3.328364  0  0  -0.330075  0  3.341868  0  -1.204065  0  -0.313568  -0.309296  0  3.31905  0
N  N102  1  0.10608531  0.46173346  0.30349380  1  0  -0.356762  0  3.077197  0  0  -0.325119  0  3.348342  0  0  -0.337068  0  3.360994  0  -1.205779  0  -0.320512  -0.317037  0  3.339551  0
N  N103  1  0.89391664  0.53826731  0.69650750  1  0  -0.35676  0  3.07716  0  0  -0.325124  0  3.348312  0  0  -0.337072  0  3.360959  0  -1.205765  0  -0.320503  -0.317042  0  3.339523  0
N  N104  1  0.82792177  0.86382949  0.41763613  1  0  -0.310633  0  3.105278  0  0  -0.2742  0  3.371749  0  0  -0.28606  0  3.387673  0  -1.157301  0  -0.299853  -0.265967  0  3.36085  0
N  N105  1  0.17207378  0.13616498  0.58235956  1  0  -0.310506  0  3.105371  0  0  -0.274047  0  3.371843  0  0  -0.285908  0  3.38777  0  -1.157237  0  -0.29974  -0.265814  0  3.360944  0
N  N106  1  0.67469786  0.08764477  0.82863990  1  0  -0.381944  0  3.192937  0  0  -0.336256  0  3.462601  0  0  -0.356626  0  3.483744  0  -1.241926  0  -0.355239  -0.321687  0  3.44802  0
N  N107  1  0.32530270  0.91235495  0.17135800  1  0  -0.381949  0  3.193079  0  0  -0.336273  0  3.46273  0  0  -0.356645  0  3.483873  0  -1.241824  0  -0.355256  -0.321705  0  3.448151  0
N  N108  1  0.39154854  0.00394733  0.78323596  1  0  -0.396488  0  3.185203  0  0  -0.347943  0  3.454382  0  0  -0.369263  0  3.475537  0  -1.255981  0  -0.356814  -0.333038  0  3.4393  0
N  N109  1  0.60845011  0.99605240  0.21676530  1  0  -0.396535  0  3.185271  0  0  -0.347972  0  3.454437  0  0  -0.369294  0  3.475599  0  -1.256035  0  -0.356842  -0.333061  0  3.439338  0
O  O110  1  0.47075641  0.85722470  0.38908180  1  0  -0.73643  0  2.071279  0  0  -0.681013  0  2.337878  0  0  -0.719345  0  2.331055  0  -1.211026  0  -0.390401  -0.652833  0  2.341114  0
O  O111  1  0.52924343  0.14278028  0.61092256  1  0  -0.736368  0  2.071444  0  0  -0.680956  0  2.338049  0  0  -0.719282  0  2.331219  0  -1.210956  0  -0.390395  -0.652774  0  2.341284  0
O  O112  1  0.41540006  0.68772801  0.44463185  1  0  -0.644192  0  1.984543  0  0  -0.595945  0  2.220608  0  0  -0.627326  0  2.214624  0  -1.174946  0  -0.351392  -0.573085  0  2.223921  0
O  O113  1  0.58460116  0.31227802  0.55537083  1  0  -0.644277  0  1.984441  0  0  -0.595984  0  2.220476  0  0  -0.627372  0  2.2145  0  -1.174949  0  -0.351373  -0.573124  0  2.22379  0
O  O114  1  0.49000138  0.40844137  0.32094339  1  0  -0.600022  0  1.911421  0  0  -0.551169  0  2.120856  0  0  -0.576233  0  2.112511  0  -1.165517  0  -0.304496  -0.533373  0  2.126322  0
O  O115  1  0.50999598  0.59155520  0.67905679  1  0  -0.599976  0  1.911171  0  0  -0.551113  0  2.120628  0  0  -0.57618  0  2.112286  0  -1.16549  0  -0.304454  -0.533318  0  2.126093  0
O  O116  1  0.37373425  0.19717526  0.31480707  1  0  -0.718788  0  2.04348  0  0  -0.669515  0  2.306844  0  0  -0.704895  0  2.298147  0  -1.202345  0  -0.420058  -0.643471  0  2.312064  0
O  O117  1  0.62626407  0.80282131  0.68518962  1  0  -0.718738  0  2.043537  0  0  -0.669442  0  2.306902  0  0  -0.704822  0  2.298212  0  -1.202298  0  -0.420031  -0.6434  0  2.31212  0
O  O118  1  0.26390233  0.88558812  0.52148601  1  0  -0.684687  0  2.013202  0  0  -0.637443  0  2.277865  0  0  -0.671577  0  2.267574  0  -1.201008  0  -0.381  -0.612597  0  2.284116  0
O  O119  1  0.73609049  0.11441371  0.47851210  1  0  -0.684895  0  2.013062  0  0  -0.637579  0  2.277746  0  0  -0.671712  0  2.267454  0  -1.20076  0  -0.381074  -0.612732  0  2.283998  0
O  O120  1  0.27022260  0.98537423  0.40328306  1  0  -0.682321  0  2.043093  0  0  -0.639099  0  2.3122  0  0  -0.672811  0  2.301309  0  -1.200295  0  -0.374206  -0.614652  0  2.318816  0
O  O121  1  0.72977586  0.01462969  0.59671499  1  0  -0.682316  0  2.043152  0  0  -0.63905  0  2.312299  0  0  -0.672767  0  2.301416  0  -1.200261  0  -0.374136  -0.614601  0  2.318914  0
O  O122  1  0.31843333  0.68688245  0.62384645  1  0  -0.849637  0  1.817296  0  0  -0.804509  0  2.001933  0  0  -0.828069  0  1.97567  0  -1.245478  0  -0.604991  -0.787111  0  2.020258  0
O  O123  1  0.68156637  0.31311517  0.37615291  1  0  -0.849607  0  1.817286  0  0  -0.80449  0  2.001938  0  0  -0.828053  0  1.975687  0  -1.245489  0  -0.604999  -0.787093  0  2.02026  0
