# generated using pymatgen
data_CuH10C6Br2(N4Cl)2
_symmetry_space_group_name_H-M   'P 1'
_cell_length_a   6.89247986
_cell_length_b   7.58816580
_cell_length_c   13.17373569
_cell_angle_alpha   92.35184700
_cell_angle_beta   89.99931600
_cell_angle_gamma   90.00018184
_symmetry_Int_Tables_number   1
_chemical_formula_structural   CuH10C6Br2(N4Cl)2
_chemical_formula_sum   'Cu2 H20 C12 Br4 N16 Cl4'
_cell_volume   688.42287082
_cell_formula_units_Z   2
loop_
 _symmetry_equiv_pos_site_id
 _symmetry_equiv_pos_as_xyz
  1  'x, y, z'
loop_
 _atom_site_type_symbol
 _atom_site_label
 _atom_site_symmetry_multiplicity
 _atom_site_fract_x
 _atom_site_fract_y
 _atom_site_fract_z
 _atom_site_occupancy
 _atom_site_hle17_ddec_charge
 _atom_site_hle17_ddec_spin_density
 _atom_site_hle17_ddec_sum_bond_order
 _atom_site_hle17_magmom
 _atom_site_hse06_10hf_ddec_charge
 _atom_site_hse06_10hf_ddec_spin_density
 _atom_site_hse06_10hf_ddec_sum_bond_order
 _atom_site_hse06_10hf_magmom
 _atom_site_hse06_ddec_charge
 _atom_site_hse06_ddec_spin_density
 _atom_site_hse06_ddec_sum_bond_order
 _atom_site_hse06_magmom
 _atom_site_pbe_cm5_charge
 _atom_site_pbe_ddec_charge
 _atom_site_pbe_ddec_spin_density
 _atom_site_pbe_ddec_sum_bond_order
 _atom_site_pbe_magmom
Cu  Cu0  1  0.99999778  0.49999445  0.99999976  1  0.66219  0.533469  1.952784  0.385  0.659027  0.66189  2.330448  0.513  0.758552  0.766235  2.248057  0.614  0.551635  0.608733  0.586414  2.37912  0.447
Cu  Cu1  1  0.49999453  0.99999165  0.99999817  1  0.662184  -0.533464  1.952641  -0.385  0.658997  -0.661899  2.330291  -0.513  0.758541  -0.766246  2.247922  -0.614  0.551619  0.608704  -0.586415  2.378958  -0.447
H  H2  1  0.55830268  0.55107614  0.09131488  1  0.126635  6.7e-05  0.962037  0.0  0.133726  0.000108  1.029118  0.0  0.13821  9.4e-05  1.022894  0.0  0.128646  0.130574  0.000127  1.033164  0.0
H  H3  1  0.05831137  0.94892771  0.90867663  1  0.12668  -6.9e-05  0.962066  0.0  0.133716  -0.000109  1.029216  0.0  0.138194  -9.3e-05  1.022984  0.0  0.128671  0.130565  -0.000127  1.033252  0.0
H  H4  1  0.44169186  0.44892925  0.90869292  1  0.126507  6.5e-05  0.962198  0.0  0.133655  0.000108  1.029223  0.0  0.138134  9.3e-05  1.022994  0.0  0.128613  0.130505  0.000127  1.033265  0.0
H  H5  1  0.94168607  0.05105772  0.09131483  1  0.12669  -6.6e-05  0.96204  0.0  0.13377  -0.000108  1.029122  0.0  0.138249  -9.3e-05  1.022893  0.0  0.128694  0.130616  -0.000127  1.033163  0.0
H  H6  1  0.34217655  0.53653302  0.25002762  1  0.100906  -0.000455  0.945773  0.0  0.111476  -0.000333  1.016813  0.0  0.114223  -0.000275  1.013937  0.0  0.105862  0.109555  -0.000354  1.018765  0.0
H  H7  1  0.84218961  0.96347142  0.74997157  1  0.100763  0.000446  0.945809  0.0  0.111402  0.000333  1.016808  0.0  0.114156  0.000275  1.013936  0.0  0.105799  0.10948  0.000354  1.018763  0.0
H  H8  1  0.65783105  0.46348024  0.74997654  1  0.100875  -0.000447  0.945748  0.0  0.111478  -0.000332  1.016811  0.0  0.114214  -0.000275  1.013929  0.0  0.105912  0.109556  -0.000354  1.018761  0.0
H  H9  1  0.15781363  0.03652193  0.25002081  1  0.100714  0.000448  0.94574  0.0  0.111321  0.000333  1.016812  0.0  0.114055  0.000275  1.013923  0.0  0.105839  0.109405  0.000354  1.018766  0.0
H  H10  1  0.47522037  0.63844613  0.35370431  1  0.089425  3.7e-05  0.947713  0.0  0.094054  2.2e-05  1.026492  0.0  0.095184  2e-05  1.025769  0.0  0.104977  0.093159  2.5e-05  1.027118  0.0
H  H11  1  0.97522853  0.86155986  0.64629423  1  0.089425  -4.5e-05  0.947671  0.0  0.094117  -2.3e-05  1.026431  0.0  0.09525  -1.9e-05  1.02572  0.0  0.104979  0.093222  -2.5e-05  1.027064  0.0
H  H12  1  0.52477852  0.36156056  0.64630200  1  0.089311  4.6e-05  0.947583  0.0  0.093961  2.3e-05  1.026393  0.0  0.095088  2e-05  1.025669  0.0  0.104915  0.09307  2.5e-05  1.027025  0.0
H  H13  1  0.02477761  0.13844007  0.35369752  1  0.089329  -4.7e-05  0.947509  0.0  0.093976  -2.3e-05  1.026326  0.0  0.0951  -2e-05  1.025601  0.0  0.10492  0.093087  -2.5e-05  1.02696  0.0
H  H14  1  0.55614477  0.32777071  0.41230150  1  0.085802  3.3e-05  0.976914  0.0  0.087601  4.1e-05  1.059668  0.0  0.089542  2.6e-05  1.058302  0.0  0.088482  0.086114  5e-05  1.060792  0.0
H  H15  1  0.05614930  0.17223390  0.58769490  1  0.085851  -2.3e-05  0.976844  0.0  0.087668  -4e-05  1.059595  0.0  0.089612  -2.6e-05  1.058222  0.0  0.08848  0.086179  -5e-05  1.060727  0.0
H  H16  1  0.44384396  0.67223730  0.58770559  1  0.08579  3.5e-05  0.976826  0.0  0.087594  4.1e-05  1.059602  0.0  0.08954  2.6e-05  1.05823  0.0  0.088455  0.08611  5e-05  1.060722  0.0
H  H17  1  0.94385394  0.82776740  0.41230067  1  0.085814  -2.9e-05  0.976899  0.0  0.087615  -4.1e-05  1.059641  0.0  0.089552  -2.7e-05  1.058274  0.0  0.088471  0.086126  -5e-05  1.060768  0.0
H  H18  1  0.38738655  0.24212650  0.31912737  1  0.094249  -9e-06  0.952248  0.0  0.103445  -4.6e-05  1.022258  0.0  0.104848  -3.5e-05  1.021882  0.0  0.093761  0.102412  -5.1e-05  1.022553  0.0
H  H19  1  0.88739332  0.25788005  0.68087118  1  0.094308  1.5e-05  0.952275  0.0  0.103508  4.6e-05  1.022258  0.0  0.10491  3.5e-05  1.021882  0.0  0.093777  0.102469  5.1e-05  1.022562  0.0
H  H20  1  0.61261234  0.75788407  0.68087142  1  0.094289  -8e-06  0.952308  0.0  0.103495  -4.6e-05  1.022289  0.0  0.104894  -3.5e-05  1.021919  0.0  0.093782  0.102443  -5.1e-05  1.022601  0.0
H  H21  1  0.11260993  0.74211866  0.31912890  1  0.094282  1.3e-05  0.95231  0.0  0.103504  4.6e-05  1.022259  0.0  0.104904  3.5e-05  1.02188  0.0  0.09377  0.102466  5.1e-05  1.02256  0.0
C  C22  1  0.66882957  0.51713152  0.14577113  1  0.174094  -0.003045  3.602992  -0.003  0.096966  -0.000221  3.861603  0.0  0.113229  -0.001078  3.87214  -0.001  0.1736  0.087121  0.000426  3.854447  0.001
C  C23  1  0.16883409  0.98286997  0.85422812  1  0.17395  0.003052  3.603214  0.003  0.096916  0.000221  3.861794  0.0  0.113198  0.001079  3.872317  0.001  0.173556  0.087073  -0.000427  3.854633  -0.001
C  C24  1  0.33117512  0.48287523  0.85424125  1  0.174135  -0.00305  3.602692  -0.003  0.096987  -0.000222  3.861273  0.0  0.113269  -0.001081  3.871804  -0.001  0.173565  0.087147  0.000426  3.854116  0.001
C  C25  1  0.83115175  0.01712073  0.14576344  1  0.173847  0.00305  3.603197  0.003  0.096702  0.000222  3.861791  0.0  0.112973  0.00108  3.872325  0.001  0.173463  0.086864  -0.000426  3.854628  -0.001
C  C26  1  0.46045395  0.51890369  0.30446534  1  -0.031372  0.000376  3.619193  0.0  -0.102898  0.000183  3.86799  0.0  -0.099826  0.00015  3.877609  0.0  -0.05689  -0.104692  0.000209  3.86138  0.0
C  C27  1  0.96046277  0.98110360  0.69553330  1  -0.03112  -0.000329  3.618838  0.0  -0.102835  -0.000184  3.86784  0.0  -0.099802  -0.000151  3.877519  0.0  -0.056787  -0.104582  -0.000209  3.861123  0.0
C  C28  1  0.53955074  0.48111355  0.69554042  1  -0.031133  0.000331  3.618785  0.0  -0.102855  0.000183  3.86795  0.0  -0.099756  0.00015  3.877542  0.0  -0.056892  -0.104652  0.00021  3.861378  0.0
C  C29  1  0.03953032  0.01889239  0.30445913  1  -0.030891  -0.000326  3.618685  0.0  -0.102682  -0.000183  3.867922  0.0  -0.099569  -0.00015  3.877485  0.0  -0.056774  -0.104429  -0.000209  3.861192  0.0
C  C30  1  0.42772142  0.35745505  0.36720943  1  -0.054318  3.1e-05  3.604905  0.0  -0.102659  4.4e-05  3.881475  0.0  -0.099988  3.7e-05  3.888956  0.0  -0.128098  -0.104195  5.9e-05  3.876134  0.0
C  C31  1  0.92771882  0.14255418  0.63278669  1  -0.054534  -8.3e-05  3.604816  0.0  -0.102857  -4.4e-05  3.88139  0.0  -0.100186  -3.6e-05  3.888898  0.0  -0.128136  -0.104386  -5.9e-05  3.876046  0.0
C  C32  1  0.57227892  0.64256082  0.63279174  1  -0.054295  4.1e-05  3.60461  0.0  -0.102637  4.4e-05  3.881257  0.0  -0.099973  3.7e-05  3.888732  0.0  -0.128044  -0.104167  5.9e-05  3.875927  0.0
C  C33  1  0.07228152  0.85744845  0.36721043  1  -0.054459  -6.6e-05  3.604769  0.0  -0.102736  -4.4e-05  3.881326  0.0  -0.100094  -3.6e-05  3.888866  0.0  -0.128087  -0.104263  -5.9e-05  3.875979  0.0
Br  Br34  1  0.78737673  0.26651125  0.92214594  1  -0.475858  0.1656  1.061393  0.162  -0.50243  0.116729  1.39568  0.118  -0.544617  0.094024  1.370003  0.098  -0.251783  -0.479014  0.125812  1.413888  0.126
Br  Br35  1  0.28737789  0.23347933  0.07785507  1  -0.475881  -0.165592  1.061376  -0.162  -0.502426  -0.116715  1.395624  -0.118  -0.544611  -0.094011  1.369947  -0.098  -0.251789  -0.479024  -0.125801  1.413852  -0.126
Br  Br36  1  0.21262071  0.73347957  0.07785549  1  -0.47589  0.165585  1.061384  0.162  -0.502437  0.11672  1.395651  0.118  -0.544624  0.094019  1.369975  0.098  -0.251784  -0.479037  0.125809  1.413882  0.126
Br  Br37  1  0.71262971  0.76651674  0.92214419  1  -0.475897  -0.165588  1.061397  -0.162  -0.502444  -0.116716  1.395687  -0.118  -0.544632  -0.094012  1.370015  -0.098  -0.25179  -0.479043  -0.125805  1.413912  -0.126
N  N38  1  0.63879545  0.49785472  0.24520619  1  0.040409  0.001544  3.498805  0.002  0.164304  0.00097  3.679893  0.001  0.152344  0.000998  3.70187  0.001  -0.11649  0.17122  0.000958  3.666274  0.001
N  N39  1  0.13880487  0.00215273  0.75479516  1  0.040497  -0.001551  3.498782  -0.002  0.164317  -0.00097  3.679988  -0.001  0.152366  -0.000997  3.701968  -0.001  -0.116531  0.171223  -0.000958  3.666397  -0.001
N  N40  1  0.36120634  0.50215589  0.75479716  1  0.040414  0.001564  3.498801  0.002  0.164408  0.000968  3.679866  0.001  0.152444  0.000997  3.701838  0.001  -0.116416  0.17131  0.000958  3.666272  0.001
N  N41  1  0.86121579  0.99784208  0.24521015  1  0.040321  -0.001565  3.498565  -0.002  0.164412  -0.000972  3.679496  -0.001  0.152448  -0.000999  3.701463  -0.001  -0.116474  0.171306  -0.000959  3.665932  -0.001
N  N42  1  0.81026715  0.45843824  0.28999961  1  -0.084309  0.003605  2.838789  0.004  -0.102207  0.002888  3.124387  0.004  -0.100253  0.002075  3.132454  0.003  -0.065886  -0.103034  0.003501  3.118595  0.004
N  N43  1  0.31027360  0.04156289  0.70999846  1  -0.084425  -0.003607  2.838707  -0.004  -0.102306  -0.002889  3.124318  -0.004  -0.100352  -0.002077  3.132384  -0.003  -0.0659  -0.103138  -0.003502  3.11853  -0.004
N  N44  1  0.18974045  0.54156445  0.71000282  1  -0.084429  0.0036  2.838877  0.004  -0.102323  0.002891  3.124421  0.004  -0.100369  0.002078  3.132491  0.003  -0.065962  -0.103149  0.003501  3.118632  0.004
N  N45  1  0.68972819  0.95843051  0.28999847  1  -0.08441  -0.003596  2.838505  -0.004  -0.102364  -0.002891  3.124069  -0.004  -0.100406  -0.002078  3.132138  -0.003  -0.065961  -0.103195  -0.003502  3.118276  -0.004
N  N46  1  0.94103671  0.45463404  0.21933516  1  -0.03513  -0.003723  2.919912  -0.004  -0.030334  -0.002077  3.226506  -0.002  -0.024685  -0.00209  3.23637  -0.002  -0.072063  -0.03346  -0.001953  3.220365  -0.002
N  N47  1  0.44105287  0.04536206  0.78066367  1  -0.034988  0.003727  2.919428  0.004  -0.030154  0.002077  3.225946  0.002  -0.0245  0.00209  3.235817  0.002  -0.071969  -0.033278  0.001954  3.219808  0.002
N  N48  1  0.05895928  0.54535679  0.78066779  1  -0.035176  -0.003729  2.919499  -0.004  -0.030346  -0.002077  3.226092  -0.002  -0.024692  -0.00209  3.235961  -0.002  -0.072055  -0.03347  -0.001954  3.219951  -0.002
N  N49  1  0.55894893  0.95463133  0.21933251  1  -0.035121  0.00373  2.919415  0.004  -0.030301  0.002076  3.225981  0.002  -0.024658  0.00209  3.235847  0.002  -0.072001  -0.033422  0.001953  3.21984  0.002
N  N50  1  0.85696812  0.49093071  0.12891257  1  -0.254295  0.051846  3.318549  0.066  -0.202438  0.043392  3.632346  0.058  -0.233637  0.039235  3.650909  0.054  -0.26309  -0.185968  0.044322  3.622643  0.057
N  N51  1  0.35697152  0.00906655  0.87108519  1  -0.254354  -0.051853  3.318414  -0.066  -0.202505  -0.043398  3.632208  -0.058  -0.233725  -0.039243  3.650797  -0.054  -0.263146  -0.186041  -0.044329  3.622508  -0.057
N  N52  1  0.14302642  0.50906016  0.87109418  1  -0.254093  0.051853  3.318298  0.066  -0.202326  0.043395  3.632188  0.058  -0.23355  0.039239  3.650769  0.054  -0.263027  -0.185855  0.044324  3.622484  0.057
N  N53  1  0.64303462  0.99092163  0.12891696  1  -0.253969  -0.051852  3.318764  -0.066  -0.20213  -0.043393  3.632546  -0.058  -0.233331  -0.039238  3.651133  -0.054  -0.263045  -0.185672  -0.044327  3.622841  -0.057
Cl  Cl54  1  0.23438935  0.40379040  0.45451427  1  -0.10736  0.000201  1.314026  0.0  -0.078139  0.000214  1.58148  0.0  -0.083864  0.000149  1.573309  0.0  -0.016847  -0.074175  0.000255  1.587184  0.0
Cl  Cl55  1  0.73439180  0.09621064  0.54548722  1  -0.10729  -0.000196  1.314088  0.0  -0.078081  -0.000213  1.581559  0.0  -0.083802  -0.000149  1.573388  0.0  -0.016823  -0.074125  -0.000255  1.587257  0.0
Cl  Cl56  1  0.76558923  0.59621355  0.54548287  1  -0.107368  0.000202  1.314102  0.0  -0.078157  0.000214  1.5816  0.0  -0.083883  0.000149  1.573429  0.0  -0.016867  -0.074189  0.000255  1.587299  0.0
Cl  Cl57  1  0.26560419  0.90379333  0.45451144  1  -0.107318  -0.000198  1.314116  0.0  -0.078114  -0.000213  1.581601  0.0  -0.083839  -0.000149  1.573441  0.0  -0.016836  -0.074158  -0.000255  1.587297  0.0
