# generated using pymatgen
data_Cu2H8C13N2O5
_symmetry_space_group_name_H-M   'P 1'
_cell_length_a   8.02599444
_cell_length_b   8.02604083
_cell_length_c   12.29170135
_cell_angle_alpha   83.82738639
_cell_angle_beta   83.82701984
_cell_angle_gamma   61.65234395
_symmetry_Int_Tables_number   1
_chemical_formula_structural   Cu2H8C13N2O5
_chemical_formula_sum   'Cu4 H16 C26 N4 O10'
_cell_volume   691.35961753
_cell_formula_units_Z   2
loop_
 _symmetry_equiv_pos_site_id
 _symmetry_equiv_pos_as_xyz
  1  'x, y, z'
loop_
 _atom_site_type_symbol
 _atom_site_label
 _atom_site_symmetry_multiplicity
 _atom_site_fract_x
 _atom_site_fract_y
 _atom_site_fract_z
 _atom_site_occupancy
 _atom_site_hle17_bader_spin_density
 _atom_site_hle17_ddec_charge
 _atom_site_hle17_ddec_spin_density
 _atom_site_hle17_ddec_sum_bond_order
 _atom_site_hle17_magmom
 _atom_site_hse06_10hf_bader_spin_density
 _atom_site_hse06_10hf_ddec_charge
 _atom_site_hse06_10hf_ddec_spin_density
 _atom_site_hse06_10hf_ddec_sum_bond_order
 _atom_site_hse06_10hf_magmom
 _atom_site_hse06_bader_spin_density
 _atom_site_hse06_ddec_charge
 _atom_site_hse06_ddec_spin_density
 _atom_site_hse06_ddec_sum_bond_order
 _atom_site_hse06_magmom
 _atom_site_pbe_bader_spin_density
 _atom_site_pbe_cm5_charge
 _atom_site_pbe_ddec_charge
 _atom_site_pbe_ddec_spin_density
 _atom_site_pbe_ddec_sum_bond_order
 _atom_site_pbe_magmom
Cu  Cu0  1  0.11549464  0.00823672  0.67340894  1  0  0.531158  0  2.164158  0  0  0.446762  0  2.667584  0  0  0.447593  0  2.61466  0  0  0.537731  0.447598  0  2.701934  0
Cu  Cu1  1  0.99176688  0.88450238  0.82659590  1  0  0.531006  0  2.164302  0  0  0.446573  0  2.667723  0  0  0.44748  0  2.614809  0  0  0.537658  0.447415  0  2.702065  0
Cu  Cu2  1  0.88449277  0.99176496  0.32658875  1  0  0.530989  0  2.164184  0  0  0.446589  0  2.667573  0  0  0.447457  0  2.614669  0  0  0.537669  0.447475  0  2.701932  0
Cu  Cu3  1  0.00824019  0.11548913  0.17340764  1  0  0.530966  0  2.164178  0  0  0.446527  0  2.667616  0  0  0.447432  0  2.614705  0  0  0.53765  0.447376  0  2.702029  0
H  H4  1  0.05708828  0.38148070  0.70323109  1  0  0.082813  0  0.944817  0  0  0.091557  0  1.010124  0  0  0.094108  0  1.007349  0  0  0.11761  0.089536  0  1.012262  0
H  H5  1  0.61852673  0.94290838  0.79677273  1  0  0.082806  0  0.944813  0  0  0.091602  0  1.010071  0  0  0.094143  0  1.007308  0  0  0.117618  0.089578  0  1.01221  0
H  H6  1  0.94291238  0.61851936  0.29677149  1  0  0.082739  0  0.944857  0  0  0.09154  0  1.010112  0  0  0.094078  0  1.007366  0  0  0.117596  0.08952  0  1.012245  0
H  H7  1  0.38147449  0.05709874  0.20322363  1  0  0.082801  0  0.944755  0  0  0.09153  0  1.010066  0  0  0.094087  0  1.007306  0  0  0.117595  0.089512  0  1.012197  0
H  H8  1  0.35519260  0.53330323  0.43286047  1  0  0.106463  0  0.941904  0  0  0.117164  0  1.002604  0  0  0.119599  0  1.000415  0  0  0.111502  0.115261  0  1.004322  0
H  H9  1  0.46669049  0.64481393  0.06714249  1  0  0.106451  0  0.941913  0  0  0.117156  0  1.002629  0  0  0.11959  0  1.00044  0  0  0.111483  0.115257  0  1.00434  0
H  H10  1  0.64482655  0.46668106  0.56714356  1  0  0.106463  0  0.941899  0  0  0.117205  0  1.002578  0  0  0.119639  0  1.00039  0  0  0.111491  0.115304  0  1.004294  0
H  H11  1  0.53329996  0.35519758  0.93285269  1  0  0.106466  0  0.941934  0  0  0.117213  0  1.002602  0  0  0.119647  0  1.000414  0  0  0.111534  0.115312  0  1.00432  0
H  H12  1  0.41755895  0.23554045  0.34683463  1  0  0.122363  0  0.979178  0  0  0.131171  0  1.036965  0  0  0.134874  0  1.035989  0  0  0.108031  0.128507  0  1.037858  0
H  H13  1  0.76445461  0.58244909  0.15317148  1  0  0.122325  0  0.97926  0  0  0.131177  0  1.036991  0  0  0.134877  0  1.036024  0  0  0.108039  0.128516  0  1.037882  0
H  H14  1  0.58244625  0.76444968  0.65316832  1  0  0.122255  0  0.979259  0  0  0.131094  0  1.037017  0  0  0.134793  0  1.036047  0  0  0.107998  0.128433  0  1.037904  0
H  H15  1  0.23553200  0.41756527  0.84682783  1  0  0.122387  0  0.979342  0  0  0.131211  0  1.037082  0  0  0.13491  0  1.036115  0  0  0.108081  0.12855  0  1.037971  0
H  H16  1  0.28792454  0.02735153  0.44566926  1  0  0.086317  0  0.920671  0  0  0.099064  0  0.977865  0  0  0.101394  0  0.975455  0  0  0.121828  0.097096  0  0.979964  0
H  H17  1  0.97264904  0.71207896  0.05433826  1  0  0.086389  0  0.92072  0  0  0.099078  0  0.977968  0  0  0.10145  0  0.97551  0  0  0.121881  0.097112  0  0.980069  0
H  H18  1  0.71206477  0.97264871  0.55433165  1  0  0.086399  0  0.920597  0  0  0.099036  0  0.977883  0  0  0.101457  0  0.975368  0  0  0.121855  0.097068  0  0.979981  0
H  H19  1  0.02734012  0.28793253  0.94566596  1  0  0.086403  0  0.920727  0  0  0.099101  0  0.977952  0  0  0.101475  0  0.97549  0  0  0.121852  0.097134  0  0.980051  0
C  C20  1  0.15919828  0.64914481  0.63423870  1  0  0.630559  0  3.93219  0  0  0.583292  0  4.21687  0  0  0.616407  0  4.213005  0  0  0.200035  0.560858  0  4.218927  0
C  C21  1  0.35086129  0.84079741  0.86576155  1  0  0.63058  0  3.932084  0  0  0.583277  0  4.216816  0  0  0.616394  0  4.212952  0  0  0.200054  0.560852  0  4.21887  0
C  C22  1  0.84082332  0.35084507  0.36576478  1  0  0.630407  0  3.932677  0  0  0.583179  0  4.217302  0  0  0.616297  0  4.213436  0  0  0.19993  0.560747  0  4.21936  0
C  C23  1  0.64913608  0.15921540  0.13423388  1  0  0.630531  0  3.931927  0  0  0.583275  0  4.216587  0  0  0.616394  0  4.212716  0  0  0.20004  0.560846  0  4.218645  0
C  C24  1  0.13756483  0.35237306  0.62427910  1  0  0.114543  0  3.680797  0  0  0.075789  0  3.925708  0  0  0.083432  0  3.944662  0  0  0.049535  0.070872  0  3.91324  0
C  C25  1  0.64762541  0.86243947  0.87572704  1  0  0.114605  0  3.680474  0  0  0.075768  0  3.925401  0  0  0.083417  0  3.944366  0  0  0.04948  0.07085  0  3.912929  0
C  C26  1  0.86243778  0.64762274  0.37572283  1  0  0.114732  0  3.680651  0  0  0.075866  0  3.925631  0  0  0.083503  0  3.944578  0  0  0.049534  0.070947  0  3.913167  0
C  C27  1  0.35237268  0.13756628  0.12426963  1  0  0.114561  0  3.680474  0  0  0.075808  0  3.925385  0  0  0.083431  0  3.944331  0  0  0.049533  0.07089  0  3.912921  0
C  C28  1  0.20293987  0.47747502  0.57534558  1  0  -0.111148  0  3.755364  0  0  -0.08174  0  3.981948  0  0  -0.095823  0  4.008987  0  0  -0.012857  -0.072848  0  3.964144  0
C  C29  1  0.52252673  0.79706041  0.92465910  1  0  -0.11108  0  3.755253  0  0  -0.081648  0  3.981852  0  0  -0.095736  0  4.008896  0  0  -0.012779  -0.072758  0  3.964049  0
C  C30  1  0.79707224  0.52251641  0.42465925  1  0  -0.111111  0  3.755361  0  0  -0.081713  0  3.982015  0  0  -0.095791  0  4.009044  0  0  -0.012823  -0.072821  0  3.964213  0
C  C31  1  0.47747262  0.20294532  0.07533586  1  0  -0.111059  0  3.75518  0  0  -0.081621  0  3.98176  0  0  -0.095714  0  4.008819  0  0  -0.012843  -0.072728  0  3.963954  0
C  C32  1  0.30401189  0.43725706  0.47335349  1  0  0.00302  0  3.671537  0  0  -0.02783  0  3.918152  0  0  -0.021562  0  3.936204  0  0  -0.056286  -0.031961  0  3.906293  0
C  C33  1  0.56274199  0.69599245  0.02665078  1  0  0.002865  0  3.671698  0  0  -0.02801  0  3.91835  0  0  -0.021741  0  3.936401  0  0  -0.05636  -0.032141  0  3.906488  0
C  C34  1  0.69600153  0.56273153  0.52665063  1  0  0.002915  0  3.671523  0  0  -0.027997  0  3.918187  0  0  -0.021732  0  3.936238  0  0  -0.056281  -0.032132  0  3.906325  0
C  C35  1  0.43725228  0.30401618  0.97334515  1  0  0.002822  0  3.671662  0  0  -0.028139  0  3.918377  0  0  -0.021868  0  3.936429  0  0  -0.056414  -0.032267  0  3.906506  0
C  C36  1  0.33580223  0.27428984  0.42512726  1  0  -0.118225  0  3.707146  0  0  -0.129384  0  3.959745  0  0  -0.138151  0  3.981306  0  0  -0.081536  -0.123932  0  3.945649  0
C  C37  1  0.72570555  0.66420504  0.07488074  1  0  -0.118103  0  3.707274  0  0  -0.12928  0  3.959832  0  0  -0.138047  0  3.981404  0  0  -0.081473  -0.123832  0  3.945741  0
C  C38  1  0.66420358  0.72570169  0.57487637  1  0  -0.118038  0  3.707131  0  0  -0.1292  0  3.959682  0  0  -0.137972  0  3.981281  0  0  -0.08151  -0.123747  0  3.945586  0
C  C39  1  0.27428493  0.33580363  0.92511788  1  0  -0.118219  0  3.707298  0  0  -0.129347  0  3.959889  0  0  -0.138119  0  3.981469  0  0  -0.08157  -0.123894  0  3.945795  0
C  C40  1  0.26588645  0.15685910  0.47963582  1  0  0.130576  0  3.665627  0  0  0.097143  0  3.919931  0  0  0.10518  0  3.936402  0  0  0.048997  0.091895  0  3.909184  0
C  C41  1  0.84313933  0.73411997  0.02037113  1  0  0.130492  0  3.665945  0  0  0.097084  0  3.920217  0  0  0.105088  0  3.936698  0  0  0.048932  0.09183  0  3.90948  0
C  C42  1  0.73410730  0.84313966  0.52036489  1  0  0.130536  0  3.665822  0  0  0.097185  0  3.920072  0  0  0.10515  0  3.936547  0  0  0.048984  0.091928  0  3.909334  0
C  C43  1  0.15685240  0.26588868  0.97962903  1  0  0.130473  0  3.665868  0  0  0.097052  0  3.920137  0  0  0.105058  0  3.936617  0  0  0.048972  0.091806  0  3.909394  0
C  C44  1  0.87542155  0.12458060  0.75000328  1  0  -0.00648  0  3.464556  0  0  -0.067277  0  3.959937  0  0  -0.014887  0  3.907639  0  0  -0.071877  -0.102254  0  3.993413  0
C  C45  1  0.12458061  0.87540255  0.24999141  1  0  -0.00654  0  3.464597  0  0  -0.067351  0  3.95999  0  0  -0.014984  0  3.907706  0  0  -0.071893  -0.102368  0  3.993544  0
N  N46  1  0.16821014  0.19488818  0.57829512  1  0  -0.2835  0  3.366216  0  0  -0.211305  0  3.658864  0  0  -0.225131  0  3.669811  0  0  -0.360273  -0.202695  0  3.651713  0
N  N47  1  0.80511349  0.83178738  0.92171089  1  0  -0.283539  0  3.36618  0  0  -0.211268  0  3.658773  0  0  -0.225112  0  3.669768  0  0  -0.360274  -0.202656  0  3.651619  0
N  N48  1  0.83177914  0.80511488  0.42170478  1  0  -0.283638  0  3.366394  0  0  -0.211349  0  3.65896  0  0  -0.225188  0  3.669963  0  0  -0.360289  -0.202743  0  3.651819  0
N  N49  1  0.19488527  0.16821412  0.07828928  1  0  -0.283429  0  3.366146  0  0  -0.211147  0  3.658682  0  0  -0.22499  0  3.669685  0  0  -0.360238  -0.202542  0  3.651551  0
O  O50  1  0.08588694  0.65335345  0.73195951  1  0  -0.617637  0  2.126065  0  0  -0.558599  0  2.39027  0  0  -0.583579  0  2.378438  0  0  -0.332266  -0.541316  0  2.397621  0
O  O51  1  0.34665510  0.91410683  0.76804166  1  0  -0.61767  0  2.126056  0  0  -0.558654  0  2.390313  0  0  -0.583624  0  2.378469  0  0  -0.332268  -0.541374  0  2.397664  0
O  O52  1  0.91416063  0.34662618  0.26805021  1  0  -0.617656  0  2.126202  0  0  -0.558641  0  2.390396  0  0  -0.583615  0  2.378551  0  0  -0.33227  -0.541361  0  2.397764  0
O  O53  1  0.65333718  0.08590887  0.23195473  1  0  -0.617685  0  2.126047  0  0  -0.558665  0  2.390247  0  0  -0.583638  0  2.378407  0  0  -0.332329  -0.541389  0  2.397604  0
O  O54  1  0.19508456  0.77653279  0.58370302  1  0  -0.58823  0  2.051952  0  0  -0.534196  0  2.320618  0  0  -0.558231  0  2.306959  0  0  -0.330346  -0.517761  0  2.329361  0
O  O55  1  0.22347478  0.80490490  0.91629691  1  0  -0.588179  0  2.051952  0  0  -0.534115  0  2.320615  0  0  -0.558161  0  2.306975  0  0  -0.330353  -0.517688  0  2.32936  0
O  O56  1  0.80490917  0.22346881  0.41629098  1  0  -0.588076  0  2.052063  0  0  -0.534045  0  2.320691  0  0  -0.55809  0  2.307051  0  0  -0.33028  -0.517615  0  2.329435  0
O  O57  1  0.77652513  0.19510504  0.08370098  1  0  -0.588134  0  2.051892  0  0  -0.534094  0  2.320537  0  0  -0.55814  0  2.306893  0  0  -0.330272  -0.517665  0  2.329295  0
O  O58  1  0.73192211  0.26807461  0.75000475  1  0  -0.171516  0  2.204388  0  0  -0.130344  0  2.441686  0  0  -0.145228  0  2.426627  0  0  -0.171441  -0.119815  0  2.451138  0
O  O59  1  0.26805799  0.73190745  0.24999396  1  0  -0.171285  0  2.204535  0  0  -0.130106  0  2.441838  0  0  -0.144984  0  2.426777  0  0  -0.171328  -0.119577  0  2.451316  0
