# generated using pymatgen
data_LiBH20(C2N)8
_symmetry_space_group_name_H-M   'P 1'
_cell_length_a   7.56365387
_cell_length_b   7.56208507
_cell_length_c   9.76567111
_cell_angle_alpha   112.79606196
_cell_angle_beta   112.77359120
_cell_angle_gamma   90.00747262
_symmetry_Int_Tables_number   1
_chemical_formula_structural   LiBH20(C2N)8
_chemical_formula_sum   'Li1 B1 H20 C16 N8'
_cell_volume   467.33153285
_cell_formula_units_Z   1
loop_
 _symmetry_equiv_pos_site_id
 _symmetry_equiv_pos_as_xyz
  1  'x, y, z'
loop_
 _atom_site_type_symbol
 _atom_site_label
 _atom_site_symmetry_multiplicity
 _atom_site_fract_x
 _atom_site_fract_y
 _atom_site_fract_z
 _atom_site_occupancy
 _atom_site_hle17_bader_spin_density
 _atom_site_hle17_ddec_charge
 _atom_site_hle17_ddec_spin_density
 _atom_site_hle17_ddec_sum_bond_order
 _atom_site_hle17_magmom
 _atom_site_hse06_10hf_bader_spin_density
 _atom_site_hse06_10hf_ddec_charge
 _atom_site_hse06_10hf_ddec_spin_density
 _atom_site_hse06_10hf_ddec_sum_bond_order
 _atom_site_hse06_10hf_magmom
 _atom_site_hse06_bader_spin_density
 _atom_site_hse06_ddec_charge
 _atom_site_hse06_ddec_spin_density
 _atom_site_hse06_ddec_sum_bond_order
 _atom_site_hse06_magmom
 _atom_site_pbe_bader_spin_density
 _atom_site_pbe_cm5_charge
 _atom_site_pbe_ddec_charge
 _atom_site_pbe_ddec_spin_density
 _atom_site_pbe_ddec_sum_bond_order
 _atom_site_pbe_magmom
Li  Li0  1  0.99995639  0.99988592  0.99995698  1  0  0.764039  0  0.533518  0  0  0.687212  0  0.688742  0  0  0.698279  0  0.67345  0  0  0.545174  0.679249  0  0.699974  0
B  B1  1  0.24997843  0.75009001  0.50004790  1  0  0.745268  0  2.947063  0  0  0.586487  0  3.240525  0  0  0.610805  0  3.236512  0  0  0.106447  0.569792  0  3.243572  0
H  H2  1  0.57856070  0.55715626  0.48055575  1  0  0.102349  0  0.972456  0  0  0.111772  0  1.034611  0  0  0.114199  0  1.034109  0  0  0.118079  0.110063  0  1.035014  0
H  H3  1  0.90195843  0.92354144  0.48078721  1  0  0.102354  0  0.971514  0  0  0.111537  0  1.0339  0  0  0.113974  0  1.033409  0  0  0.117887  0.10974  0  1.034333  0
H  H4  1  0.07660061  0.42109837  0.51929031  1  0  0.101995  0  0.972795  0  0  0.111864  0  1.034436  0  0  0.114262  0  1.033957  0  0  0.117999  0.110024  0  1.035114  0
H  H5  1  0.44278269  0.09834015  0.51944300  1  0  0.10235  0  0.971536  0  0  0.111979  0  1.03333  0  0  0.114364  0  1.032899  0  0  0.117945  0.11018  0  1.033859  0
H  H6  1  0.47277551  0.20132279  0.21260571  1  0  0.085858  0  0.960501  0  0  0.099609  0  1.016293  0  0  0.101965  0  1.015391  0  0  0.112241  0.097907  0  1.017049  0
H  H7  1  0.73985444  0.01148163  0.21296147  1  0  0.08642  0  0.959416  0  0  0.09956  0  1.016079  0  0  0.101941  0  1.015147  0  0  0.112064  0.097859  0  1.016781  0
H  H8  1  0.98891364  0.52676501  0.78723893  1  0  0.085981  0  0.960752  0  0  0.099737  0  1.016476  0  0  0.102152  0  1.015491  0  0  0.111989  0.097931  0  1.017403  0
H  H9  1  0.79885068  0.26025396  0.78704732  1  0  0.0864  0  0.960401  0  0  0.09976  0  1.016552  0  0  0.102125  0  1.015632  0  0  0.112052  0.098086  0  1.017287  0
H  H10  1  0.86749251  0.52222024  0.13359052  1  0  0.128863  0  0.943008  0  0  0.149855  0  0.999989  0  0  0.151355  0  1.000492  0  0  0.100174  0.148877  0  0.999541  0
H  H11  1  0.26589206  0.61118471  0.13352272  1  0  0.1288  0  0.942395  0  0  0.14999  0  0.999138  0  0  0.151459  0  0.999681  0  0  0.100247  0.148798  0  0.998924  0
H  H12  1  0.38858106  0.13259243  0.86655664  1  0  0.129126  0  0.941575  0  0  0.150357  0  0.998216  0  0  0.151857  0  0.998711  0  0  0.100332  0.149313  0  0.9979  0
H  H13  1  0.47789639  0.73411265  0.86642639  1  0  0.128458  0  0.943086  0  0  0.149586  0  0.999938  0  0  0.151063  0  1.000484  0  0  0.100061  0.148454  0  0.999615  0
H  H14  1  0.86316036  0.48483342  0.29976424  1  0  0.118687  0  0.962163  0  0  0.137018  0  1.026016  0  0  0.139125  0  1.025276  0  0  0.095865  0.135597  0  1.026414  0
H  H15  1  0.43641284  0.81485362  0.29975374  1  0  0.11921  0  0.960126  0  0  0.137377  0  1.024268  0  0  0.139476  0  1.023535  0  0  0.095889  0.135646  0  1.025025  0
H  H16  1  0.18500793  0.13672503  0.70032931  1  0  0.119022  0  0.962526  0  0  0.137288  0  1.026343  0  0  0.139404  0  1.025572  0  0  0.096026  0.135808  0  1.026822  0
H  H17  1  0.51524971  0.56350421  0.70023797  1  0  0.119208  0  0.960779  0  0  0.137325  0  1.024763  0  0  0.139447  0  1.023999  0  0  0.096089  0.135791  0  1.025268  0
H  H18  1  0.81676695  0.28136657  0.11129741  1  0  0.124847  0  0.969197  0  0  0.142196  0  1.034344  0  0  0.144604  0  1.032942  0  0  0.104808  0.14046  0  1.035328  0
H  H19  1  0.29442946  0.82978115  0.11132880  1  0  0.124315  0  0.969722  0  0  0.142113  0  1.034675  0  0  0.144519  0  1.033306  0  0  0.104622  0.140319  0  1.035574  0
H  H20  1  0.17002428  0.18311577  0.88876063  1  0  0.125111  0  0.969955  0  0  0.142492  0  1.035091  0  0  0.144937  0  1.033657  0  0  0.105012  0.140882  0  1.035881  0
H  H21  1  0.71864929  0.70569643  0.88864536  1  0  0.124507  0  0.969455  0  0  0.142047  0  1.034407  0  0  0.144461  0  1.033035  0  0  0.104743  0.140025  0  1.035945  0
C  C22  1  0.43597181  0.47534586  0.38826465  1  0  -0.039342  0  3.753603  0  0  -0.080595  0  4.017827  0  0  -0.078279  0  4.037398  0  0  -0.006238  -0.082004  0  4.004628  0
C  C23  1  0.95224680  0.91310686  0.38849357  1  0  -0.040755  0  3.754705  0  0  -0.081656  0  4.018727  0  0  -0.079453  0  4.03829  0  0  -0.006547  -0.082863  0  4.005267  0
C  C24  1  0.08705185  0.56370935  0.61159704  1  0  -0.039654  0  3.753439  0  0  -0.081319  0  4.017844  0  0  -0.078977  0  4.037372  0  0  -0.006437  -0.082803  0  4.004826  0
C  C25  1  0.52472092  0.04795070  0.61162388  1  0  -0.041498  0  3.752569  0  0  -0.082929  0  4.016756  0  0  -0.080644  0  4.036354  0  0  -0.007013  -0.084225  0  4.003475  0
C  C26  1  0.38148390  0.30010220  0.25356746  1  0  -0.006768  0  3.825543  0  0  -0.035697  0  4.097792  0  0  -0.035336  0  4.118033  0  0  -0.01317  -0.035861  0  4.083973  0
C  C27  1  0.87210066  0.95364690  0.25384061  1  0  -0.007624  0  3.829178  0  0  -0.036017  0  4.101281  0  0  -0.035656  0  4.121517  0  0  -0.013945  -0.036124  0  4.087298  0
C  C28  1  0.04660225  0.61817297  0.74630108  1  0  -0.007224  0  3.828529  0  0  -0.036182  0  4.100675  0  0  -0.0359  0  4.12089  0  0  -0.013343  -0.036421  0  4.087258  0
C  C29  1  0.70010013  0.12794865  0.74608220  1  0  -0.007537  0  3.826621  0  0  -0.036063  0  4.098696  0  0  -0.035688  0  4.118896  0  0  -0.013722  -0.036379  0  4.084967  0
C  C30  1  0.11522258  0.40959211  0.25071799  1  0  0.407894  0  3.68739  0  0  0.392953  0  3.949403  0  0  0.407782  0  3.962984  0  0  0.220946  0.383251  0  3.939929  0
C  C31  1  0.13539570  0.84114154  0.25082339  1  0  0.404117  0  3.693567  0  0  0.390177  0  3.954694  0  0  0.404988  0  3.968238  0  0  0.219279  0.38033  0  3.945317  0
C  C32  1  0.15892987  0.88458518  0.74931582  1  0  0.402618  0  3.693753  0  0  0.388922  0  3.954146  0  0  0.403615  0  3.967874  0  0  0.219446  0.379505  0  3.944215  0
C  C33  1  0.59041957  0.86472930  0.74919575  1  0  0.406892  0  3.690236  0  0  0.391304  0  3.953031  0  0  0.406148  0  3.966568  0  0  0.220276  0.381499  0  3.943489  0
C  C34  1  0.90498631  0.42594114  0.19719063  1  0  -0.393881  0  3.711346  0  0  -0.476083  0  3.949361  0  0  -0.479504  0  3.954643  0  0  -0.229605  -0.473503  0  3.945426  0
C  C35  1  0.29206145  0.77110752  0.19717277  1  0  -0.392616  0  3.709001  0  0  -0.475329  0  3.94651  0  0  -0.478787  0  3.951826  0  0  -0.22951  -0.472497  0  3.942759  0
C  C36  1  0.22872957  0.09493930  0.80290024  1  0  -0.3941  0  3.7115  0  0  -0.476748  0  3.948736  0  0  -0.480176  0  3.954051  0  0  -0.230201  -0.47416  0  3.944579  0
C  C37  1  0.57412648  0.70798505  0.80277033  1  0  -0.393013  0  3.710741  0  0  -0.474733  0  3.948906  0  0  -0.478213  0  3.954221  0  0  -0.22937  -0.472136  0  3.945312  0
N  N38  1  0.26620977  0.54555683  0.38695570  1  0  -0.389204  0  3.443323  0  0  -0.290342  0  3.666968  0  0  -0.309874  0  3.687887  0  0  -0.235307  -0.277169  0  3.652853  0
N  N39  1  0.12066057  0.84152388  0.38707471  1  0  -0.384765  0  3.442059  0  0  -0.286356  0  3.66565  0  0  -0.305793  0  3.686424  0  0  -0.233405  -0.273403  0  3.651317  0
N  N40  1  0.15857022  0.73363467  0.61302656  1  0  -0.384595  0  3.439798  0  0  -0.286296  0  3.663559  0  0  -0.305783  0  3.684508  0  0  -0.234179  -0.273148  0  3.648984  0
N  N41  1  0.45443318  0.87952364  0.61304651  1  0  -0.385774  0  3.438975  0  0  -0.286862  0  3.663203  0  0  -0.306368  0  3.684021  0  0  -0.233869  -0.273693  0  3.648686  0
N  N42  1  0.18127472  0.26005651  0.16811530  1  0  -0.517722  0  3.12773  0  0  -0.470317  0  3.399879  0  0  -0.484459  0  3.413486  0  0  -0.43092  -0.460632  0  3.390291  0
N  N43  1  0.98679192  0.90811030  0.16830167  1  0  -0.51648  0  3.132597  0  0  -0.469469  0  3.404213  0  0  -0.483625  0  3.417862  0  0  -0.429338  -0.459874  0  3.395372  0
N  N44  1  0.09204540  0.81843959  0.83186826  1  0  -0.515312  0  3.131249  0  0  -0.468246  0  3.402596  0  0  -0.482379  0  3.416402  0  0  -0.429686  -0.458907  0  3.393734  0
N  N45  1  0.74007792  0.01323385  0.83160007  1  0  -0.516826  0  3.128543  0  0  -0.469278  0  3.400693  0  0  -0.483411  0  3.414256  0  0  -0.429888  -0.459585  0  3.391384  0
