# generated using pymatgen
data_AgH8C9N3O2
_symmetry_space_group_name_H-M   'P 1'
_cell_length_a   7.01385526
_cell_length_b   9.69960578
_cell_length_c   14.15659020
_cell_angle_alpha   94.88586202
_cell_angle_beta   90.00165637
_cell_angle_gamma   90.00074396
_symmetry_Int_Tables_number   1
_chemical_formula_structural   AgH8C9N3O2
_chemical_formula_sum   'Ag4 H32 C36 N12 O8'
_cell_volume   959.59636024
_cell_formula_units_Z   4
loop_
 _symmetry_equiv_pos_site_id
 _symmetry_equiv_pos_as_xyz
  1  'x, y, z'
loop_
 _atom_site_type_symbol
 _atom_site_label
 _atom_site_symmetry_multiplicity
 _atom_site_fract_x
 _atom_site_fract_y
 _atom_site_fract_z
 _atom_site_occupancy
 _atom_site_hle17_bader_spin_density
 _atom_site_hle17_ddec_charge
 _atom_site_hle17_ddec_spin_density
 _atom_site_hle17_ddec_sum_bond_order
 _atom_site_hle17_magmom
 _atom_site_hse06_10hf_bader_spin_density
 _atom_site_hse06_10hf_ddec_charge
 _atom_site_hse06_10hf_ddec_spin_density
 _atom_site_hse06_10hf_ddec_sum_bond_order
 _atom_site_hse06_10hf_magmom
 _atom_site_hse06_bader_spin_density
 _atom_site_hse06_ddec_charge
 _atom_site_hse06_ddec_spin_density
 _atom_site_hse06_ddec_sum_bond_order
 _atom_site_hse06_magmom
 _atom_site_pbe_bader_spin_density
 _atom_site_pbe_cm5_charge
 _atom_site_pbe_ddec_charge
 _atom_site_pbe_ddec_spin_density
 _atom_site_pbe_ddec_sum_bond_order
 _atom_site_pbe_magmom
Ag  Ag0  1  0.55450103  0.31786870  0.97373004  1  0  0.497158  0  1.492517  0  0  0.358234  0  1.950672  0  0  0.384692  0  1.905872  0  0  0.478997  0.339231  0  1.983191  0
Ag  Ag1  1  0.05450263  0.68211588  0.52627074  1  0  0.497211  0  1.492572  0  0  0.358211  0  1.950793  0  0  0.384666  0  1.905992  0  0  0.479002  0.33921  0  1.983308  0
Ag  Ag2  1  0.44550701  0.68213531  0.02627076  1  0  0.497136  0  1.492547  0  0  0.358218  0  1.950678  0  0  0.384674  0  1.905877  0  0  0.479041  0.339215  0  1.9832  0
Ag  Ag3  1  0.94549686  0.31788366  0.47373314  1  0  0.497247  0  1.492636  0  0  0.358172  0  1.950857  0  0  0.38463  0  1.906058  0  0  0.478989  0.339169  0  1.983376  0
H  H4  1  0.23052331  0.74698739  0.84629683  1  0  0.128545  0  0.928353  0  0  0.140282  0  0.980752  0  0  0.144007  0  0.978301  0  0  0.117097  0.13732  0  0.982962  0
H  H5  1  0.73054493  0.25300207  0.65369958  1  0  0.128743  0  0.928669  0  0  0.140403  0  0.981121  0  0  0.144108  0  0.978701  0  0  0.117149  0.137496  0  0.983262  0
H  H6  1  0.76948045  0.25302089  0.15370299  1  0  0.128497  0  0.928295  0  0  0.14027  0  0.980655  0  0  0.143974  0  0.978232  0  0  0.117091  0.137318  0  0.982853  0
H  H7  1  0.26945171  0.74698852  0.34629983  1  0  0.128658  0  0.928389  0  0  0.140373  0  0.980813  0  0  0.144079  0  0.978388  0  0  0.117157  0.137432  0  0.982995  0
H  H8  1  0.43482600  0.54091292  0.80129091  1  0  0.08711  0  0.988679  0  0  0.095356  0  1.053903  0  0  0.096516  0  1.055793  0  0  0.09715  0.094264  0  1.053164  0
H  H9  1  0.93488056  0.45907030  0.69870913  1  0  0.087145  0  0.988351  0  0  0.095436  0  1.053535  0  0  0.096599  0  1.055426  0  0  0.097156  0.094329  0  1.05281  0
H  H10  1  0.56517777  0.45909592  0.19871393  1  0  0.087134  0  0.988618  0  0  0.095379  0  1.053842  0  0  0.096539  0  1.055731  0  0  0.09714  0.094288  0  1.053105  0
H  H11  1  0.06513033  0.54091369  0.30129385  1  0  0.087184  0  0.988414  0  0  0.095527  0  1.053488  0  0  0.09669  0  1.05538  0  0  0.097138  0.094417  0  1.052767  0
H  H12  1  0.31839273  0.30274760  0.81011995  1  0  0.109712  0  0.967151  0  0  0.118009  0  1.031609  0  0  0.121632  0  1.029235  0  0  0.101671  0.115061  0  1.033895  0
H  H13  1  0.81845758  0.69724246  0.68988259  1  0  0.109722  0  0.967187  0  0  0.118053  0  1.031552  0  0  0.121676  0  1.029183  0  0  0.101596  0.115102  0  1.03384  0
H  H14  1  0.68161388  0.69726131  0.18988419  1  0  0.109682  0  0.967205  0  0  0.118004  0  1.031623  0  0  0.121621  0  1.02925  0  0  0.101663  0.115053  0  1.033909  0
H  H15  1  0.18156187  0.30274656  0.31012232  1  0  0.109625  0  0.967483  0  0  0.117963  0  1.031842  0  0  0.12158  0  1.029486  0  0  0.101606  0.115013  0  1.034126  0
H  H16  1  0.98544139  0.25801308  0.86654205  1  0  0.127885  0  0.928799  0  0  0.139947  0  0.981054  0  0  0.143308  0  0.979468  0  0  0.116121  0.137368  0  0.98231  0
H  H17  1  0.48550050  0.74198435  0.63346584  1  0  0.12772  0  0.929105  0  0  0.139859  0  0.981275  0  0  0.14322  0  0.979688  0  0  0.116124  0.137281  0  0.982529  0
H  H18  1  0.01456665  0.74199363  0.13346328  1  0  0.127863  0  0.928903  0  0  0.139952  0  0.981115  0  0  0.143312  0  0.979532  0  0  0.116156  0.137372  0  0.982371  0
H  H19  1  0.51451609  0.25801376  0.36654213  1  0  0.127806  0  0.929081  0  0  0.139936  0  0.981246  0  0  0.143296  0  0.979653  0  0  0.116125  0.137357  0  0.982502  0
H  H20  1  0.98116928  0.88775090  0.94204899  1  0  0.108645  0  0.923233  0  0  0.123574  0  0.98325  0  0  0.125642  0  0.981712  0  0  0.121685  0.121968  0  0.983813  0
H  H21  1  0.48117106  0.11225064  0.55795024  1  0  0.108706  0  0.923268  0  0  0.123637  0  0.983271  0  0  0.125705  0  0.98173  0  0  0.121696  0.122017  0  0.983849  0
H  H22  1  0.01882307  0.11226027  0.05794263  1  0  0.108622  0  0.923154  0  0  0.123567  0  0.983203  0  0  0.125637  0  0.981661  0  0  0.12166  0.121976  0  0.983747  0
H  H23  1  0.51881274  0.88774491  0.44205181  1  0  0.108612  0  0.923273  0  0  0.12362  0  0.983191  0  0  0.125689  0  0.98165  0  0  0.121668  0.121998  0  0.983772  0
H  H24  1  0.76396791  0.86995236  0.00298801  1  0  0.088632  0  0.922561  0  0  0.099855  0  0.994521  0  0  0.101987  0  0.991819  0  0  0.115167  0.097926  0  0.996648  0
H  H25  1  0.26396887  0.13005804  0.49700658  1  0  0.088621  0  0.922559  0  0  0.099861  0  0.99453  0  0  0.101992  0  0.991828  0  0  0.115179  0.097937  0  0.996649  0
H  H26  1  0.23603158  0.13005737  0.99700772  1  0  0.088594  0  0.922572  0  0  0.099855  0  0.994545  0  0  0.101988  0  0.991841  0  0  0.115187  0.097934  0  0.996671  0
H  H27  1  0.73602063  0.86994054  0.50299649  1  0  0.08866  0  0.922496  0  0  0.099866  0  0.9945  0  0  0.101998  0  0.991798  0  0  0.115176  0.097951  0  0.996612  0
H  H28  1  0.59473454  0.85095276  0.83757086  1  0  0.098034  0  0.933901  0  0  0.112468  0  0.997809  0  0  0.114223  0  0.997277  0  0  0.097982  0.111653  0  0.997785  0
H  H29  1  0.09473842  0.14902898  0.66241293  1  0  0.098003  0  0.933939  0  0  0.112452  0  0.997768  0  0  0.114213  0  0.997227  0  0  0.097917  0.111641  0  0.997746  0
H  H30  1  0.40525354  0.14903927  0.16242445  1  0  0.098075  0  0.933922  0  0  0.112488  0  0.9978  0  0  0.114251  0  0.997258  0  0  0.097952  0.111669  0  0.997771  0
H  H31  1  0.90525394  0.85096850  0.33759073  1  0  0.098047  0  0.933888  0  0  0.112477  0  0.997735  0  0  0.114239  0  0.997188  0  0  0.097926  0.111664  0  0.997711  0
H  H32  1  0.80863001  0.91576725  0.79135723  1  0  0.126544  0  0.934298  0  0  0.142384  0  0.990977  0  0  0.145613  0  0.989008  0  0  0.103173  0.140136  0  0.992337  0
H  H33  1  0.30862622  0.08422324  0.70863360  1  0  0.12655  0  0.934458  0  0  0.142356  0  0.991111  0  0  0.145584  0  0.989142  0  0  0.103134  0.14011  0  0.992471  0
H  H34  1  0.19135807  0.08422932  0.20863431  1  0  0.126579  0  0.934305  0  0  0.142378  0  0.990966  0  0  0.145608  0  0.989001  0  0  0.103176  0.140126  0  0.992322  0
H  H35  1  0.69136328  0.91577651  0.29136818  1  0  0.12656  0  0.934395  0  0  0.142354  0  0.99106  0  0  0.14558  0  0.989091  0  0  0.103134  0.140105  0  0.992417  0
C  C36  1  0.99499023  0.61510552  0.88383565  1  0  0.109228  0  3.760086  0  0  0.084535  0  4.005089  0  0  0.088264  0  4.027302  0  0  0.112987  0.082195  0  3.990352  0
C  C37  1  0.49501393  0.38489271  0.61617135  1  0  0.109117  0  3.760365  0  0  0.08456  0  4.005181  0  0  0.08829  0  4.027387  0  0  0.112991  0.082226  0  3.99045  0
C  C38  1  0.00501924  0.38490372  0.11616498  1  0  0.109344  0  3.760464  0  0  0.084632  0  4.005351  0  0  0.088364  0  4.027557  0  0  0.113035  0.082294  0  3.990612  0
C  C39  1  0.50498555  0.61510201  0.38382849  1  0  0.109008  0  3.76051  0  0  0.084574  0  4.005135  0  0  0.088305  0  4.027343  0  0  0.112958  0.082241  0  3.990394  0
C  C40  1  0.17887718  0.64194130  0.85102118  1  0  -0.135782  0  3.724071  0  0  -0.151288  0  3.983171  0  0  -0.153617  0  3.998593  0  0  -0.087258  -0.150113  0  3.973558  0
C  C41  1  0.67890121  0.35804646  0.64897861  1  0  -0.136193  0  3.724746  0  0  -0.151688  0  3.983788  0  0  -0.154002  0  3.999217  0  0  -0.08731  -0.150555  0  3.97415  0
C  C42  1  0.82113513  0.35806189  0.14897741  1  0  -0.135848  0  3.724124  0  0  -0.151403  0  3.983263  0  0  -0.153716  0  3.998688  0  0  -0.08737  -0.150236  0  3.973652  0
C  C43  1  0.32109542  0.64193910  0.35101887  1  0  -0.135981  0  3.724344  0  0  -0.151578  0  3.983362  0  0  -0.153892  0  3.998795  0  0  -0.08733  -0.150415  0  3.973728  0
C  C44  1  0.28977528  0.52612663  0.82533240  1  0  -0.066792  0  3.782741  0  0  -0.087621  0  4.048004  0  0  -0.087888  0  4.068616  0  0  -0.094879  -0.087327  0  4.034506  0
C  C45  1  0.78981551  0.47386183  0.67466440  1  0  -0.066465  0  3.782254  0  0  -0.087276  0  4.047396  0  0  -0.087545  0  4.068003  0  0  -0.094843  -0.086962  0  4.033878  0
C  C46  1  0.71023561  0.47387835  0.17466921  1  0  -0.066729  0  3.782596  0  0  -0.087557  0  4.047876  0  0  -0.087821  0  4.068477  0  0  -0.094768  -0.087244  0  4.034322  0
C  C47  1  0.21019110  0.52612244  0.32533578  1  0  -0.066624  0  3.782834  0  0  -0.087461  0  4.047965  0  0  -0.087733  0  4.068576  0  0  -0.09485  -0.087147  0  4.03444  0
C  C48  1  0.22258851  0.38889338  0.83013793  1  0  -0.088552  0  3.753337  0  0  -0.108599  0  4.022513  0  0  -0.111722  0  4.042091  0  0  -0.098507  -0.106735  0  4.009889  0
C  C49  1  0.72263253  0.61109978  0.66986616  1  0  -0.088927  0  3.75312  0  0  -0.109023  0  4.022424  0  0  -0.112151  0  4.042007  0  0  -0.098563  -0.107161  0  4.009803  0
C  C50  1  0.77742381  0.61111250  0.16986519  1  0  -0.088626  0  3.753262  0  0  -0.108713  0  4.022469  0  0  -0.111827  0  4.042039  0  0  -0.098604  -0.106847  0  4.009854  0
C  C51  1  0.27736268  0.38889487  0.33013438  1  0  -0.088729  0  3.753469  0  0  -0.108847  0  4.022773  0  0  -0.111973  0  4.042353  0  0  -0.098541  -0.106985  0  4.010151  0
C  C52  1  0.03998387  0.36236424  0.86133993  1  0  -0.107486  0  3.685283  0  0  -0.130026  0  3.94146  0  0  -0.129952  0  3.959102  0  0  -0.081901  -0.129991  0  3.929685  0
C  C53  1  0.54001434  0.63763195  0.63866456  1  0  -0.107139  0  3.685074  0  0  -0.12973  0  3.941296  0  0  -0.129653  0  3.958938  0  0  -0.081777  -0.129703  0  3.929534  0
C  C54  1  0.96003272  0.63764040  0.13866518  1  0  -0.107517  0  3.685311  0  0  -0.130058  0  3.941496  0  0  -0.129986  0  3.959139  0  0  -0.081958  -0.130025  0  3.929718  0
C  C55  1  0.45999370  0.36235644  0.36133604  1  0  -0.107228  0  3.684789  0  0  -0.129828  0  3.940972  0  0  -0.129747  0  3.958607  0  0  -0.081794  -0.129799  0  3.929203  0
C  C56  1  0.92647894  0.47835974  0.88846429  1  0  0.113651  0  3.832474  0  0  0.109012  0  4.092821  0  0  0.1086  0  4.116204  0  0  0.095124  0.109257  0  4.076975  0
C  C57  1  0.42650500  0.52163393  0.61153847  1  0  0.113731  0  3.832272  0  0  0.108983  0  4.092729  0  0  0.108573  0  4.116108  0  0  0.09504  0.109229  0  4.076876  0
C  C58  1  0.07353196  0.52164503  0.11153942  1  0  0.1137  0  3.832623  0  0  0.109029  0  4.092982  0  0  0.108616  0  4.116365  0  0  0.095182  0.109276  0  4.077134  0
C  C59  1  0.57350018  0.47836190  0.38846078  1  0  0.113589  0  3.832322  0  0  0.108875  0  4.092637  0  0  0.108464  0  4.116018  0  0  0.095076  0.109121  0  4.076789  0
C  C60  1  0.83504442  0.84834503  0.93413622  1  0  0.002096  0  3.613779  0  0  -0.077325  0  3.884018  0  0  -0.072547  0  3.891598  0  0  -0.050224  -0.079598  0  3.878166  0
C  C61  1  0.33505151  0.15165779  0.56585798  1  0  0.002047  0  3.613646  0  0  -0.077456  0  3.883876  0  0  -0.07268  0  3.891454  0  0  -0.050261  -0.079711  0  3.878013  0
C  C62  1  0.16495079  0.15166090  0.06585557  1  0  0.002298  0  3.613572  0  0  -0.077326  0  3.883864  0  0  -0.072546  0  3.891448  0  0  -0.050217  -0.079613  0  3.877996  0
C  C63  1  0.66494512  0.84833886  0.43414348  1  0  0.002082  0  3.613662  0  0  -0.077446  0  3.883909  0  0  -0.072672  0  3.891492  0  0  -0.050257  -0.079706  0  3.878039  0
C  C64  1  0.72266339  0.91274629  0.85634559  1  0  -0.281974  0  3.655775  0  0  -0.322066  0  3.907967  0  0  -0.328964  0  3.916042  0  0  -0.166272  -0.31732  0  3.901862  0
C  C65  1  0.22266885  0.08724939  0.64364319  1  0  -0.282016  0  3.656076  0  0  -0.32195  0  3.908015  0  0  -0.328843  0  3.916084  0  0  -0.166157  -0.31721  0  3.901918  0
C  C66  1  0.27732041  0.08725640  0.14364729  1  0  -0.282146  0  3.655936  0  0  -0.322068  0  3.907955  0  0  -0.328976  0  3.916046  0  0  -0.166247  -0.317305  0  3.901833  0
C  C67  1  0.77732208  0.91275428  0.35636111  1  0  -0.281989  0  3.655976  0  0  -0.321897  0  3.907938  0  0  -0.328793  0  3.916015  0  0  -0.166091  -0.317153  0  3.901834  0
C  C68  1  0.65824288  0.05945719  0.88859720  1  0  0.682899  0  3.895999  0  0  0.645896  0  4.17654  0  0  0.67877  0  4.172897  0  0  0.184434  0.623328  0  4.178051  0
C  C69  1  0.15826007  0.94053841  0.61138273  1  0  0.683077  0  3.896293  0  0  0.645974  0  4.176874  0  0  0.678846  0  4.173239  0  0  0.184616  0.623408  0  4.178382  0
C  C70  1  0.34174235  0.94053979  0.11139014  1  0  0.683137  0  3.895611  0  0  0.646095  0  4.176146  0  0  0.678968  0  4.172507  0  0  0.184702  0.623521  0  4.177657  0
C  C71  1  0.84173799  0.05946403  0.38862357  1  0  0.68287  0  3.896211  0  0  0.645774  0  4.176803  0  0  0.678646  0  4.173169  0  0  0.184538  0.623205  0  4.178311  0
N  N72  1  0.84825969  0.69787984  0.91753348  1  0  0.025744  0  3.481852  0  0  0.133574  0  3.670622  0  0  0.123163  0  3.696175  0  0  -0.119962  0.139559  0  3.654417  0
N  N73  1  0.34827534  0.30212471  0.58247045  1  0  0.02612  0  3.481785  0  0  0.133824  0  3.670431  0  0  0.123415  0  3.695986  0  0  -0.119901  0.139758  0  3.65431  0
N  N74  1  0.15173979  0.30212638  0.08246614  1  0  0.025594  0  3.481915  0  0  0.133652  0  3.670474  0  0  0.123241  0  3.696027  0  0  -0.119891  0.139601  0  3.654336  0
N  N75  1  0.65172557  0.69787510  0.41753063  1  0  0.026085  0  3.48173  0  0  0.133801  0  3.670372  0  0  0.12339  0  3.69593  0  0  -0.119908  0.139727  0  3.65427  0
N  N76  1  0.69998095  0.61847663  0.94039378  1  0  -0.082921  0  3.178772  0  0  -0.054248  0  3.483356  0  0  -0.054902  0  3.492231  0  0  -0.114213  -0.053806  0  3.47815  0
N  N77  1  0.19999820  0.38153065  0.55961240  1  0  -0.083609  0  3.179229  0  0  -0.054629  0  3.483523  0  0  -0.055287  0  3.492399  0  0  -0.114322  -0.054174  0  3.478307  0
N  N78  1  0.30002281  0.38152918  0.05961004  1  0  -0.083011  0  3.178683  0  0  -0.054462  0  3.483311  0  0  -0.055119  0  3.492186  0  0  -0.114329  -0.054014  0  3.478101  0
N  N79  1  0.80000841  0.61847226  0.44038900  1  0  -0.083364  0  3.178877  0  0  -0.054564  0  3.48336  0  0  -0.055218  0  3.492235  0  0  -0.114263  -0.05411  0  3.478144  0
N  N80  1  0.74397175  0.48707119  0.92289222  1  0  -0.228595  0  3.200175  0  0  -0.184658  0  3.511794  0  0  -0.192302  0  3.522116  0  0  -0.222858  -0.179627  0  3.50571  0
N  N81  1  0.24400465  0.51293549  0.57711551  1  0  -0.228275  0  3.199878  0  0  -0.184405  0  3.511375  0  0  -0.192048  0  3.521698  0  0  -0.222742  -0.179368  0  3.505277  0
N  N82  1  0.25603771  0.51293661  0.07711251  1  0  -0.228454  0  3.199809  0  0  -0.184492  0  3.511405  0  0  -0.192135  0  3.521723  0  0  -0.222797  -0.17946  0  3.505318  0
N  N83  1  0.75600481  0.48706529  0.42288637  1  0  -0.228321  0  3.199724  0  0  -0.184418  0  3.51127  0  0  -0.192062  0  3.521595  0  0  -0.222816  -0.179382  0  3.505172  0
O  O84  1  0.52740461  0.11430952  0.84296101  1  0  -0.659521  0  1.895493  0  0  -0.603793  0  2.118388  0  0  -0.631057  0  2.108893  0  0  -0.354277  -0.58265  0  2.124084  0
O  O85  1  0.02741772  0.88567649  0.65701305  1  0  -0.659613  0  1.895768  0  0  -0.603887  0  2.118747  0  0  -0.631152  0  2.109252  0  0  -0.354349  -0.58274  0  2.124443  0
O  O86  1  0.47258204  0.88568492  0.15703102  1  0  -0.659609  0  1.895402  0  0  -0.603896  0  2.118337  0  0  -0.631156  0  2.108832  0  0  -0.354387  -0.582752  0  2.124037  0
O  O87  1  0.97258177  0.11432463  0.34298532  1  0  -0.659549  0  1.895647  0  0  -0.603825  0  2.118619  0  0  -0.631094  0  2.10913  0  0  -0.354321  -0.582678  0  2.124313  0
O  O88  1  0.74168324  0.11928399  0.96164319  1  0  -0.654256  0  1.963575  0  0  -0.583473  0  2.209321  0  0  -0.613437  0  2.199802  0  0  -0.351222  -0.562065  0  2.214428  0
O  O89  1  0.24168800  0.88070898  0.53834549  1  0  -0.654301  0  1.963452  0  0  -0.583558  0  2.209307  0  0  -0.613518  0  2.19979  0  0  -0.351379  -0.562151  0  2.214405  0
O  O90  1  0.25830484  0.88071712  0.03834457  1  0  -0.654333  0  1.963264  0  0  -0.583594  0  2.209093  0  0  -0.613557  0  2.199575  0  0  -0.351395  -0.56219  0  2.214202  0
O  O91  1  0.75830579  0.11928816  0.46166168  1  0  -0.654211  0  1.963389  0  0  -0.583434  0  2.20919  0  0  -0.613393  0  2.199675  0  0  -0.351355  -0.562028  0  2.214292  0
