# generated using pymatgen
data_CoH4(C2O)4
_symmetry_space_group_name_H-M   'P 1'
_cell_length_a   9.58388962
_cell_length_b   11.73276554
_cell_length_c   13.24511979
_cell_angle_alpha   94.32448201
_cell_angle_beta   102.26795578
_cell_angle_gamma   103.32342233
_symmetry_Int_Tables_number   1
_chemical_formula_structural   CoH4(C2O)4
_chemical_formula_sum   'Co6 H24 C48 O24'
_cell_volume   1404.00717904
_cell_formula_units_Z   6
loop_
 _symmetry_equiv_pos_site_id
 _symmetry_equiv_pos_as_xyz
  1  'x, y, z'
loop_
 _atom_site_type_symbol
 _atom_site_label
 _atom_site_symmetry_multiplicity
 _atom_site_fract_x
 _atom_site_fract_y
 _atom_site_fract_z
 _atom_site_occupancy
 _atom_site_pbe_bader_charge
 _atom_site_pbe_bader_spin_density
 _atom_site_pbe_cm5_charge
 _atom_site_pbe_ddec_charge
 _atom_site_pbe_ddec_spin_density
 _atom_site_pbe_ddec_sum_bond_order
 _atom_site_pbe_magmom
Co  Co0  1  0.44541986  0.27073758  0.33108431  1  1.183934  2.515077  0.659773  0.895127  2.696553  2.221395  2.455
Co  Co1  1  0.86785566  0.78356634  0.83971910  1  1.255828  2.587318  0.662745  0.946248  2.782766  2.481237  2.539
Co  Co2  1  0.55491186  0.72953126  0.66903534  1  1.184545  2.515283  0.660162  0.895581  2.696532  2.222047  2.455
Co  Co3  1  0.13200909  0.21658575  0.16019971  1  1.255991  2.587678  0.662928  0.946949  2.782854  2.480201  2.539
Co  Co4  1  0.50006807  0.49996234  0.49992985  1  1.388387  2.618695  0.695142  1.087053  2.867709  2.471673  2.608
Co  Co5  1  0.99993941  0.99996117  0.99993054  1  1.343323  2.634767  0.663919  1.03865  2.88069  2.367873  2.619
H  H6  1  0.20457181  0.63675190  0.34745776  1  0.075723  0.000306  0.103834  0.106378  6.7e-05  1.018136  0.0
H  H7  1  0.10867530  0.77620066  0.23236861  1  0.11924  0.000245  0.109188  0.118289  4.1e-05  0.992005  0.0
H  H8  1  0.15749206  0.57152135  0.96495914  1  0.115744  0.000532  0.11244  0.120079  0.000156  0.980695  0.0
H  H9  1  0.26091986  0.43605487  0.07955292  1  0.118069  0.000353  0.110632  0.121215  3.8e-05  1.01187  0.0
H  H10  1  0.38054788  0.29803186  0.72622162  1  0.114981  0.000325  0.10961  0.119855  0.00012  0.98782  0.0
H  H11  1  0.24864035  0.17433348  0.84017045  1  0.122794  0.000429  0.108585  0.119748  0.000119  1.014013  0.0
H  H12  1  0.06223740  0.89545091  0.58389805  1  0.103371  0.000611  0.104064  0.104005  0.000242  1.024317  0.0
H  H13  1  0.19807958  0.01783949  0.47029180  1  0.073004  0.000531  0.108724  0.116197  0.000173  0.994438  0.0
H  H14  1  0.81959179  0.61362320  0.43003726  1  0.118787  0.000376  0.110226  0.115  0.000106  1.015641  0.0
H  H15  1  0.92249136  0.28002716  0.47517340  1  0.075895  0.000316  0.110683  0.113227  7.8e-05  1.006439  0.0
H  H16  1  0.46361361  0.79356803  0.04239286  1  0.092435  9.9e-05  0.103863  0.105723  -2.7e-05  1.01133  0.0
H  H17  1  0.68946022  0.07691936  0.90288166  1  0.107734  0.000393  0.104044  0.112657  -1.8e-05  1.031541  0.0
H  H18  1  0.79488300  0.36305014  0.65233095  1  0.072669  0.000307  0.103896  0.105966  6.7e-05  1.018185  0.0
H  H19  1  0.89072053  0.22352404  0.76735734  1  0.115577  0.000244  0.109194  0.117917  4.1e-05  0.992171  0.0
H  H20  1  0.84223704  0.42825264  0.03486215  1  0.118258  0.000531  0.112523  0.120061  0.000156  0.98035  0.0
H  H21  1  0.73887717  0.56380919  0.92032293  1  0.117419  0.000352  0.110724  0.121816  3.6e-05  1.011607  0.0
H  H22  1  0.61981658  0.70187423  0.27383909  1  0.122928  0.000326  0.109631  0.119554  0.00012  0.987957  0.0
H  H23  1  0.75156203  0.82558904  0.15980739  1  0.122603  0.000428  0.108745  0.1199  0.000118  1.013915  0.0
H  H24  1  0.93773366  0.10463035  0.41598000  1  0.102677  0.000611  0.103926  0.103874  0.000242  1.024103  0.0
H  H25  1  0.80200344  0.98222730  0.52964168  1  0.073711  0.000529  0.108771  0.116085  0.000172  0.994685  0.0
H  H26  1  0.18080028  0.38637416  0.57039667  1  0.114262  0.00038  0.11051  0.115418  0.000104  1.015253  0.0
H  H27  1  0.07789414  0.71997627  0.52530590  1  0.121479  0.000309  0.11027  0.11262  7.8e-05  1.006447  0.0
H  H28  1  0.53632351  0.20659685  0.95770663  1  0.091331  0.0001  0.103804  0.105523  -2.7e-05  1.01123  0.0
H  H29  1  0.31042503  0.92323250  0.09717384  1  0.109117  0.000392  0.103878  0.112548  -1.8e-05  1.031278  0.0
C  C30  1  0.23348847  0.52625553  0.22003472  1  0.021042  0.004477  -0.013741  -0.0453  0.001796  3.966746  0.004
C  C31  1  0.19407778  0.62382692  0.26367523  1  0.012138  0.002798  -0.076612  -0.075185  0.001362  3.957783  0.002
C  C32  1  0.14113153  0.70078103  0.20024289  1  -0.067009  -0.000233  -0.081013  -0.100726  -0.000886  3.965776  0.0
C  C33  1  0.12499124  0.68003205  0.09209263  1  -0.081574  0.011778  -0.003845  -0.011646  0.006151  3.943368  0.009
C  C34  1  0.16953151  0.58539470  0.04893071  1  -0.041705  -0.000487  -0.075493  -0.088079  -0.001148  3.940972  0.0
C  C35  1  0.22529956  0.50927315  0.11255647  1  -0.003143  0.003316  -0.07151  -0.070567  0.001344  3.93074  0.002
C  C36  1  0.28510446  0.44546474  0.29083950  1  1.481135  0.010763  0.238852  0.619747  0.007272  4.047936  0.009
C  C37  1  0.05390994  0.75612006  0.02367780  1  1.552952  -0.000951  0.22474  0.585251  -0.001352  4.160666  -0.001
C  C38  1  0.29791406  0.16441046  0.59193811  1  0.010069  0.011458  -0.014053  -0.034424  0.006068  3.970337  0.009
C  C39  1  0.31190080  0.20921395  0.69608745  1  -0.065675  -0.000763  -0.08028  -0.095806  -0.001458  3.957243  0.0
C  C40  1  0.23881061  0.14057911  0.75936920  1  -0.022373  0.00306  -0.075736  -0.084532  0.001447  3.943719  0.002
C  C41  1  0.14955970  0.02687734  0.71858334  1  -0.082068  0.006673  -0.007475  -0.019066  0.00329  3.946551  0.005
C  C42  1  0.13455161  0.98275295  0.61439391  1  0.030486  0.002632  -0.078683  -0.091148  0.001252  3.972658  0.002
C  C43  1  0.20919850  0.05054902  0.55150130  1  -0.057344  0.000431  -0.079112  -0.088149  -0.000226  3.962444  0.0
C  C44  1  0.37282827  0.23949820  0.52373918  1  1.525617  -0.005637  0.227017  0.59132  -0.007942  4.142603  -0.006
C  C45  1  0.06859581  0.95419187  0.78529943  1  1.542423  0.001205  0.227282  0.602448  0.000329  4.119247  0.0
C  C46  1  0.70270559  0.37904465  0.39520009  1  1.45718  0.009976  0.218689  0.579198  0.0073  4.105172  0.006
C  C47  1  0.89947743  0.56492641  0.46114559  1  -0.027826  0.003104  -0.069727  -0.069648  0.001516  3.920597  0.002
C  C48  1  0.85667470  0.44077584  0.44700627  1  0.046686  0.002648  -0.003938  -0.016561  0.001237  3.957736  0.001
C  C49  1  0.95802851  0.37614946  0.48615441  1  -0.022198  0.002791  -0.07081  -0.084631  0.001389  3.936582  0.002
C  C50  1  0.67909805  0.85207257  0.94239755  1  1.497105  0.005486  0.20695  0.555518  0.004602  4.202122  0.003
C  C51  1  0.47855619  0.88417365  0.02461771  1  -0.016583  0.001715  -0.081161  -0.091263  0.000814  3.958472  0.001
C  C52  1  0.58566956  0.92845853  0.97030872  1  -0.007369  0.004142  -0.013152  -0.019439  0.001952  3.965071  0.003
C  C53  1  0.60605097  0.04434134  0.94525687  1  -0.057351  0.002111  -0.082641  -0.081915  0.000858  3.932814  0.001
C  C54  1  0.76625298  0.47362334  0.77982314  1  0.021182  0.004424  -0.013928  -0.04478  0.001764  3.967363  0.004
C  C55  1  0.80548979  0.37599165  0.73612609  1  0.00237  0.00287  -0.076742  -0.075511  0.001402  3.957934  0.002
C  C56  1  0.85839392  0.29899254  0.79952395  1  -0.05374  -0.000251  -0.080808  -0.099399  -0.00091  3.96602  0.0
C  C57  1  0.87468486  0.31978111  0.90769058  1  -0.075531  0.01186  -0.003892  -0.012492  0.0062  3.944848  0.009
C  C58  1  0.83018396  0.41441880  0.95088981  1  -0.045236  -0.000506  -0.075712  -0.087593  -0.001169  3.941759  0.0
C  C59  1  0.77444695  0.49057667  0.88730049  1  -0.002048  0.003385  -0.07129  -0.07148  0.001382  3.931996  0.002
C  C60  1  0.71485619  0.55454866  0.70909783  1  1.4796  0.010957  0.238847  0.619684  0.007419  4.048539  0.009
C  C61  1  0.94587105  0.24375731  0.97612209  1  1.552276  -0.000927  0.225086  0.585708  -0.00134  4.159647  -0.001
C  C62  1  0.70230601  0.83558740  0.40805124  1  0.007462  0.011426  -0.014182  -0.034809  0.006048  3.970997  0.009
C  C63  1  0.68837956  0.79073151  0.30392323  1  -0.074774  -0.000715  -0.080069  -0.094911  -0.001408  3.957828  0.0
C  C64  1  0.76137215  0.85937447  0.24059847  1  -0.02092  0.003031  -0.076082  -0.085228  0.001432  3.944137  0.002
C  C65  1  0.85050383  0.97312914  0.28134034  1  -0.083554  0.006738  -0.00727  -0.018596  0.003329  3.945985  0.005
C  C66  1  0.86550540  0.01728559  0.38552147  1  0.031462  0.00261  -0.078472  -0.09083  0.001241  3.971197  0.002
C  C67  1  0.79092124  0.94948680  0.44844402  1  -0.056058  0.000478  -0.079278  -0.088345  -0.000183  3.962533  0.0
C  C68  1  0.62734635  0.76053930  0.47625172  1  1.529789  -0.005494  0.227132  0.591486  -0.007763  4.142325  -0.005
C  C69  1  0.93135707  0.04586600  0.21460031  1  1.542423  0.001193  0.22727  0.60241  0.00033  4.119175  0.0
C  C70  1  0.29771340  0.62099844  0.60512483  1  1.458888  0.009868  0.219147  0.57945  0.007227  4.104591  0.006
C  C71  1  0.10091221  0.43508251  0.53930649  1  0.076832  0.002973  -0.070033  -0.06976  0.001492  3.920391  0.002
C  C72  1  0.14370481  0.55923779  0.55345132  1  -0.061983  0.002779  -0.004057  -0.016998  0.001268  3.957678  0.001
C  C73  1  0.04234536  0.62385810  0.51432035  1  -0.076884  0.00277  -0.070419  -0.083612  0.001373  3.935318  0.002
C  C74  1  0.32074125  0.14804050  0.05760875  1  1.494609  0.005467  0.206677  0.555025  0.004593  4.202363  0.003
C  C75  1  0.52135717  0.11598126  0.97546074  1  -0.016369  0.001716  -0.080711  -0.090331  0.000814  3.958006  0.001
C  C76  1  0.41422157  0.07168458  0.02974735  1  -0.006336  0.004137  -0.013446  -0.019733  0.001953  3.965167  0.003
C  C77  1  0.39384862  0.95580767  0.05481040  1  -0.058822  0.002113  -0.081787  -0.080752  0.000859  3.93199  0.001
O  O78  1  0.30163297  0.34390166  0.24973184  1  -1.144977  0.136693  -0.32634  -0.601593  0.07226  2.606876  0.105
O  O79  1  0.31264015  0.47316521  0.38747670  1  -1.163215  0.065585  -0.28598  -0.539431  0.033471  2.445205  0.054
O  O80  1  0.04603341  0.85502754  0.06457027  1  -1.144936  0.064412  -0.298439  -0.555764  0.033536  2.390905  0.054
O  O81  1  0.00152910  0.71327778  0.92721929  1  -1.132161  0.104552  -0.308677  -0.548167  0.053572  2.420549  0.082
O  O82  1  0.36394146  0.19058858  0.43053471  1  -1.105456  0.14032  -0.312329  -0.531409  0.070558  2.375786  0.112
O  O83  1  0.43827609  0.34574776  0.55880372  1  -1.153331  0.07581  -0.294586  -0.558363  0.039393  2.435525  0.067
O  O84  1  0.10350868  0.98602582  0.88319463  1  -1.159733  0.088068  -0.29581  -0.558496  0.045737  2.41961  0.074
O  O85  1  0.96656380  0.86160557  0.74021134  1  -1.124184  0.109271  -0.312109  -0.536507  0.055127  2.306159  0.087
O  O86  1  0.59965207  0.43466667  0.38973144  1  -1.142062  0.125089  -0.305681  -0.574806  0.064281  2.47418  0.108
O  O87  1  0.66234297  0.27025075  0.35554969  1  -1.1032  0.091112  -0.294217  -0.499663  0.045314  2.155801  0.07
O  O88  1  0.78441549  0.90259386  0.89617993  1  -1.131587  0.144521  -0.331781  -0.628889  0.076591  2.510506  0.117
O  O89  1  0.66167683  0.74754944  0.95900716  1  -1.153373  0.037783  -0.297125  -0.510827  0.018305  2.109215  0.03
O  O90  1  0.69835146  0.65607203  0.75031201  1  -1.144573  0.13685  -0.326591  -0.6017  0.07234  2.607411  0.105
O  O91  1  0.68751180  0.52703562  0.61244927  1  -1.163004  0.065569  -0.28588  -0.539255  0.033465  2.44542  0.054
O  O92  1  0.95385085  0.14487245  0.93525694  1  -1.14678  0.064441  -0.298407  -0.555397  0.033547  2.39017  0.054
O  O93  1  0.99821115  0.28664495  0.07257467  1  -1.130095  0.104521  -0.30904  -0.548863  0.053587  2.420014  0.082
O  O94  1  0.63610393  0.80952538  0.56940921  1  -1.105484  0.140145  -0.312462  -0.53135  0.070464  2.375584  0.112
O  O95  1  0.56196096  0.65428313  0.44121017  1  -1.155486  0.075852  -0.294616  -0.558266  0.039415  2.435265  0.067
O  O96  1  0.89649622  0.01397805  0.11671390  1  -1.161337  0.088109  -0.2961  -0.558675  0.045748  2.419809  0.074
O  O97  1  0.03323021  0.13855499  0.25967051  1  -1.123467  0.109297  -0.31193  -0.536398  0.05515  2.305188  0.087
O  O98  1  0.40079582  0.56548301  0.61022268  1  -1.14266  0.125143  -0.305642  -0.57446  0.064241  2.474214  0.108
O  O99  1  0.33805360  0.72973085  0.64499480  1  -1.104945  0.091312  -0.294433  -0.499775  0.045385  2.155973  0.07
O  O100  1  0.21531927  0.09747557  0.10370677  1  -1.131977  0.144449  -0.331655  -0.628443  0.076567  2.510512  0.117
O  O101  1  0.33822950  0.25259652  0.04106853  1  -1.153054  0.037861  -0.297137  -0.510767  0.018342  2.108236  0.03
