# generated using pymatgen
data_CuH16C18(NO2)6
_symmetry_space_group_name_H-M   'P 1'
_cell_length_a   5.73885112
_cell_length_b   8.65482294
_cell_length_c   10.75438217
_cell_angle_alpha   86.01266092
_cell_angle_beta   78.48156471
_cell_angle_gamma   85.65601919
_symmetry_Int_Tables_number   1
_chemical_formula_structural   CuH16C18(NO2)6
_chemical_formula_sum   'Cu1 H16 C18 N6 O12'
_cell_volume   521.08548448
_cell_formula_units_Z   1
loop_
 _symmetry_equiv_pos_site_id
 _symmetry_equiv_pos_as_xyz
  1  'x, y, z'
loop_
 _atom_site_type_symbol
 _atom_site_label
 _atom_site_symmetry_multiplicity
 _atom_site_fract_x
 _atom_site_fract_y
 _atom_site_fract_z
 _atom_site_occupancy
 _atom_site_hle17_ddec_charge
 _atom_site_hle17_ddec_spin_density
 _atom_site_hle17_ddec_sum_bond_order
 _atom_site_hle17_magmom
 _atom_site_hse06_10hf_ddec_charge
 _atom_site_hse06_10hf_ddec_spin_density
 _atom_site_hse06_10hf_ddec_sum_bond_order
 _atom_site_hse06_10hf_magmom
 _atom_site_hse06_ddec_charge
 _atom_site_hse06_ddec_spin_density
 _atom_site_hse06_ddec_sum_bond_order
 _atom_site_hse06_magmom
 _atom_site_pbe_cm5_charge
 _atom_site_pbe_ddec_charge
 _atom_site_pbe_ddec_spin_density
 _atom_site_pbe_ddec_sum_bond_order
 _atom_site_pbe_magmom
Cu  Cu0  1  0.99999146  0.99999739  0.99999992  1  0.861562  0.709624  1.8118  0.519  0.836386  0.786083  2.196107  0.63  0.921308  0.853002  2.136591  0.718  0.75358  0.784018  0.736159  2.239641  0.57
H  H1  1  0.73418459  0.71834788  0.14169902  1  0.372761  2.8e-05  0.85947  0.0  0.351437  1.8e-05  0.932729  0.0  0.360689  2.8e-05  0.921666  0.0  0.309089  0.344877  1.5e-05  0.94089  0.0
H  H2  1  0.26581103  0.28165074  0.85829400  1  0.372683  2.7e-05  0.859545  0.0  0.351378  1.8e-05  0.932771  0.0  0.360625  2.7e-05  0.92171  0.0  0.309069  0.344819  1.5e-05  0.940935  0.0
H  H3  1  0.34371166  0.85151746  0.27142931  1  0.087245  0.007029  0.936903  0.009  0.094053  0.004124  1.005622  0.005  0.095235  0.002926  1.001652  0.004  0.121188  0.093211  0.005046  1.00841  0.006
H  H4  1  0.65629445  0.14848232  0.72856629  1  0.087212  0.007029  0.93695  0.009  0.094029  0.004124  1.005662  0.005  0.095213  0.002926  1.001691  0.004  0.121165  0.093186  0.005045  1.00845  0.006
H  H5  1  0.81992439  0.40272643  0.49325055  1  0.14465  0.000478  0.941286  0.001  0.144549  0.000269  1.014232  0.0  0.148526  0.000168  1.009742  0.0  0.124386  0.141748  0.000355  1.017306  0.0
H  H6  1  0.18008529  0.59727212  0.50675312  1  0.144624  0.000477  0.941311  0.001  0.144495  0.000269  1.014281  0.0  0.148469  0.000168  1.00979  0.0  0.124337  0.141687  0.000355  1.017365  0.0
H  H7  1  0.34442089  0.01950251  0.42308868  1  0.126531  0.000364  0.964492  0.0  0.129909  0.000133  1.035447  0.0  0.13373  8e-05  1.031147  0.0  0.115202  0.127245  0.000181  1.03838  0.0
H  H8  1  0.65558887  0.98049610  0.57690846  1  0.12652  0.000363  0.964481  0.0  0.12993  0.000133  1.035399  0.0  0.133753  7.9e-05  1.031091  0.0  0.115205  0.127263  0.000182  1.038338  0.0
H  H9  1  0.19395445  0.67543774  0.01996519  1  0.096375  0.000959  0.953519  0.002  0.10627  0.000644  1.02003  0.001  0.107702  0.000427  1.018253  0.001  0.110577  0.105262  0.000857  1.021125  0.002
H  H10  1  0.80603238  0.32455842  0.98004001  1  0.096356  0.00096  0.953502  0.002  0.106248  0.000644  1.020015  0.001  0.107679  0.000427  1.018238  0.001  0.110568  0.105243  0.000858  1.021107  0.002
H  H11  1  0.30388779  0.65136956  0.16498239  1  0.075464  0.002948  0.940187  0.004  0.085227  0.001878  1.013136  0.002  0.085499  0.00131  1.011848  0.002  0.102798  0.084952  0.002273  1.014117  0.002
H  H12  1  0.69611431  0.34863361  0.83502090  1  0.075456  0.002949  0.940214  0.004  0.085246  0.001878  1.013116  0.002  0.085518  0.00131  1.011826  0.002  0.102816  0.084972  0.002273  1.014097  0.002
H  H13  1  0.62185218  0.62736302  0.96683888  1  0.055417  0.000355  0.925746  0.0  0.072827  0.00011  0.985151  0.0  0.072427  7e-05  0.985507  0.0  0.100316  0.073258  0.000171  0.984838  0.0
H  H14  1  0.37813728  0.37264373  0.03315158  1  0.055485  0.000356  0.925595  0.0  0.072843  0.00011  0.985086  0.0  0.072443  7e-05  0.985442  0.0  0.100292  0.073274  0.000171  0.984766  0.0
H  H15  1  0.54996406  0.82479077  0.92168501  1  0.058611  -0.000162  0.943418  0.0  0.072099  -5.1e-05  1.011118  0.0  0.071458  -8.5e-05  1.012477  0.0  0.099369  0.072575  -2.4e-05  1.01011  0.0
H  H16  1  0.45001642  0.17521588  0.07831382  1  0.058655  -0.000162  0.943281  0.0  0.072157  -5.1e-05  1.010981  0.0  0.071515  -8.5e-05  1.012343  0.0  0.099389  0.072626  -2.4e-05  1.009984  0.0
C  C17  1  0.22753394  0.92617658  0.21962834  1  0.162834  -0.028644  3.656225  -0.019  0.12143  -0.008577  3.920564  -0.005  0.140679  -0.010774  3.932668  -0.007  0.076162  0.10841  -0.00673  3.912633  -0.004
C  C18  1  0.77246122  0.07382545  0.78037200  1  0.162844  -0.028629  3.656206  -0.019  0.121425  -0.008578  3.920559  -0.005  0.140672  -0.010775  3.932661  -0.007  0.076173  0.108406  -0.00673  3.912638  -0.004
C  C19  1  0.12594704  0.06516803  0.28219811  1  -0.089732  0.008684  3.775003  0.011  -0.077368  0.003082  4.025756  0.005  -0.094519  0.002123  4.052894  0.004  -0.025305  -0.06622  0.004052  4.007855  0.006
C  C20  1  0.87405745  0.93482935  0.71780428  1  -0.089794  0.008674  3.774953  0.011  -0.077419  0.003082  4.025701  0.005  -0.094571  0.002124  4.052844  0.004  -0.025288  -0.06627  0.004052  4.007808  0.006
C  C21  1  0.94026340  0.16420758  0.23862732  1  0.350206  -0.008403  3.796446  -0.009  0.329267  -0.001442  4.065077  -0.002  0.355466  -0.002117  4.076559  -0.002  0.127698  0.311857  -0.000706  4.055915  -0.002
C  C22  1  0.05974869  0.83578519  0.76137452  1  0.350314  -0.008396  3.796265  -0.009  0.329323  -0.001443  4.06496  -0.002  0.355521  -0.002115  4.076436  -0.002  0.127706  0.311913  -0.000706  4.055806  -0.002
C  C23  1  0.83972070  0.28849037  0.32011692  1  -0.026672  0.010306  3.619354  0.012  -0.046229  0.005575  3.873336  0.007  -0.052165  0.00392  3.896994  0.005  0.069483  -0.038511  0.006857  3.860371  0.008
C  C24  1  0.16029285  0.71150593  0.67988088  1  -0.026629  0.0103  3.61919  0.012  -0.046222  0.005577  3.873145  0.007  -0.052096  0.003916  3.896847  0.005  0.069442  -0.038503  0.006857  3.860179  0.008
C  C25  1  0.90615491  0.31011825  0.43376931  1  -0.072506  -0.006371  3.688325  -0.004  -0.116772  -0.00159  3.964636  -0.001  -0.105938  -0.001854  3.976734  -0.001  -0.059827  -0.122888  -0.001472  3.954677  -0.001
C  C26  1  0.09384976  0.68987802  0.56622847  1  -0.072434  -0.006359  3.688091  -0.004  -0.116697  -0.001592  3.964425  -0.001  -0.105854  -0.001851  3.976507  -0.001  -0.059805  -0.122817  -0.001472  3.954466  -0.001
C  C27  1  0.09444246  0.21526099  0.46761386  1  0.04497  0.001255  3.76934  0.002  0.030741  -0.000404  4.035111  0.0  0.019406  -0.000317  4.060339  0.0  0.062162  0.037666  -0.000304  4.018542  0.0
C  C28  1  0.90555347  0.78473285  0.53239331  1  0.04477  0.001252  3.76931  0.002  0.030656  -0.000399  4.035073  0.0  0.019314  -0.000319  4.060306  0.0  0.062126  0.037582  -0.000304  4.018502  0.0
C  C29  1  0.20208505  0.09406830  0.39300869  1  -0.080239  -0.011153  3.69569  -0.007  -0.118885  -0.003268  3.957636  -0.002  -0.110133  -0.003542  3.9756  -0.002  -0.065838  -0.124706  -0.003059  3.946212  -0.002
C  C30  1  0.79793331  0.90593263  0.60699118  1  -0.080195  -0.011135  3.695832  -0.007  -0.118838  -0.003269  3.957676  -0.002  -0.110097  -0.003538  3.975667  -0.002  -0.065845  -0.124655  -0.003058  3.946253  -0.002
C  C31  1  0.29940247  0.72706940  0.07873590  1  -0.051033  0.002612  3.681615  0.002  -0.106938  0.002359  3.952182  0.002  -0.103062  0.001096  3.965119  0.001  -0.082751  -0.108796  0.003405  3.943082  0.003
C  C32  1  0.70059343  0.27292568  0.92126377  1  -0.051055  0.00261  3.681733  0.002  -0.106904  0.002359  3.95228  0.002  -0.103037  0.001097  3.965241  0.001  -0.08269  -0.108761  0.003404  3.943177  0.003
C  C33  1  0.55266433  0.74124367  0.00284750  1  0.131782  0.001613  3.631849  0.002  0.074562  0.000569  3.907425  0.001  0.081988  0.000487  3.913504  0.001  -0.078971  0.06923  0.000696  3.902929  0.001
C  C34  1  0.44731669  0.25875837  0.99714778  1  0.131733  0.001611  3.631807  0.002  0.074485  0.000568  3.907452  0.001  0.081908  0.000486  3.913531  0.001  -0.078987  0.069155  0.000696  3.902947  0.001
N  N35  1  0.18761259  0.87954565  0.11459750  1  -0.281221  0.089203  3.205084  0.112  -0.235969  0.052473  3.511742  0.071  -0.267631  0.043268  3.53018  0.063  -0.36  -0.216935  0.057085  3.501663  0.073
N  N36  1  0.81238397  0.12045986  0.88540252  1  -0.281187  0.089183  3.205328  0.111  -0.235971  0.052471  3.512023  0.071  -0.267629  0.043264  3.530463  0.063  -0.360082  -0.216937  0.057079  3.501947  0.073
N  N37  1  0.66584313  0.40280250  0.28051647  1  0.492727  -0.000585  3.953569  -0.001  0.555071  -1e-06  4.203615  0.0  0.555967  -0.000118  4.24682  0.0  0.056995  0.538681  0.000327  4.200427  0.0
N  N38  1  0.33417325  0.59720079  0.71947976  1  0.491998  -0.000584  3.954449  -0.001  0.554617  -3e-06  4.204131  0.0  0.555288  -0.000116  4.247698  0.0  0.056828  0.538231  0.000327  4.200934  0.0
N  N39  1  0.17909994  0.24358104  0.58037791  1  0.466706  -0.001972  3.968837  -0.001  0.509016  -0.000736  4.249963  0.0  0.530517  -0.000548  4.261287  0.0  0.04141  0.494729  -0.000591  4.242324  0.0
N  N40  1  0.82088993  0.75641975  0.41962861  1  0.467034  -0.001968  3.968661  -0.001  0.509044  -0.000738  4.250096  0.0  0.530549  -0.000552  4.261415  0.0  0.041423  0.494753  -0.000591  4.242455  0.0
O  O41  1  0.86014803  0.14165581  0.13938815  1  -0.491126  0.07923  2.147434  0.107  -0.468786  0.053642  2.428717  0.08  -0.509412  0.03936  2.427271  0.064  -0.289523  -0.440548  0.063908  2.429169  0.09
O  O42  1  0.13985343  0.85833695  0.86061293  1  -0.491162  0.079215  2.147523  0.107  -0.468783  0.053636  2.428793  0.08  -0.509396  0.039355  2.42733  0.064  -0.289496  -0.440549  0.063899  2.429251  0.09
O  O43  1  0.70530322  0.79844471  0.07671451  1  -0.562337  -0.000551  2.126166  0.001  -0.524782  -0.000862  2.3827  0.0  -0.543253  -0.001284  2.369639  0.0  -0.406386  -0.511481  -0.000286  2.392063  0.001
O  O44  1  0.29469490  0.20156315  0.92328337  1  -0.562282  -0.000549  2.126577  0.001  -0.524703  -0.000861  2.383115  0.0  -0.543163  -0.001283  2.37006  0.0  -0.406343  -0.5114  -0.000285  2.392475  0.001
O  O45  1  0.48862457  0.44413214  0.36051033  1  -0.344548  0.000945  1.764648  0.001  -0.346062  0.000464  1.966096  0.001  -0.352313  0.000322  1.974591  0.0  -0.127317  -0.336369  0.000789  1.968414  0.001
O  O46  1  0.51137233  0.55585492  0.63947848  1  -0.344293  0.000945  1.764871  0.001  -0.345994  0.000465  1.966308  0.001  -0.352167  0.00032  1.974911  0.0  -0.127283  -0.336305  0.000789  1.968629  0.001
O  O47  1  0.71027925  0.45700616  0.16869572  1  -0.346425  -0.000368  1.795766  0.0  -0.336213  -0.000124  1.993164  0.0  -0.340565  -0.000249  1.998617  0.0  -0.114877  -0.328283  2.2e-05  1.998016  0.0
O  O48  1  0.28975299  0.54301453  0.83130453  1  -0.345971  -0.000368  1.796102  0.0  -0.335841  -0.000124  1.993358  0.0  -0.340109  -0.000244  1.998911  0.0  -0.114736  -0.327916  2.2e-05  1.998215  0.0
O  O49  1  0.07095796  0.34636624  0.65019679  1  -0.373392  -0.00178  1.78776  -0.001  -0.35584  -0.000988  2.002238  -0.001  -0.36812  -0.00095  1.999735  -0.001  -0.139493  -0.348186  -0.000988  2.004075  -0.001
O  O50  1  0.92902615  0.65363923  0.34980545  1  -0.37342  -0.001782  1.787682  -0.001  -0.355784  -0.000991  2.002295  -0.001  -0.368051  -0.000956  1.99978  -0.001  -0.139421  -0.348127  -0.000988  2.004127  -0.001
O  O51  1  0.35662552  0.16364048  0.60499720  1  -0.377833  -0.000829  1.783272  -0.001  -0.360828  -0.000331  1.996865  0.0  -0.372858  -0.000247  1.992637  0.0  -0.143306  -0.352801  4.8e-05  1.999523  0.0
O  O52  1  0.64337190  0.83637187  0.39501634  1  -0.378039  -0.000831  1.78328  -0.001  -0.360893  -0.00033  1.996948  0.0  -0.372925  -0.000237  1.992717  0.0  -0.143388  -0.352866  4.8e-05  1.999607  0.0
