# generated using pymatgen
data_CuH2C2N3
_symmetry_space_group_name_H-M   'P 1'
_cell_length_a   7.66913321
_cell_length_b   8.64828363
_cell_length_c   10.52058255
_cell_angle_alpha   80.10538491
_cell_angle_beta   78.80842563
_cell_angle_gamma   80.28876235
_symmetry_Int_Tables_number   1
_chemical_formula_structural   CuH2C2N3
_chemical_formula_sum   'Cu8 H16 C16 N24'
_cell_volume   667.68047776
_cell_formula_units_Z   8
loop_
 _symmetry_equiv_pos_site_id
 _symmetry_equiv_pos_as_xyz
  1  'x, y, z'
loop_
 _atom_site_type_symbol
 _atom_site_label
 _atom_site_symmetry_multiplicity
 _atom_site_fract_x
 _atom_site_fract_y
 _atom_site_fract_z
 _atom_site_occupancy
 _atom_site_hle17_bader_spin_density
 _atom_site_hle17_ddec_charge
 _atom_site_hle17_ddec_spin_density
 _atom_site_hle17_ddec_sum_bond_order
 _atom_site_hle17_magmom
 _atom_site_hse06_10hf_bader_spin_density
 _atom_site_hse06_10hf_ddec_charge
 _atom_site_hse06_10hf_ddec_spin_density
 _atom_site_hse06_10hf_ddec_sum_bond_order
 _atom_site_hse06_10hf_magmom
 _atom_site_hse06_bader_spin_density
 _atom_site_hse06_ddec_charge
 _atom_site_hse06_ddec_spin_density
 _atom_site_hse06_ddec_sum_bond_order
 _atom_site_hse06_magmom
 _atom_site_pbe_bader_spin_density
 _atom_site_pbe_cm5_charge
 _atom_site_pbe_ddec_charge
 _atom_site_pbe_ddec_spin_density
 _atom_site_pbe_ddec_sum_bond_order
 _atom_site_pbe_magmom
Cu  Cu0  1  0.42083001  0.82368680  0.76109860  1  0  0.392528  0  1.917632  0  0  0.256351  0  2.409267  0  0  0.264531  0  2.359359  0  0  0.519007  0.252889  0  2.443038  0
Cu  Cu1  1  0.57916674  0.17631289  0.23890082  1  0  0.392599  0  1.917612  0  0  0.256453  0  2.409236  0  0  0.264626  0  2.359346  0  0  0.51904  0.252993  0  2.443015  0
Cu  Cu2  1  0.64298465  0.58363248  0.52504324  1  0  0.382174  0  1.919886  0  0  0.244361  0  2.417331  0  0  0.255826  0  2.365771  0  0  0.510229  0.238575  0  2.451614  0
Cu  Cu3  1  0.35701946  0.41637082  0.47495460  1  0  0.382183  0  1.9199  0  0  0.244394  0  2.417376  0  0  0.255863  0  2.365795  0  0  0.51026  0.238594  0  2.451653  0
Cu  Cu4  1  0.17127915  0.10123510  0.25520390  1  0  0.381656  0  1.916334  0  0  0.241365  0  2.410688  0  0  0.250671  0  2.36179  0  0  0.513474  0.236998  0  2.443749  0
Cu  Cu5  1  0.82872005  0.89876580  0.74479595  1  0  0.381724  0  1.91631  0  0  0.241409  0  2.410654  0  0  0.250713  0  2.361746  0  0  0.513488  0.23704  0  2.443712  0
Cu  Cu6  1  0.92189801  0.33322288  0.02445081  1  0  0.393038  0  1.902801  0  0  0.252845  0  2.401043  0  0  0.264062  0  2.348043  0  0  0.514368  0.247097  0  2.437339  0
Cu  Cu7  1  0.07809893  0.66677562  0.97554969  1  0  0.393028  0  1.902764  0  0  0.252875  0  2.401075  0  0  0.264091  0  2.348064  0  0  0.51437  0.247125  0  2.437312  0
H  H8  1  0.46886423  0.79220882  0.28132531  1  0  0.071772  0  0.956908  0  0  0.084824  0  1.020187  0  0  0.085891  0  1.018839  0  0  0.122764  0.083548  0  1.022039  0
H  H9  1  0.53114060  0.20779806  0.71867287  1  0  0.071754  0  0.957003  0  0  0.08481  0  1.020275  0  0  0.085876  0  1.018932  0  0  0.12275  0.083527  0  1.022121  0
H  H10  1  0.16113344  0.05311464  0.56837075  1  0  0.0698  0  0.945462  0  0  0.082081  0  1.013894  0  0  0.085322  0  1.008402  0  0  0.123392  0.079358  0  1.018673  0
H  H11  1  0.83886238  0.94688267  0.43163009  1  0  0.069775  0  0.945466  0  0  0.082087  0  1.013878  0  0  0.08533  0  1.008383  0  0  0.123408  0.079366  0  1.018661  0
H  H12  1  0.63168956  0.63787884  0.99301954  1  0  0.082404  0  0.938718  0  0  0.096489  0  0.996841  0  0  0.097968  0  0.995108  0  0  0.127637  0.094985  0  0.998906  0
H  H13  1  0.36829981  0.36211722  0.00697860  1  0  0.082383  0  0.938677  0  0  0.096473  0  0.996797  0  0  0.097953  0  0.995066  0  0  0.127617  0.094971  0  0.998856  0
H  H14  1  0.83843753  0.30921119  0.73255354  1  0  0.076628  0  0.942645  0  0  0.090357  0  1.005826  0  0  0.092401  0  1.003276  0  0  0.125731  0.08855  0  1.008296  0
H  H15  1  0.16156903  0.69079333  0.26744378  1  0  0.076623  0  0.942654  0  0  0.090374  0  1.005803  0  0  0.092413  0  1.003258  0  0  0.125741  0.088571  0  1.008272  0
H  H16  1  0.68071627  0.56530233  0.22158339  1  0  0.07562  0  0.951263  0  0  0.087323  0  1.015059  0  0  0.088479  0  1.013753  0  0  0.124243  0.086321  0  1.016594  0
H  H17  1  0.31928406  0.43469978  0.77841897  1  0  0.075651  0  0.951256  0  0  0.087336  0  1.015078  0  0  0.088495  0  1.013774  0  0  0.124256  0.086329  0  1.01661  0
H  H18  1  0.00089871  0.31515120  0.49144409  1  0  0.07078  0  0.947167  0  0  0.08292  0  1.015012  0  0  0.085773  0  1.010628  0  0  0.121902  0.080284  0  1.019203  0
H  H19  1  0.99910733  0.68484856  0.50855494  1  0  0.070802  0  0.947106  0  0  0.082935  0  1.01496  0  0  0.085789  0  1.010575  0  0  0.12189  0.080302  0  1.019152  0
H  H20  1  0.39353499  0.85352372  0.06234752  1  0  0.077899  0  0.946067  0  0  0.092701  0  1.003813  0  0  0.09397  0  1.002502  0  0  0.125757  0.091469  0  1.005534  0
H  H21  1  0.60646839  0.14647603  0.93765284  1  0  0.07784  0  0.945983  0  0  0.092622  0  1.003778  0  0  0.093894  0  1.002459  0  0  0.125702  0.09139  0  1.005497  0
H  H22  1  0.13853193  0.15265752  0.77495875  1  0  0.075256  0  0.940058  0  0  0.089195  0  1.003454  0  0  0.091729  0  0.999701  0  0  0.12575  0.086735  0  1.007143  0
H  H23  1  0.86146787  0.84733982  0.22504247  1  0  0.075221  0  0.940041  0  0  0.08919  0  1.003405  0  0  0.091718  0  0.999658  0  0  0.125739  0.086727  0  1.0071  0
C  C24  1  0.41485485  0.83517391  0.37377694  1  0  0.176793  0  3.767423  0  0  0.125554  0  4.03759  0  0  0.137135  0  4.050881  0  0  0.119712  0.118089  0  4.029343  0
C  C25  1  0.58514528  0.16482938  0.62622338  1  0  0.176705  0  3.767488  0  0  0.125472  0  4.037662  0  0  0.137051  0  4.050954  0  0  0.119649  0.118014  0  4.029397  0
C  C26  1  0.26000608  0.96797645  0.51925456  1  0  0.200152  0  3.727825  0  0  0.148615  0  3.995652  0  0  0.159345  0  4.009785  0  0  0.127904  0.141109  0  3.98718  0
C  C27  1  0.73999179  0.03202444  0.48074642  1  0  0.20021  0  3.727757  0  0  0.148647  0  3.995589  0  0  0.159376  0  4.009721  0  0  0.127888  0.141137  0  3.987126  0
C  C28  1  0.65894221  0.57749067  0.90780667  1  0  0.192329  0  3.738918  0  0  0.141  0  4.009149  0  0  0.153088  0  4.020594  0  0  0.125437  0.132877  0  4.002108  0
C  C29  1  0.34104790  0.42250898  0.09219750  1  0  0.192397  0  3.739096  0  0  0.141082  0  4.009297  0  0  0.153168  0  4.020743  0  0  0.125488  0.132962  0  4.00225  0
C  C30  1  0.76520502  0.41183065  0.77543079  1  0  0.18071  0  3.729332  0  0  0.133525  0  3.989769  0  0  0.142831  0  4.008233  0  0  0.121214  0.127459  0  3.977646  0
C  C31  1  0.23479796  0.58817146  0.22456644  1  0  0.180676  0  3.729261  0  0  0.133481  0  3.989722  0  0  0.142791  0  4.008176  0  0  0.121192  0.127409  0  3.977604  0
C  C32  1  0.78148562  0.48236130  0.26632791  1  0  0.187178  0  3.746789  0  0  0.134696  0  4.018927  0  0  0.146923  0  4.030381  0  0  0.123104  0.126063  0  4.0121  0
C  C33  1  0.21851531  0.51763724  0.73367488  1  0  0.187164  0  3.746787  0  0  0.134685  0  4.018949  0  0  0.146917  0  4.030377  0  0  0.123067  0.126055  0  4.012114  0
C  C34  1  0.94214598  0.35399069  0.40349564  1  0  0.196309  0  3.721669  0  0  0.146899  0  3.984446  0  0  0.156887  0  4.001442  0  0  0.124855  0.140552  0  3.973494  0
C  C35  1  0.05785780  0.64600669  0.59650406  1  0  0.196339  0  3.721738  0  0  0.146883  0  3.984513  0  0  0.156869  0  4.001513  0  0  0.124851  0.14053  0  3.973567  0
C  C36  1  0.30996698  0.94978955  0.01313415  1  0  0.18118  0  3.760729  0  0  0.131725  0  4.028411  0  0  0.14286  0  4.042043  0  0  0.12169  0.123807  0  4.02056  0
C  C37  1  0.69003547  0.05020782  0.98686763  1  0  0.181287  0  3.760615  0  0  0.131849  0  4.028257  0  0  0.142985  0  4.04189  0  0  0.121795  0.123935  0  4.020406  0
C  C38  1  0.18052086  0.10102369  0.86756729  1  0  0.185754  0  3.729853  0  0  0.136732  0  3.994049  0  0  0.146901  0  4.009317  0  0  0.124528  0.130387  0  3.984263  0
C  C39  1  0.81948026  0.89897367  0.13243468  1  0  0.185832  0  3.72971  0  0  0.136808  0  3.993912  0  0  0.146985  0  4.009168  0  0  0.124538  0.13046  0  3.984129  0
N  N40  1  0.37571033  0.86193012  0.57949283  1  0  -0.228318  0  3.265273  0  0  -0.161847  0  3.568997  0  0  -0.172688  0  3.579679  0  0  -0.294911  -0.154584  0  3.561926  0
N  N41  1  0.62428907  0.13806960  0.42050716  1  0  -0.228348  0  3.265151  0  0  -0.161884  0  3.568928  0  0  -0.172727  0  3.579616  0  0  -0.294912  -0.154619  0  3.561861  0
N  N42  1  0.47616805  0.77474653  0.48462995  1  0  -0.259436  0  3.331933  0  0  -0.191542  0  3.64689  0  0  -0.202011  0  3.652589  0  0  -0.304801  -0.184899  0  3.642805  0
N  N43  1  0.52383207  0.22525675  0.51536942  1  0  -0.259337  0  3.331774  0  0  -0.191472  0  3.646755  0  0  -0.20194  0  3.652455  0  0  -0.304767  -0.184829  0  3.642658  0
N  N44  1  0.27858333  0.95646242  0.38999411  1  0  -0.418236  0  3.429944  0  0  -0.339292  0  3.758575  0  0  -0.354223  0  3.759758  0  0  -0.411799  -0.329792  0  3.75853  0
N  N45  1  0.72141700  0.04353967  0.61000540  1  0  -0.418233  0  3.429938  0  0  -0.339288  0  3.758576  0  0  -0.354219  0  3.759753  0  0  -0.411772  -0.329789  0  3.758525  0
N  N46  1  0.65759812  0.52523889  0.71300974  1  0  -0.261916  0  3.30567  0  0  -0.196549  0  3.620538  0  0  -0.207683  0  3.627779  0  0  -0.302071  -0.189237  0  3.615793  0
N  N47  1  0.34240353  0.47476321  0.28698768  1  0  -0.26189  0  3.305523  0  0  -0.196539  0  3.620424  0  0  -0.207666  0  3.627658  0  0  -0.302081  -0.189221  0  3.615677  0
N  N48  1  0.58794871  0.63290606  0.79990678  1  0  -0.262125  0  3.344472  0  0  -0.194157  0  3.664445  0  0  -0.201959  0  3.665442  0  0  -0.305273  -0.189647  0  3.663939  0
N  N49  1  0.41204823  0.36709243  0.20009087  1  0  -0.262175  0  3.344541  0  0  -0.194223  0  3.66455  0  0  -0.202024  0  3.665543  0  0  -0.30528  -0.189714  0  3.664047  0
N  N50  1  0.77048850  0.43912333  0.89785714  1  0  -0.39906  0  3.405189  0  0  -0.320879  0  3.727358  0  0  -0.337442  0  3.732555  0  0  -0.40471  -0.310035  0  3.72412  0
N  N51  1  0.22950977  0.56087519  0.10214223  1  0  -0.399068  0  3.405187  0  0  -0.320898  0  3.727382  0  0  -0.337458  0  3.732571  0  0  -0.404722  -0.310046  0  3.72412  0
N  N52  1  0.99721070  0.28832066  0.29415734  1  0  -0.239185  0  3.298212  0  0  -0.172187  0  3.60694  0  0  -0.18298  0  3.614991  0  0  -0.29708  -0.165245  0  3.601031  0
N  N53  1  0.00278777  0.71167667  0.70584312  1  0  -0.239409  0  3.29844  0  0  -0.172292  0  3.607082  0  0  -0.183086  0  3.615129  0  0  -0.297109  -0.165348  0  3.601174  0
N  N54  1  0.89241268  0.37210329  0.20480488  1  0  -0.259246  0  3.349428  0  0  -0.189988  0  3.667047  0  0  -0.197777  0  3.66698  0  0  -0.304424  -0.184837  0  3.667572  0
N  N55  1  0.10758539  0.62789642  0.79519625  1  0  -0.25921  0  3.349525  0  0  -0.190001  0  3.667146  0  0  -0.197788  0  3.667078  0  0  -0.30445  -0.18485  0  3.66765  0
N  N56  1  0.80679868  0.47627074  0.39133841  1  0  -0.409683  0  3.400902  0  0  -0.32949  0  3.72059  0  0  -0.347155  0  3.726698  0  0  -0.408454  -0.317652  0  3.716642  0
N  N57  1  0.19320358  0.52372781  0.60866324  1  0  -0.40964  0  3.400842  0  0  -0.329444  0  3.720527  0  0  -0.347106  0  3.726644  0  0  -0.408389  -0.317603  0  3.716571  0
N  N58  1  0.11906424  0.16257253  0.97858718  1  0  -0.252557  0  3.280796  0  0  -0.186431  0  3.593327  0  0  -0.197505  0  3.602227  0  0  -0.299737  -0.179351  0  3.58704  0
N  N59  1  0.88093556  0.83742482  0.02141404  1  0  -0.25261  0  3.280711  0  0  -0.186532  0  3.593313  0  0  -0.197599  0  3.602196  0  0  -0.299768  -0.179445  0  3.587008  0
N  N60  1  0.20444563  0.06379518  0.07359547  1  0  -0.258711  0  3.323782  0  0  -0.193059  0  3.643902  0  0  -0.203211  0  3.650139  0  0  -0.304307  -0.186293  0  3.639876  0
N  N61  1  0.79555417  0.93620216  0.92640480  1  0  -0.258689  0  3.323695  0  0  -0.193019  0  3.643806  0  0  -0.203173  0  3.650038  0  0  -0.304289  -0.186251  0  3.639774  0
N  N62  1  0.30082002  0.96769268  0.88383768  1  0  -0.40149  0  3.41519  0  0  -0.324146  0  3.742301  0  0  -0.337982  0  3.742695  0  0  -0.405131  -0.315592  0  3.743085  0
N  N63  1  0.69918224  0.03230587  0.11616301  1  0  -0.40158  0  3.415255  0  0  -0.324263  0  3.742396  0  0  -0.338095  0  3.742786  0  0  -0.405187  -0.315709  0  3.743188  0
