# generated using pymatgen
data_H9RhC13SN(O2F3)2
_symmetry_space_group_name_H-M   'P 1'
_cell_length_a   12.20781209
_cell_length_b   12.20886869
_cell_length_c   16.24281897
_cell_angle_alpha   95.10469889
_cell_angle_beta   112.61121700
_cell_angle_gamma   111.73127191
_symmetry_Int_Tables_number   1
_chemical_formula_structural   H9RhC13SN(O2F3)2
_chemical_formula_sum   'H36 Rh4 C52 S4 N4 O16 F24'
_cell_volume   1999.01637904
_cell_formula_units_Z   4
loop_
 _symmetry_equiv_pos_site_id
 _symmetry_equiv_pos_as_xyz
  1  'x, y, z'
loop_
 _atom_site_type_symbol
 _atom_site_label
 _atom_site_symmetry_multiplicity
 _atom_site_fract_x
 _atom_site_fract_y
 _atom_site_fract_z
 _atom_site_occupancy
 _atom_site_pbe_bader_spin_density
 _atom_site_pbe_cm5_charge
 _atom_site_pbe_ddec_charge
 _atom_site_pbe_ddec_spin_density
 _atom_site_pbe_ddec_sum_bond_order
 _atom_site_pbe_magmom
H  H0  1  0.46353938  0.48616916  0.76616860  1  0  0.082164  0.126796  0  1.05127  0
H  H1  1  0.21993114  0.69729911  0.73399035  1  0  0.082359  0.127549  0  1.050096  0
H  H2  1  0.53646289  0.51383051  0.23383006  1  0  0.082167  0.126821  0  1.051254  0
H  H3  1  0.78007069  0.30270330  0.26601023  1  0  0.082372  0.127567  0  1.050112  0
H  H4  1  0.34292771  0.37227685  0.66004647  1  0  0.085522  0.134777  0  1.029618  0
H  H5  1  0.21221358  0.68281266  0.84012374  1  0  0.085453  0.13523  0  1.029893  0
H  H6  1  0.65707146  0.62772375  0.33995075  1  0  0.085549  0.134813  0  1.029617  0
H  H7  1  0.78778736  0.31718791  0.15987646  1  0  0.085452  0.13524  0  1.029885  0
H  H8  1  0.32978003  0.35632650  0.76384933  1  0  0.088312  0.129944  0  1.026981  0
H  H9  1  0.09250920  0.56579463  0.73633415  1  0  0.08843  0.130555  0  1.026505  0
H  H10  1  0.67022046  0.64367501  0.23614896  1  0  0.08831  0.129948  0  1.026934  0
H  H11  1  0.90749441  0.43420593  0.26366681  1  0  0.088432  0.130563  0  1.026598  0
H  H12  1  0.95620026  0.27842318  0.40984309  1  0  0.095872  0.138866  0  0.995027  0
H  H13  1  0.36844928  0.54639728  0.09033640  1  0  0.095862  0.139467  0  0.995165  0
H  H14  1  0.04380069  0.72157738  0.59015772  1  0  0.095841  0.13881  0  0.994974  0
H  H15  1  0.63154903  0.45360145  0.90966414  1  0  0.095866  0.13946  0  0.995188  0
H  H16  1  0.86919694  0.28414296  0.47451865  1  0  0.089402  0.127853  0  1.028281  0
H  H17  1  0.30952338  0.39475489  0.02560593  1  0  0.089809  0.128593  0  1.027782  0
H  H18  1  0.13080533  0.71585852  0.52548199  1  0  0.089382  0.127822  0  1.028289  0
H  H19  1  0.69047491  0.60524387  0.97439215  1  0  0.089792  0.128571  0  1.027818  0
H  H20  1  0.95141495  0.18995000  0.49016758  1  0  0.099256  0.142325  0  0.978192  0
H  H21  1  0.19963331  0.46127703  0.00997251  1  0  0.099301  0.14282  0  0.97794  0
H  H22  1  0.04858863  0.81005422  0.50983487  1  0  0.099281  0.142358  0  0.978193  0
H  H23  1  0.80036541  0.53872266  0.99002452  1  0  0.099278  0.142818  0  0.977945  0
H  H24  1  0.21430409  0.58590174  0.44350181  1  0  0.094474  0.148155  0  1.006666  0
H  H25  1  0.64246043  0.77084063  0.05670366  1  0  0.094045  0.147388  0  1.006451  0
H  H26  1  0.78569596  0.41409886  0.55649567  1  0  0.094454  0.148134  0  1.006569  0
H  H27  1  0.35754450  0.22916267  0.94329910  1  0  0.094024  0.147401  0  1.006442  0
H  H28  1  0.04803496  0.47096571  0.39511280  1  0  0.094523  0.13493  0  1.033981  0
H  H29  1  0.57596560  0.65296579  0.10508568  1  0  0.094544  0.135232  0  1.034446  0
H  H30  1  0.95196687  0.52903488  0.60488519  1  0  0.094524  0.134916  0  1.03398  0
H  H31  1  0.42403623  0.34703477  0.89491600  1  0  0.094535  0.135202  0  1.034505  0
H  H32  1  0.17745726  0.43006213  0.40656326  1  0  0.099455  0.156384  0  0.985642  0
H  H33  1  0.52363645  0.77094488  0.09371785  1  0  0.099415  0.156011  0  0.986361  0
H  H34  1  0.82254456  0.56994028  0.59343609  1  0  0.099442  0.156388  0  0.98561  0
H  H35  1  0.47636537  0.22905751  0.90628397  1  0  0.099404  0.156003  0  0.986355  0
Rh  Rh36  1  0.62076968  0.05629025  0.54285686  1  0  0.664521  0.60428  0  3.722265  0
Rh  Rh37  1  0.01349406  0.07796639  0.95722353  1  0  0.664261  0.603511  0  3.722348  0
Rh  Rh38  1  0.37923438  0.94370756  0.45714402  1  0  0.664548  0.60442  0  3.722252  0
Rh  Rh39  1  0.98650027  0.92203141  0.04277889  1  0  0.664299  0.603479  0  3.722413  0
C  C40  1  0.27146264  0.49120009  0.70629417  1  0  0.010465  0.091821  0  3.795616  0
C  C41  1  0.28501146  0.56521855  0.79391735  1  0  0.01046  0.092586  0  3.79494  0
C  C42  1  0.72853874  0.50880141  0.29370560  1  0  0.010501  0.091941  0  3.795571  0
C  C43  1  0.71498904  0.43478294  0.20608340  1  0  0.010437  0.092603  0  3.794939  0
C  C44  1  0.12879567  0.39538969  0.64965033  1  0  0.008284  0.010568  0  3.911061  0
C  C45  1  0.24578765  0.47922789  0.85053180  1  0  0.008672  0.011828  0  3.912589  0
C  C46  1  0.87120748  0.60461363  0.35035008  1  0  0.008312  0.010601  0  3.910962  0
C  C47  1  0.75421551  0.52077177  0.14946835  1  0  0.00876  0.011873  0  3.912543  0
C  C48  1  0.08311311  0.38230789  0.55235919  1  0  -0.028049  0.024798  0  3.98099  0
C  C49  1  0.32992913  0.53083763  0.94783888  1  0  -0.028543  0.024148  0  3.981887  0
C  C50  1  0.91688782  0.61769635  0.44764127  1  0  -0.028051  0.024792  0  3.980886  0
C  C51  1  0.67007357  0.46916479  0.05216072  1  0  -0.028582  0.024102  0  3.981908  0
C  C52  1  0.16801996  0.47627918  0.53325393  1  0  0.0154  0.096011  0  3.923994  0
C  C53  1  0.44303662  0.63483922  0.96697896  1  0  0.015443  0.09663  0  3.923865  0
C  C54  1  0.83198053  0.52372234  0.46674375  1  0  0.015418  0.096001  0  3.924087  0
C  C55  1  0.55696653  0.36516226  0.03302193  1  0  0.015462  0.096655  0  3.923846  0
C  C56  1  0.06716886  0.33313602  0.69874638  1  0  -0.016556  -0.072391  0  4.090412  0
C  C57  1  0.13445403  0.36849276  0.80139918  1  0  -0.016294  -0.073812  0  4.09464  0
C  C58  1  0.93283651  0.66686638  0.30125521  1  0  -0.016607  -0.072473  0  4.090582  0
C  C59  1  0.86554913  0.63150872  0.19860172  1  0  -0.016307  -0.073779  0  4.094579  0
C  C60  1  0.93741975  0.23842076  0.65368769  1  0  0.199464  0.268317  0  4.0275  0
C  C61  1  0.08477583  0.28380647  0.84644515  1  0  0.198736  0.268269  0  4.026748  0
C  C62  1  0.06258256  0.76157522  0.34631317  1  0  0.199458  0.268326  0  4.027155  0
C  C63  1  0.91522688  0.71619593  0.15355568  1  0  0.198728  0.268197  0  4.026365  0
C  C64  1  0.35869871  0.42261414  0.72592258  1  0  -0.249372  -0.438917  0  3.916244  0
C  C65  1  0.19671312  0.63272582  0.77425195  1  0  -0.249692  -0.44113  0  3.915353  0
C  C66  1  0.64130267  0.57738737  0.27407596  1  0  -0.249408  -0.439033  0  3.91622  0
C  C67  1  0.80328915  0.36727566  0.22574869  1  0  -0.249718  -0.441207  0  3.915419  0
C  C68  1  0.95883649  0.27896284  0.47809625  1  0  -0.236817  -0.390095  0  3.9598  0
C  C69  1  0.30075597  0.48081526  0.02205617  1  0  -0.237338  -0.392574  0  3.961429  0
C  C70  1  0.04116533  0.72103956  0.52190433  1  0  -0.236821  -0.390069  0  3.959721  0
C  C71  1  0.69924453  0.51918440  0.97794322  1  0  -0.237317  -0.392566  0  3.961442  0
C  C72  1  0.15123485  0.49233582  0.43986052  1  0  -0.238208  -0.416316  0  3.956427  0
C  C73  1  0.55255162  0.71142993  0.06036564  1  0  -0.237749  -0.415284  0  3.956256  0
C  C74  1  0.84876565  0.50766568  0.56013839  1  0  -0.23819  -0.416301  0  3.956259  0
C  C75  1  0.44745109  0.28857247  0.93963519  1  0  -0.237722  -0.415265  0  3.95629  0
C  C76  1  0.51995679  0.79672862  0.48013479  1  0  0.209569  0.395878  0  4.193034  0
C  C77  1  0.81660403  0.03994282  0.01978906  1  0  0.209091  0.39438  0  4.19236  0
C  C78  1  0.48004593  0.20327013  0.51986455  1  0  0.20958  0.395865  0  4.19324  0
C  C79  1  0.18338988  0.96005222  0.98021365  1  0  0.209039  0.394342  0  4.192569  0
C  C80  1  0.52767792  0.67349276  0.46357737  1  0  0.302494  0.600952  0  4.032045  0
C  C81  1  0.70989648  0.06410073  0.03639352  1  0  0.303614  0.603087  0  4.02699  0
C  C82  1  0.47232260  0.32650507  0.53642250  1  0  0.3025  0.600968  0  4.03191  0
C  C83  1  0.29009697  0.93589525  0.96360667  1  0  0.30365  0.603336  0  4.026739  0
C  C84  1  0.51383715  0.01516499  0.34612762  1  0  0.208946  0.392836  0  4.193204  0
C  C85  1  0.16907944  0.16747412  0.15405676  1  0  0.208867  0.392797  0  4.190919  0
C  C86  1  0.48616779  0.98483465  0.65387365  1  0  0.208962  0.392904  0  4.193239  0
C  C87  1  0.83091707  0.83252826  0.84594539  1  0  0.208889  0.392841  0  4.191153  0
C  C88  1  0.51934143  0.01767807  0.25254807  1  0  0.304571  0.60306  0  4.035616  0
C  C89  1  0.26525108  0.26660497  0.24762943  1  0  0.30421  0.602554  0  4.035621  0
C  C90  1  0.48065686  0.98232069  0.74745000  1  0  0.30459  0.603057  0  4.035808  0
C  C91  1  0.73474677  0.73339650  0.75237242  1  0  0.30422  0.602669  0  4.035362  0
S  S92  1  0.30783372  0.58425246  0.62885825  1  0  0.045442  0.025754  0  2.628671  0
S  S93  1  0.45550247  0.67900980  0.87140417  1  0  0.045635  0.025491  0  2.629794  0
S  S94  1  0.69216854  0.41575087  0.37114068  1  0  0.045405  0.025719  0  2.628805  0
S  S95  1  0.54450333  0.32099350  0.12859823  1  0  0.045653  0.025518  0  2.62989  0
N  N96  1  0.82894802  0.16101905  0.61769096  1  0  -0.336097  -0.326027  0  3.237342  0
N  N97  1  0.04348850  0.21137649  0.88250519  1  0  -0.335182  -0.325201  0  3.2359  0
N  N98  1  0.17106137  0.83897874  0.38231205  1  0  -0.33607  -0.32602  0  3.236871  0
N  N99  1  0.95651064  0.78862777  0.11749353  1  0  -0.335193  -0.325147  0  3.235688  0
O  O100  1  0.62867250  0.89165189  0.52437568  1  0  -0.274558  -0.376663  0  2.451997  0
O  O101  1  0.86730795  0.10447890  0.97559296  1  0  -0.275071  -0.376463  0  2.451805  0
O  O102  1  0.37133115  0.10834496  0.47562932  1  0  -0.274598  -0.37669  0  2.451993  0
O  O103  1  0.13268284  0.89551529  0.02440388  1  0  -0.274959  -0.376334  0  2.451975  0
O  O104  1  0.59741971  0.21402752  0.55369002  1  0  -0.2814  -0.39835  0  2.470051  0
O  O105  1  0.16032841  0.04361945  0.94643558  1  0  -0.280724  -0.39758  0  2.470493  0
O  O106  1  0.40258257  0.78597215  0.44630926  1  0  -0.28146  -0.398415  0  2.469851  0
O  O107  1  0.83967298  0.95638563  0.05357246  1  0  -0.280669  -0.397419  0  2.470442  0
O  O108  1  0.62414691  0.06643536  0.41824950  1  0  -0.278706  -0.390636  0  2.46331  0
O  O109  1  0.14816719  0.20570717  0.08196485  1  0  -0.278048  -0.390341  0  2.46489  0
O  O110  1  0.37585541  0.93355881  0.58174939  1  0  -0.278718  -0.390754  0  2.463151  0
O  O111  1  0.85182536  0.79429246  0.91803720  1  0  -0.278086  -0.390444  0  2.464929  0
O  O112  1  0.60174829  0.04005543  0.66165794  1  0  -0.274564  -0.37368  0  2.440803  0
O  O113  1  0.87839618  0.94034201  0.83822730  1  0  -0.275101  -0.373563  0  2.435797  0
O  O114  1  0.39825310  0.95994422  0.33834293  1  0  -0.274556  -0.373696  0  2.440664  0
O  O115  1  0.12160612  0.05965580  0.16177369  1  0  -0.275085  -0.373522  0  2.435515  0
F  F116  1  0.45854513  0.61374038  0.37172332  1  0  -0.098101  -0.189945  0  1.316803  0
F  F117  1  0.74211313  0.08675166  0.12826047  1  0  -0.098608  -0.190689  0  1.315945  0
F  F118  1  0.54145536  0.38626111  0.62827620  1  0  -0.098133  -0.189973  0  1.316737  0
F  F119  1  0.25787280  0.91324343  0.87173751  1  0  -0.098617  -0.190767  0  1.315812  0
F  F120  1  0.65349806  0.68870711  0.49263414  1  0  -0.091477  -0.183738  0  1.341674  0
F  F121  1  0.69592552  0.16084646  0.00741158  1  0  -0.09144  -0.183836  0  1.338479  0
F  F122  1  0.34650247  0.31128889  0.50736375  1  0  -0.091445  -0.183707  0  1.341675  0
F  F123  1  0.30406616  0.83914954  0.99258687  1  0  -0.091437  -0.183872  0  1.338415  0
F  F124  1  0.47297519  0.60061962  0.50925203  1  0  -0.098429  -0.209705  0  1.400971  0
F  F125  1  0.59137013  0.96369033  0.99073037  1  0  -0.098863  -0.210445  0  1.402166  0
F  F126  1  0.52702400  0.39937731  0.49074555  1  0  -0.098445  -0.20973  0  1.400931  0
F  F127  1  0.40862287  0.03630477  0.00926655  1  0  -0.098913  -0.210557  0  1.402164  0
F  F128  1  0.64218782  0.08950824  0.26437712  1  0  -0.092475  -0.188473  0  1.365864  0
F  F129  1  0.32528303  0.37756145  0.23572535  1  0  -0.092685  -0.188658  0  1.364607  0
F  F130  1  0.35780913  0.91049329  0.73561893  1  0  -0.09248  -0.188458  0  1.36597  0
F  F131  1  0.67471172  0.62243913  0.76427431  1  0  -0.092713  -0.188704  0  1.364472  0
F  F132  1  0.43533059  0.05973430  0.19984030  1  0  -0.100807  -0.199667  0  1.359433  0
F  F133  1  0.36003633  0.23534802  0.30036948  1  0  -0.100677  -0.199237  0  1.359626  0
F  F134  1  0.56466375  0.94026168  0.80016015  1  0  -0.100776  -0.199638  0  1.359445  0
F  F135  1  0.63996151  0.76465527  0.69963434  1  0  -0.100654  -0.199262  0  1.359622  0
F  F136  1  0.48246291  0.90216033  0.20461879  1  0  -0.102566  -0.199626  0  1.288823  0
F  F137  1  0.19773089  0.27782001  0.29557152  1  0  -0.102173  -0.199491  0  1.290692  0
F  F138  1  0.51753671  0.09783934  0.79537911  1  0  -0.102604  -0.199662  0  1.288855  0
F  F139  1  0.80226342  0.72217965  0.70442856  1  0  -0.102155  -0.199476  0  1.290668  0
