# generated using pymatgen
data_CuH39C33N3Cl2
_symmetry_space_group_name_H-M   'P 1'
_cell_length_a   8.91123227
_cell_length_b   12.87056350
_cell_length_c   14.76968673
_cell_angle_alpha   91.36660492
_cell_angle_beta   106.99638060
_cell_angle_gamma   94.24421637
_symmetry_Int_Tables_number   1
_chemical_formula_structural   CuH39C33N3Cl2
_chemical_formula_sum   'Cu2 H78 C66 N6 Cl4'
_cell_volume   1613.70537800
_cell_formula_units_Z   2
loop_
 _symmetry_equiv_pos_site_id
 _symmetry_equiv_pos_as_xyz
  1  'x, y, z'
loop_
 _atom_site_type_symbol
 _atom_site_label
 _atom_site_symmetry_multiplicity
 _atom_site_fract_x
 _atom_site_fract_y
 _atom_site_fract_z
 _atom_site_occupancy
 _atom_site_pbe_bader_charge
 _atom_site_pbe_bader_spin_density
 _atom_site_pbe_cm5_charge
 _atom_site_pbe_ddec_charge
 _atom_site_pbe_ddec_spin_density
 _atom_site_pbe_ddec_sum_bond_order
 _atom_site_pbe_magmom
Cu  Cu0  1  0.50000339  0.99999997  0.99999976  1  0.882758  -0.481827  0.612716  0.637386  -0.655174  2.366077  -0.484
Cu  Cu1  1  0.99999871  0.50000003  0.00000150  1  0.890917  -0.482181  0.618957  0.645544  -0.655588  2.363362  -0.484
H  H2  1  0.23662328  0.34853097  0.32505347  1  0.025825  -4.2e-05  0.09009  0.087284  -5e-05  1.011783  0.0
H  H3  1  0.76338101  0.65146952  0.67494401  1  0.025795  -4.3e-05  0.090105  0.087296  -5e-05  1.011885  0.0
H  H4  1  0.24926942  0.23221667  0.26740967  1  0.013881  -0.000591  0.087263  0.08045  -0.000486  1.026725  0.0
H  H5  1  0.75073214  0.76778068  0.73258794  1  0.013928  -0.000591  0.087241  0.080379  -0.000486  1.026811  0.0
H  H6  1  0.39524159  0.28546391  0.48149011  1  0.007005  -4.4e-05  0.081582  0.109552  -1.4e-05  1.039079  0.0
H  H7  1  0.60476046  0.71453734  0.51850836  1  0.006942  -4.4e-05  0.081576  0.109556  -1.4e-05  1.039077  0.0
H  H8  1  0.22889679  0.19634553  0.42856516  1  0.026441  -1.6e-05  0.083032  0.110947  1.5e-05  1.024895  0.0
H  H9  1  0.77110527  0.80365572  0.57143331  1  0.026386  -1.6e-05  0.083054  0.110988  1.5e-05  1.024831  0.0
H  H10  1  0.41971757  0.16827992  0.42497556  1  0.013099  -7e-06  0.08499  0.115828  1e-05  1.010249  0.0
H  H11  1  0.58028666  0.83171976  0.57502528  1  0.013072  -7e-06  0.084979  0.115856  1e-05  1.010203  0.0
H  H12  1  0.71037441  0.16976151  0.16780522  1  0.03004  5.8e-05  0.082858  0.075611  0.000192  1.053878  0.0
H  H13  1  0.28963008  0.83024053  0.83219302  1  0.030008  5.8e-05  0.082843  0.075602  0.000192  1.053947  0.0
H  H14  1  0.84996701  0.27379359  0.16933548  1  0.010796  6e-06  0.086532  0.086064  6e-06  1.018954  0.0
H  H15  1  0.15004092  0.72620767  0.83066400  1  0.010906  6e-06  0.086583  0.08614  5e-06  1.018965  0.0
H  H16  1  0.84817675  0.13642009  0.33696081  1  0.009062  -0.000134  0.08271  0.107954  -0.000108  1.019223  0.0
H  H17  1  0.15182286  0.86358038  0.66303722  1  0.008977  -0.000135  0.082713  0.107939  -0.000108  1.019199  0.0
H  H18  1  0.97581170  0.12885019  0.26541944  1  0.0088  -0.000139  0.082718  0.112613  -9e-05  1.023938  0.0
H  H19  1  0.02418900  0.87114949  0.73458079  1  0.008803  -0.000139  0.082714  0.112604  -9e-05  1.023973  0.0
H  H20  1  0.99016451  0.24215265  0.34045488  1  0.032085  -3.9e-05  0.084926  0.11399  -2e-06  1.024246  0.0
H  H21  1  0.00983963  0.75784625  0.65954728  1  0.032615  -3.9e-05  0.084897  0.113944  -2e-06  1.024288  0.0
H  H22  1  0.78440618  0.62180486  0.29928043  1  0.014149  -3.1e-05  0.089623  0.083793  -3.4e-05  1.030308  0.0
H  H23  1  0.21559258  0.37819794  0.70072022  1  0.014094  -3.1e-05  0.089624  0.083812  -3.4e-05  1.030413  0.0
H  H24  1  0.62777686  0.63671149  0.34525676  1  0.009632  -4.1e-05  0.09026  0.087732  -3.8e-05  1.005703  0.0
H  H25  1  0.37222288  0.36328974  0.65474470  1  0.009643  -4.1e-05  0.090249  0.087702  -3.8e-05  1.005702  0.0
H  H26  1  0.94563804  0.55540069  0.45018696  1  0.023889  -4e-06  0.08417  0.113026  0.0  1.035075  0.0
H  H27  1  0.05436187  0.44460211  0.54981254  1  0.023864  -4e-06  0.084157  0.112994  -0.0  1.035061  0.0
H  H28  1  0.87900059  0.67707097  0.47264636  1  0.036379  -3e-06  0.08179  0.109954  8e-06  1.031254  0.0
H  H29  1  0.12100030  0.32293028  0.52735259  1  0.036414  -3e-06  0.081777  0.109949  8e-06  1.031128  0.0
H  H30  1  0.78727573  0.55888871  0.49929664  1  0.042075  -1e-06  0.08006  0.106012  4e-06  1.039041  0.0
H  H31  1  0.21272752  0.44111253  0.50070407  1  0.042049  -1e-06  0.080061  0.106007  4e-06  1.03904  0.0
H  H32  1  0.51242234  0.56233112  0.42943726  1  0.013948  5e-06  0.0899  0.079929  5e-06  1.045049  0.0
H  H33  1  0.48757320  0.43766465  0.57056265  1  0.013854  5e-06  0.089905  0.079951  5e-06  1.044993  0.0
H  H34  1  0.36577435  0.46112484  0.41948374  1  0.02126  2e-06  0.089453  0.082439  1.5e-05  1.041334  0.0
H  H35  1  0.63422115  0.53887096  0.58051210  1  0.021191  2e-06  0.089496  0.082521  1.5e-05  1.041242  0.0
H  H36  1  0.38401917  0.60004360  0.25714659  1  0.023222  -7e-06  0.096704  0.100947  -1e-06  1.010288  0.0
H  H37  1  0.61598048  0.39995684  0.74285551  1  0.023245  -7e-06  0.09669  0.100943  -1e-06  1.010226  0.0
H  H38  1  0.23110945  0.50629677  0.25233047  1  0.067751  7.3e-05  0.094052  0.108399  0.000127  1.010726  0.0
H  H39  1  0.76889005  0.49370293  0.74766617  1  0.067807  7.3e-05  0.094066  0.108385  0.000127  1.01078  0.0
H  H40  1  0.34056726  0.63488749  0.48635743  1  0.076619  -8e-06  0.101303  0.107133  2e-06  1.052147  0.0
H  H41  1  0.65943618  0.36511532  0.51364268  1  0.076636  -8e-06  0.101299  0.107101  2e-06  1.052189  0.0
H  H42  1  0.20342905  0.77944139  0.52985125  1  0.111995  -1.4e-05  0.105091  0.097547  1.2e-05  1.011733  0.0
H  H43  1  0.79656578  0.22055829  0.47014661  1  0.111954  -1.4e-05  0.105106  0.097568  1.2e-05  1.011739  0.0
H  H44  1  0.00998531  0.86762246  0.39903841  1  0.065161  -0.000236  0.10515  0.108507  -0.000167  0.993024  0.0
H  H45  1  0.99000406  0.13237096  0.60095970  1  0.065225  -0.000236  0.105153  0.108506  -0.000167  0.993066  0.0
H  H46  1  0.96540140  0.80222889  0.23214654  1  0.072446  -0.000791  0.105282  0.072081  -0.000738  1.015754  0.0
H  H47  1  0.03458661  0.19776296  0.76785197  1  0.072473  -0.000791  0.105339  0.072115  -0.000738  1.015776  0.0
H  H48  1  0.41629396  0.12233438  0.28258101  1  0.048111  -5e-06  0.091704  0.091304  3.2e-05  1.017201  0.0
H  H49  1  0.58371174  0.87766764  0.71742014  1  0.048021  -6e-06  0.091691  0.091305  3.2e-05  1.017133  0.0
H  H50  1  0.58181945  0.09954455  0.24641085  1  0.072989  -0.000257  0.086669  0.095868  -7.5e-05  1.028167  0.0
H  H51  1  0.41818585  0.90045436  0.75358880  1  0.072845  -0.000257  0.086696  0.095922  -7.5e-05  1.028168  0.0
H  H52  1  0.31229419  0.21453576  0.12316412  1  0.087411  -0.001614  0.090903  0.116437  -0.001701  1.013222  0.0
H  H53  1  0.68770967  0.78546079  0.87683929  1  0.087299  -0.001614  0.090904  0.116407  -0.001701  1.013277  0.0
H  H54  1  0.46207869  0.15896081  0.08761530  1  0.022494  0.000621  0.085465  0.072612  0.000762  1.064504  0.0
H  H55  1  0.53792104  0.84104042  0.91238480  1  0.022482  0.000621  0.085466  0.072585  0.000763  1.06452  0.0
H  H56  1  0.12211417  0.09337671  0.18127925  1  0.065376  -0.001538  0.105533  0.112159  -0.000823  1.02323  -0.001
H  H57  1  0.87788526  0.90662219  0.81872074  1  0.065344  -0.001538  0.105522  0.112148  -0.000824  1.023251  -0.001
H  H58  1  0.94086068  0.93125441  0.12985074  1  0.127327  -0.000527  0.093171  0.100134  -0.00031  1.045941  0.0
H  H59  1  0.05913774  0.06874607  0.87014505  1  0.12728  -0.000526  0.093158  0.100093  -0.00031  1.045979  0.0
H  H60  1  0.01293728  0.79458808  0.02613859  1  0.122746  -0.001122  0.096528  0.112633  -0.000556  1.039009  -0.001
H  H61  1  0.98706574  0.20541162  0.97385865  1  0.122734  -0.001122  0.09655  0.112689  -0.000555  1.039003  -0.001
H  H62  1  0.25066006  0.83473538  0.97352272  1  0.101475  -0.002221  0.112977  0.077218  -0.000962  1.037996  -0.002
H  H63  1  0.74934288  0.16526353  0.02647584  1  0.101588  -0.002221  0.112992  0.077251  -0.000962  1.037923  -0.002
H  H64  1  0.95831804  0.40257698  0.23135332  1  0.053617  2.6e-05  0.089547  0.093635  6.5e-05  1.026263  0.0
H  H65  1  0.04168179  0.59742503  0.76864682  1  0.053568  2.6e-05  0.08957  0.093657  6.5e-05  1.026269  0.0
H  H66  1  0.95368390  0.51760608  0.29614759  1  0.020254  -0.000143  0.094296  0.098837  -8.5e-05  1.014088  0.0
H  H67  1  0.04631584  0.48239514  0.70385387  1  0.020301  -0.000143  0.094285  0.098819  -8.5e-05  1.014176  0.0
H  H68  1  0.91891279  0.56019828  0.13369723  1  0.047367  0.000758  0.086166  0.072761  0.00083  1.074464  0.0
H  H69  1  0.08108586  0.43980373  0.86630271  1  0.047378  0.000758  0.08617  0.072757  0.00083  1.074456  0.0
H  H70  1  0.74195890  0.57696994  0.16095041  1  0.053294  0.000262  0.097662  0.106064  0.000175  1.00284  0.0
H  H71  1  0.25804241  0.42303441  0.83905207  1  0.053327  0.000262  0.097621  0.105978  0.000175  1.002958  0.0
H  H72  1  0.51532329  0.42513479  0.10941033  1  0.109567  -0.001415  0.108916  0.123184  -0.000762  1.006936  -0.001
H  H73  1  0.48467303  0.57486721  0.89059123  1  0.1097  -0.001415  0.108963  0.123244  -0.000762  1.006855  -0.001
H  H74  1  0.37679929  0.30228858  0.97302284  1  0.105965  -0.000182  0.106386  0.107631  -2.5e-05  0.996857  0.0
H  H75  1  0.62319823  0.69771341  0.02698096  1  0.106047  -0.000181  0.106404  0.107671  -2.5e-05  0.996839  0.0
H  H76  1  0.51652563  0.25658657  0.85391340  1  0.12628  -0.001237  0.102314  0.118886  -0.000699  1.009059  -0.001
H  H77  1  0.48347289  0.74341385  0.14609257  1  0.12619  -0.001237  0.102292  0.118858  -0.000698  1.008954  -0.001
H  H78  1  0.78755201  0.34371868  0.87425254  1  0.139102  -0.002275  0.111964  0.071953  -0.000995  1.068499  -0.002
H  H79  1  0.21244712  0.65627705  0.12575544  1  0.138919  -0.002275  0.111903  0.071882  -0.000995  1.068415  -0.002
C  C80  1  0.52360155  0.43426838  0.33634287  1  -0.020215  -8.9e-05  -0.020021  0.004045  -5.8e-05  3.938389  0.0
C  C81  1  0.47640010  0.56572976  0.66365409  1  -0.020244  -8.9e-05  -0.019972  0.004071  -5.9e-05  3.938231  0.0
C  C82  1  0.46703787  0.32929486  0.31082135  1  -0.072366  -0.000516  -0.016832  0.012092  -0.000419  3.91863  0.0
C  C83  1  0.53296302  0.67070639  0.68917760  1  -0.072313  -0.000516  -0.016883  0.012002  -0.000419  3.918546  0.0
C  C84  1  0.55426707  0.26400278  0.27132097  1  0.006493  -0.00036  -0.019762  0.005671  -0.000262  3.922093  0.0
C  C85  1  0.44574191  0.73599772  0.72867665  1  0.006283  -0.00036  -0.019661  0.005783  -0.000262  3.921642  0.0
C  C86  1  0.69360429  0.30455552  0.25319735  1  -0.035383  -0.000171  -0.017321  0.011591  -0.000118  3.926701  0.0
C  C87  1  0.30639582  0.69544884  0.74680222  1  -0.034859  -0.000171  -0.017404  0.011524  -0.000118  3.926257  0.0
C  C88  1  0.74565311  0.41095928  0.27460047  1  -0.056454  -3.4e-05  -0.02114  0.003659  -1.2e-05  3.930177  0.0
C  C89  1  0.25434650  0.58904119  0.72539756  1  -0.056901  -3.4e-05  -0.021167  0.003657  -1.2e-05  3.930147  0.0
C  C90  1  0.66201188  0.47546086  0.31765084  1  -0.000484  -0.000194  -0.018259  0.008632  -0.000124  3.911533  0.0
C  C91  1  0.33798432  0.52454038  0.68234797  1  -0.000427  -0.000194  -0.018268  0.008626  -0.000124  3.911664  0.0
C  C92  1  0.31469499  0.28603216  0.32697551  1  -0.001742  -0.000563  -0.166752  -0.144652  -0.000642  3.981922  0.0
C  C93  1  0.68530892  0.71396520  0.67302251  1  -0.00176  -0.000563  -0.166757  -0.144559  -0.000642  3.98191  0.0
C  C94  1  0.34060546  0.23075286  0.42056218  1  -0.044889  -0.000127  -0.245512  -0.357581  -2.8e-05  3.95257  0.0
C  C95  1  0.65939659  0.76924840  0.57943562  1  -0.044809  -0.000127  -0.245532  -0.357691  -2.8e-05  3.952405  0.0
C  C96  1  0.78808519  0.23223609  0.21380355  1  0.009175  4.4e-05  -0.169584  -0.151763  3e-05  3.973463  0.0
C  C97  1  0.21191913  0.76776438  0.78619597  1  0.009097  4.4e-05  -0.169634  -0.151875  3e-05  3.973849  0.0
C  C98  1  0.90791003  0.18211961  0.29367935  1  -0.054232  -0.00019  -0.243897  -0.347658  -0.000185  3.943366  0.0
C  C99  1  0.09209186  0.81788007  0.70632176  1  -0.054632  -0.00019  -0.243836  -0.347538  -0.000186  3.943414  0.0
C  C100  1  0.72456802  0.58766065  0.34809657  1  0.015583  -2.2e-05  -0.167263  -0.148182  -4.9e-05  3.978342  0.0
C  C101  1  0.27542800  0.41233902  0.65190285  1  0.015502  -2.3e-05  -0.167258  -0.148157  -4.9e-05  3.978462  0.0
C  C102  1  0.84052492  0.59560740  0.44834437  1  -0.098072  -2.1e-05  -0.247638  -0.352006  -8e-06  3.936305  0.0
C  C103  1  0.15947735  0.40439540  0.55165621  1  -0.097986  -2.1e-05  -0.247616  -0.351964  -8e-06  3.936162  0.0
C  C104  1  0.43121691  0.50537441  0.37853532  1  -0.010476  -4e-06  -0.16607  -0.189378  1.2e-05  3.98889  0.0
C  C105  1  0.56877873  0.49462214  0.62146531  1  -0.010257  -4e-06  -0.166114  -0.189462  1.2e-05  3.988893  0.0
C  C106  1  0.31762278  0.56270168  0.30160069  1  -0.01527  7.1e-05  -0.160607  -0.233473  8.2e-05  3.944695  0.0
C  C107  1  0.68237419  0.43729644  0.69839750  1  -0.015349  7.1e-05  -0.160554  -0.233417  8.2e-05  3.944697  0.0
C  C108  1  0.23235520  0.64549427  0.33506529  1  0.526638  -5.2e-05  0.115115  0.254581  -3.3e-05  3.952216  0.0
C  C109  1  0.76764186  0.35450464  0.66493158  1  0.526775  -5.2e-05  0.115057  0.254593  -3.3e-05  3.952191  0.0
C  C110  1  0.25956649  0.67463990  0.43084961  1  -0.087213  -7e-06  -0.092344  -0.186119  1e-05  3.941465  0.0
C  C111  1  0.74043215  0.32536212  0.56914828  1  -0.087287  -7e-06  -0.092306  -0.186034  1e-05  3.94142  0.0
C  C112  1  0.18164060  0.75595138  0.45537009  1  -0.102846  -2.7e-05  -0.072225  -0.026347  1e-05  4.000278  0.0
C  C113  1  0.81835637  0.24404674  0.54462810  1  -0.102869  -2.7e-05  -0.07228  -0.02648  1e-05  4.000317  0.0
C  C114  1  0.07512358  0.80436946  0.38366660  1  -0.034061  -0.000104  -0.094672  -0.152594  -0.000122  4.014244  0.0
C  C115  1  0.92486958  0.19562632  0.61633019  1  -0.034043  -0.000104  -0.094722  -0.152574  -0.000122  4.014284  0.0
C  C116  1  0.05116187  0.76826889  0.29013398  1  0.520469  -0.000412  0.039483  0.093076  -0.000337  4.011927  0.0
C  C117  1  0.94883229  0.23172532  0.70986498  1  0.520359  -0.000413  0.039483  0.093097  -0.000337  4.012002  0.0
C  C118  1  0.48901433  0.15296690  0.23925668  1  -0.07144  0.000128  -0.162975  -0.1824  0.000173  3.93524  0.0
C  C119  1  0.51098999  0.84703356  0.76074419  1  -0.071096  0.000127  -0.162985  -0.182438  0.000173  3.935249  0.0
C  C120  1  0.38644196  0.14838639  0.13433508  1  -0.026839  -0.005037  -0.159804  -0.233178  -0.003285  3.92764  -0.004
C  C121  1  0.61356100  0.85161251  0.86566552  1  -0.026728  -0.005037  -0.159793  -0.233089  -0.003285  3.927768  -0.004
C  C122  1  0.28136769  0.04967582  0.10561463  1  0.454041  0.000358  0.125298  0.273407  0.0004  3.914844  0.0
C  C123  1  0.71863877  0.95032309  0.89438522  1  0.454001  0.000357  0.12535  0.273463  0.000399  3.914886  0.0
C  C124  1  0.14829681  0.03256956  0.13697068  1  -0.029566  -0.006591  -0.083142  -0.172998  -0.00478  3.933149  -0.005
C  C125  1  0.85170389  0.96743012  0.86302887  1  -0.029526  -0.00659  -0.08318  -0.173084  -0.004779  3.933324  -0.005
C  C126  1  0.04902961  0.94174519  0.10929951  1  -0.018034  0.003477  -0.06825  -0.018554  0.00332  3.963701  0.002
C  C127  1  0.95097321  0.05825295  0.89069766  1  -0.018124  0.003478  -0.068247  -0.018485  0.00332  3.963591  0.002
C  C128  1  0.08624971  0.86735576  0.05080600  1  -0.005382  -0.00624  -0.084531  -0.118838  -0.004521  3.95308  -0.005
C  C129  1  0.91375256  0.13264704  0.94919390  1  -0.005383  -0.00624  -0.08456  -0.118944  -0.004521  3.953025  -0.005
C  C130  1  0.21887865  0.88887205  0.02115230  1  0.430967  0.000774  0.041404  0.087415  0.000748  3.94689  0.001
C  C131  1  0.78112781  0.11112687  0.97884687  1  0.430974  0.000774  0.041406  0.087453  0.000747  3.946839  0.001
C  C132  1  0.87983406  0.46001793  0.24258657  1  -0.009957  0.00019  -0.160185  -0.178348  0.000193  3.914917  0.0
C  C133  1  0.12016958  0.53998643  0.75741497  1  -0.00993  0.00019  -0.160184  -0.178391  0.000193  3.915066  0.0
C  C134  1  0.81822790  0.51781384  0.14945584  1  -0.025813  -0.001506  -0.158674  -0.231093  -0.000792  3.931157  -0.001
C  C135  1  0.18177076  0.48218817  0.85054545  1  -0.025752  -0.001505  -0.158662  -0.231  -0.000791  3.931249  -0.001
C  C136  1  0.72658796  0.44748881  0.06623417  1  0.47655  0.000146  0.123696  0.26334  8.5e-05  3.902762  0.0
C  C137  1  0.27341433  0.55251398  0.93376844  1  0.476335  0.000146  0.123655  0.263209  8.5e-05  3.902629  0.0
C  C138  1  0.57334546  0.40436292  0.05688973  1  0.005722  -0.006129  -0.077717  -0.157898  -0.004436  3.908435  -0.005
C  C139  1  0.42665082  0.59563827  0.94311722  1  0.005671  -0.006127  -0.077788  -0.157955  -0.004434  3.908661  -0.005
C  C140  1  0.49577457  0.33615663  0.98019499  1  -0.05997  0.003638  -0.069342  -0.026622  0.003416  3.969322  0.002
C  C141  1  0.50422166  0.66384459  0.01980653  1  -0.059945  0.003639  -0.069251  -0.026521  0.003416  3.96929  0.002
C  C142  1  0.57195872  0.31224137  0.91311812  1  -0.085425  -0.006098  -0.087993  -0.136167  -0.004263  3.97736  -0.005
C  C143  1  0.42803736  0.68775826  0.08688740  1  -0.085558  -0.006097  -0.088048  -0.136278  -0.004263  3.977282  -0.005
C  C144  1  0.72237137  0.35918823  0.92468241  1  0.446268  0.001044  0.039827  0.082517  0.000872  3.952322  0.001
C  C145  1  0.27763047  0.64081064  0.07532341  1  0.446162  0.001043  0.039847  0.0826  0.000872  3.952204  0.001
N  N146  1  0.12814353  0.69193381  0.26556297  1  -1.221609  -0.000503  -0.320945  -0.310446  -0.00034  3.30076  0.0
N  N147  1  0.87185169  0.30805963  0.73443480  1  -1.221659  -0.000504  -0.320924  -0.310496  -0.000341  3.300766  0.0
N  N148  1  0.31382096  0.97758235  0.04779226  1  -1.209887  -0.091127  -0.351968  -0.256102  -0.063052  3.617412  -0.08
N  N149  1  0.68618444  0.02241734  0.95220878  1  -1.209895  -0.091124  -0.351995  -0.25618  -0.063051  3.617396  -0.08
N  N150  1  0.79620774  0.42538756  0.99892954  1  -1.214714  -0.091184  -0.354121  -0.258471  -0.063211  3.618288  -0.08
N  N151  1  0.20378706  0.57461130  0.00107574  1  -1.214317  -0.091178  -0.354031  -0.258359  -0.063207  3.617898  -0.08
Cl  Cl152  1  0.65563154  0.93588007  0.13630280  1  -0.612764  -0.151796  -0.330635  -0.508279  -0.100439  1.070078  -0.115
Cl  Cl153  1  0.34437268  0.06411962  0.86369668  1  -0.612744  -0.151787  -0.330652  -0.5083  -0.100433  1.070088  -0.115
Cl  Cl154  1  0.13358451  0.36990665  0.08305043  1  -0.612553  -0.145902  -0.310193  -0.491412  -0.096003  1.110232  -0.114
Cl  Cl155  1  0.86641493  0.63009224  0.91694956  1  -0.612534  -0.145894  -0.310207  -0.491441  -0.095997  1.110237  -0.114
