# generated using pymatgen
data_NaH8C7SNO7
_symmetry_space_group_name_H-M   'P 1'
_cell_length_a   7.07185777
_cell_length_b   12.02279850
_cell_length_c   12.38364402
_cell_angle_alpha   89.99907324
_cell_angle_beta   105.10133951
_cell_angle_gamma   90.00002264
_symmetry_Int_Tables_number   1
_chemical_formula_structural   NaH8C7SNO7
_chemical_formula_sum   'Na4 H32 C28 S4 N4 O28'
_cell_volume   1016.54070290
_cell_formula_units_Z   4
loop_
 _symmetry_equiv_pos_site_id
 _symmetry_equiv_pos_as_xyz
  1  'x, y, z'
loop_
 _atom_site_type_symbol
 _atom_site_label
 _atom_site_symmetry_multiplicity
 _atom_site_fract_x
 _atom_site_fract_y
 _atom_site_fract_z
 _atom_site_occupancy
 _atom_site_hle17_bader_spin_density
 _atom_site_hle17_ddec_charge
 _atom_site_hle17_ddec_spin_density
 _atom_site_hle17_ddec_sum_bond_order
 _atom_site_hle17_magmom
 _atom_site_hse06_10hf_bader_spin_density
 _atom_site_hse06_10hf_ddec_charge
 _atom_site_hse06_10hf_ddec_spin_density
 _atom_site_hse06_10hf_ddec_sum_bond_order
 _atom_site_hse06_10hf_magmom
 _atom_site_hse06_bader_spin_density
 _atom_site_hse06_ddec_charge
 _atom_site_hse06_ddec_spin_density
 _atom_site_hse06_ddec_sum_bond_order
 _atom_site_hse06_magmom
 _atom_site_pbe_bader_spin_density
 _atom_site_pbe_cm5_charge
 _atom_site_pbe_ddec_charge
 _atom_site_pbe_ddec_spin_density
 _atom_site_pbe_ddec_sum_bond_order
 _atom_site_pbe_magmom
Na  Na0  1  0.26434853  0.31716333  0.49601058  1  0  0.91565  0  0.344643  0  0  0.87915  0  0.482712  0  0  0.888255  0  0.462559  0  0  0.661178  0.872374  0  0.49724  0
Na  Na1  1  0.76433311  0.18283776  0.49598944  1  0  0.915641  0  0.34468  0  0  0.879149  0  0.482729  0  0  0.888272  0  0.462568  0  0  0.66116  0.872371  0  0.497257  0
Na  Na2  1  0.73565262  0.68284108  0.50398217  1  0  0.915651  0  0.344657  0  0  0.879169  0  0.482709  0  0  0.888264  0  0.462553  0  0  0.661195  0.872389  0  0.497231  0
Na  Na3  1  0.23565781  0.81715750  0.50399532  1  0  0.915663  0  0.344643  0  0  0.879144  0  0.482735  0  0  0.888266  0  0.462585  0  0  0.661174  0.872367  0  0.497261  0
H  H4  1  0.00936157  0.54813658  0.34392972  1  0  0.14831  0  0.927393  0  0  0.155785  0  0.9913  0  0  0.159502  0  0.98867  0  0  0.123718  0.153038  0  0.993341  0
H  H5  1  0.50935441  0.95186960  0.34393869  1  0  0.148301  0  0.927365  0  0  0.155828  0  0.991271  0  0  0.159549  0  0.988635  0  0  0.123726  0.15308  0  0.993314  0
H  H6  1  0.99064687  0.45186700  0.65607140  1  0  0.148325  0  0.927458  0  0  0.155843  0  0.99129  0  0  0.159561  0  0.98866  0  0  0.123725  0.153094  0  0.993337  0
H  H7  1  0.49064817  0.04813066  0.65606155  1  0  0.148269  0  0.927432  0  0  0.155801  0  0.991306  0  0  0.159524  0  0.988673  0  0  0.123707  0.153052  0  0.993354  0
H  H8  1  0.77053868  0.57337948  0.25197726  1  0  0.147428  0  0.922309  0  0  0.157572  0  0.981794  0  0  0.160473  0  0.979523  0  0  0.119639  0.15546  0  0.983486  0
H  H9  1  0.27054017  0.92662579  0.25198974  1  0  0.147549  0  0.922085  0  0  0.157744  0  0.981574  0  0  0.160652  0  0.979291  0  0  0.11968  0.155631  0  0.983263  0
H  H10  1  0.22946245  0.42662494  0.74802034  1  0  0.147478  0  0.922241  0  0  0.157653  0  0.981699  0  0  0.160557  0  0.979421  0  0  0.119651  0.155538  0  0.98339  0
H  H11  1  0.72946827  0.07337446  0.74801056  1  0  0.147512  0  0.922123  0  0  0.157693  0  0.981612  0  0  0.160603  0  0.979327  0  0  0.119645  0.155579  0  0.983304  0
H  H12  1  0.39631531  0.39620227  0.30507020  1  0  0.399197  0  0.898153  0  0  0.369198  0  0.975311  0  0  0.380808  0  0.962859  0  0  0.30915  0.361043  0  0.983884  0
H  H13  1  0.89630918  0.10381200  0.30506623  1  0  0.399203  0  0.898156  0  0  0.36918  0  0.975341  0  0  0.380787  0  0.962882  0  0  0.309177  0.361026  0  0.983912  0
H  H14  1  0.60368873  0.60380630  0.69493187  1  0  0.399147  0  0.898261  0  0  0.369099  0  0.975481  0  0  0.380707  0  0.963007  0  0  0.309131  0.360945  0  0.984052  0
H  H15  1  0.10369049  0.89619075  0.69492873  1  0  0.399255  0  0.898107  0  0  0.369233  0  0.975274  0  0  0.380839  0  0.962807  0  0  0.309191  0.36108  0  0.983844  0
H  H16  1  0.65861569  0.46997988  0.07474914  1  0  0.129086  0  0.959031  0  0  0.133826  0  1.026436  0  0  0.137624  0  1.02225  0  0  0.114326  0.131029  0  1.029557  0
H  H17  1  0.15863469  0.03000073  0.07474385  1  0  0.129103  0  0.959104  0  0  0.133871  0  1.026483  0  0  0.137668  0  1.022292  0  0  0.114365  0.131076  0  1.029603  0
H  H18  1  0.34136636  0.53000373  0.92525609  1  0  0.129063  0  0.959033  0  0  0.133842  0  1.026419  0  0  0.137641  0  1.022227  0  0  0.114356  0.131047  0  1.029539  0
H  H19  1  0.84136496  0.97000534  0.92525676  1  0  0.129029  0  0.959057  0  0  0.133843  0  1.026396  0  0  0.137642  0  1.0222  0  0  0.114327  0.131047  0  1.029516  0
H  H20  1  0.09286785  0.30260555  0.94756226  1  0  0.112159  0  0.966443  0  0  0.113972  0  1.036117  0  0  0.116634  0  1.034226  0  0  0.110356  0.112046  0  1.037464  0
H  H21  1  0.59285814  0.19739050  0.94755628  1  0  0.112135  0  0.9668  0  0  0.11402  0  1.03636  0  0  0.116681  0  1.034468  0  0  0.110352  0.112086  0  1.03773  0
H  H22  1  0.90714498  0.69739221  0.05243951  1  0  0.11211  0  0.966824  0  0  0.114025  0  1.036359  0  0  0.116687  0  1.034467  0  0  0.110362  0.112089  0  1.037733  0
H  H23  1  0.40714153  0.80260143  0.05244029  1  0  0.112065  0  0.966791  0  0  0.113944  0  1.036369  0  0  0.116605  0  1.034479  0  0  0.110329  0.112002  0  1.037761  0
H  H24  1  0.33336734  0.31784671  0.13581659  1  0  0.133926  0  0.945176  0  0  0.142828  0  1.003915  0  0  0.14621  0  1.003808  0  0  0.112137  0.140416  0  1.004166  0
H  H25  1  0.83333722  0.18216621  0.13580940  1  0  0.133925  0  0.94545  0  0  0.142927  0  1.004005  0  0  0.146293  0  1.003912  0  0  0.112176  0.140504  0  1.004289  0
H  H26  1  0.66666013  0.68216270  0.86419142  1  0  0.133953  0  0.945426  0  0  0.142942  0  1.004001  0  0  0.146275  0  1.003951  0  0  0.112195  0.140519  0  1.004286  0
H  H27  1  0.16665219  0.81783238  0.86418805  1  0  0.133931  0  0.94537  0  0  0.142941  0  1.003927  0  0  0.14628  0  1.00387  0  0  0.112168  0.140518  0  1.00421  0
H  H28  1  0.15747888  0.16796780  0.67269106  1  0  0.41822  0  0.882015  0  0  0.387677  0  0.945564  0  0  0.398085  0  0.929826  0  0  0.291606  0.380328  0  0.956671  0
H  H29  1  0.65749604  0.33203116  0.67269264  1  0  0.418439  0  0.881772  0  0  0.3878  0  0.94549  0  0  0.398209  0  0.929748  0  0  0.29165  0.380453  0  0.956591  0
H  H30  1  0.84251639  0.83203494  0.32730485  1  0  0.418478  0  0.881709  0  0  0.387829  0  0.945443  0  0  0.398238  0  0.929701  0  0  0.291652  0.38048  0  0.956547  0
H  H31  1  0.34250656  0.66797325  0.32730518  1  0  0.418352  0  0.881844  0  0  0.387728  0  0.945537  0  0  0.398136  0  0.929799  0  0  0.291646  0.380379  0  0.956645  0
H  H32  1  0.15219100  0.10218204  0.56220525  1  0  0.423308  0  0.874479  0  0  0.394492  0  0.936695  0  0  0.404385  0  0.921902  0  0  0.29631  0.387454  0  0.947228  0
H  H33  1  0.65219889  0.39782791  0.56221006  1  0  0.423299  0  0.874482  0  0  0.394512  0  0.936666  0  0  0.404403  0  0.921877  0  0  0.296269  0.387468  0  0.947208  0
H  H34  1  0.84780720  0.89782071  0.43779191  1  0  0.423334  0  0.874453  0  0  0.394555  0  0.936612  0  0  0.404449  0  0.921818  0  0  0.2963  0.387514  0  0.94715  0
H  H35  1  0.34780518  0.60217650  0.43778556  1  0  0.423295  0  0.874504  0  0  0.394512  0  0.936667  0  0  0.404402  0  0.921879  0  0  0.296292  0.387474  0  0.947199  0
C  C36  1  0.88247410  0.51008696  0.28515941  1  0  -0.33797  0  3.631734  0  0  -0.378114  0  3.878042  0  0  -0.382329  0  3.885226  0  0  -0.144274  -0.374972  0  3.873168  0
C  C37  1  0.38247516  0.98991778  0.28516761  1  0  -0.337974  0  3.631562  0  0  -0.378391  0  3.878225  0  0  -0.38261  0  3.885406  0  0  -0.144258  -0.375241  0  3.873341  0
C  C38  1  0.11752263  0.48991579  0.71483914  1  0  -0.338047  0  3.631808  0  0  -0.378246  0  3.878146  0  0  -0.382467  0  3.885337  0  0  -0.144266  -0.375098  0  3.873269  0
C  C39  1  0.61752596  0.01008413  0.71483241  1  0  -0.337872  0  3.631585  0  0  -0.378216  0  3.878116  0  0  -0.382439  0  3.885306  0  0  -0.144184  -0.375068  0  3.873235  0
C  C40  1  0.12982167  0.40346257  0.21002216  1  0  0.347724  0  3.732041  0  0  0.323246  0  4.005106  0  0  0.3401  0  4.017885  0  0  0.1109  0.311832  0  3.9963  0
C  C41  1  0.62981702  0.09653326  0.21002821  1  0  0.347814  0  3.731515  0  0  0.323425  0  4.00447  0  0  0.340275  0  4.017243  0  0  0.110995  0.312008  0  3.995667  0
C  C42  1  0.87018092  0.59653019  0.78997485  1  0  0.347899  0  3.731379  0  0  0.323431  0  4.004426  0  0  0.340286  0  4.017189  0  0  0.110965  0.312016  0  3.995622  0
C  C43  1  0.37018115  0.90346450  0.78997540  1  0  0.347941  0  3.731559  0  0  0.323525  0  4.004546  0  0  0.340377  0  4.017311  0  0  0.111018  0.312109  0  3.995739  0
C  C44  1  0.93842685  0.44831010  0.19322087  1  0  0.019435  0  3.71349  0  0  0.036015  0  3.95574  0  0  0.02826  0  3.98146  0  0  -0.0161  0.040852  0  3.938532  0
C  C45  1  0.43842078  0.05168608  0.19321793  1  0  0.019188  0  3.713623  0  0  0.035799  0  3.95592  0  0  0.028036  0  3.981647  0  0  -0.016186  0.040638  0  3.938712  0
C  C46  1  0.06158011  0.55168683  0.80678406  1  0  0.019305  0  3.713405  0  0  0.03587  0  3.955732  0  0  0.028112  0  3.981459  0  0  -0.016165  0.040709  0  3.938527  0
C  C47  1  0.56158329  0.94831168  0.80677849  1  0  0.01924  0  3.71355  0  0  0.035827  0  3.955862  0  0  0.028068  0  3.981591  0  0  -0.016179  0.040665  0  3.938653  0
C  C48  1  0.80570952  0.43612909  0.08933239  1  0  -0.110443  0  3.689811  0  0  -0.145121  0  3.948286  0  0  -0.140495  0  3.966351  0  0  -0.072522  -0.147731  0  3.935899  0
C  C49  1  0.30570629  0.06385797  0.08932969  1  0  -0.110296  0  3.689788  0  0  -0.145001  0  3.948282  0  0  -0.140365  0  3.966339  0  0  -0.072558  -0.147616  0  3.935903  0
C  C50  1  0.19429305  0.56386367  0.91067269  1  0  -0.110248  0  3.689594  0  0  -0.144947  0  3.948124  0  0  -0.140315  0  3.96618  0  0  -0.072518  -0.14756  0  3.935742  0
C  C51  1  0.69429044  0.93614062  0.91067128  1  0  -0.110362  0  3.689839  0  0  -0.145102  0  3.948338  0  0  -0.140469  0  3.966401  0  0  -0.072568  -0.147713  0  3.93595  0
C  C52  1  0.86276568  0.38247759  0.00250676  1  0  0.031122  0  3.767015  0  0  0.020091  0  4.032041  0  0  0.010747  0  4.058616  0  0  0.064817  0.025958  0  4.014127  0
C  C53  1  0.36276354  0.11751343  0.00250177  1  0  0.031028  0  3.767034  0  0  0.019916  0  4.032205  0  0  0.010564  0  4.058784  0  0  0.064836  0.025789  0  4.014287  0
C  C54  1  0.13723397  0.61751768  0.99749627  1  0  0.031059  0  3.767057  0  0  0.019876  0  4.032341  0  0  0.010525  0  4.058925  0  0  0.064813  0.025752  0  4.014416  0
C  C55  1  0.63722878  0.88248516  0.99749855  1  0  0.031068  0  3.767017  0  0  0.019934  0  4.03222  0  0  0.010582  0  4.058809  0  0  0.064856  0.02581  0  4.014294  0
C  C56  1  0.05263776  0.34008041  0.01808745  1  0  -0.067482  0  3.75483  0  0  -0.094434  0  4.020459  0  0  -0.08969  0  4.039836  0  0  -0.080609  -0.097128  0  4.007129  0
C  C57  1  0.55264154  0.15991277  0.01806713  1  0  -0.067382  0  3.754847  0  0  -0.094352  0  4.020469  0  0  -0.089601  0  4.039824  0  0  -0.080634  -0.09705  0  4.007141  0
C  C58  1  0.94735745  0.65991485  0.98192702  1  0  -0.067385  0  3.754922  0  0  -0.094379  0  4.020578  0  0  -0.08963  0  4.03993  0  0  -0.080637  -0.097075  0  4.007242  0
C  C59  1  0.44735814  0.84008333  0.98192541  1  0  -0.067289  0  3.755088  0  0  -0.094255  0  4.020733  0  0  -0.089502  0  4.040082  0  0  -0.080651  -0.096955  0  4.007391  0
C  C60  1  0.18478822  0.34967467  0.12148645  1  0  -0.184462  0  3.700131  0  0  -0.207145  0  3.963448  0  0  -0.217148  0  3.983763  0  0  -0.098447  -0.2007  0  3.949919  0
C  C61  1  0.68478472  0.15032430  0.12147326  1  0  -0.184518  0  3.69975  0  0  -0.207338  0  3.963137  0  0  -0.217324  0  3.983468  0  0  -0.098435  -0.200892  0  3.949603  0
C  C62  1  0.81521141  0.65032225  0.87852384  1  0  -0.184546  0  3.699832  0  0  -0.207325  0  3.963258  0  0  -0.217284  0  3.983596  0  0  -0.098438  -0.200878  0  3.949719  0
C  C63  1  0.31521642  0.84967179  0.87852192  1  0  -0.184568  0  3.699934  0  0  -0.207406  0  3.963356  0  0  -0.217373  0  3.983694  0  0  -0.098422  -0.200956  0  3.949815  0
S  S64  1  0.77457860  0.42028020  0.36934602  1  0  1.365464  0  5.562625  0  0  1.277525  0  6.083757  0  0  1.322008  0  6.061578  0  0  0.516473  1.246721  0  6.098243  0
S  S65  1  0.27457086  0.07972715  0.36934401  1  0  1.365973  0  5.562063  0  0  1.278073  0  6.083199  0  0  1.322562  0  6.060999  0  0  0.516795  1.24727  0  6.097685  0
S  S66  1  0.22541959  0.57972338  0.63065436  1  0  1.365673  0  5.562358  0  0  1.277687  0  6.083522  0  0  1.322171  0  6.061342  0  0  0.516608  1.246884  0  6.098006  0
S  S67  1  0.72542587  0.92027144  0.63065535  1  0  1.365892  0  5.562166  0  0  1.27797  0  6.083316  0  0  1.322454  0  6.061116  0  0  0.516775  1.247165  0  6.097799  0
N  N68  1  0.72671246  0.37262137  0.89453053  1  0  0.490731  0  3.918321  0  0  0.516955  0  4.221071  0  0  0.539102  0  4.230317  0  0  0.04094  0.502216  0  4.214758  0
N  N69  1  0.22671609  0.12738224  0.89453432  1  0  0.490727  0  3.917842  0  0  0.516986  0  4.220597  0  0  0.539129  0  4.229848  0  0  0.040961  0.502247  0  4.214279  0
N  N70  1  0.27327695  0.62737555  0.10546693  1  0  0.490587  0  3.917992  0  0  0.516856  0  4.220762  0  0  0.538999  0  4.230015  0  0  0.040963  0.50212  0  4.214437  0
N  N71  1  0.77328502  0.87261968  0.10546893  1  0  0.490692  0  3.918011  0  0  0.51692  0  4.2208  0  0  0.539063  0  4.230051  0  0  0.040987  0.50218  0  4.214481  0
O  O72  1  0.91963624  0.33500765  0.41914168  1  0  -0.752625  0  1.974021  0  0  -0.711895  0  2.245143  0  0  -0.73076  0  2.229078  0  0  -0.435711  -0.698597  0  2.255864  0
O  O73  1  0.41962937  0.16499892  0.41913685  1  0  -0.752783  0  1.973839  0  0  -0.712126  0  2.245101  0  0  -0.730939  0  2.228934  0  0  -0.435803  -0.698829  0  2.255823  0
O  O74  1  0.08035904  0.66499593  0.58085423  1  0  -0.752659  0  1.973892  0  0  -0.711975  0  2.245131  0  0  -0.730828  0  2.229046  0  0  -0.435711  -0.698673  0  2.25585  0
O  O75  1  0.58037029  0.83499884  0.58085972  1  0  -0.752773  0  1.973876  0  0  -0.712088  0  2.245101  0  0  -0.730921  0  2.228986  0  0  -0.435761  -0.698786  0  2.255818  0
O  O76  1  0.72298274  0.49318183  0.45309169  1  0  -0.734063  0  1.968473  0  0  -0.682878  0  2.225815  0  0  -0.702624  0  2.20957  0  0  -0.392688  -0.668906  0  2.236609  0
O  O77  1  0.22296673  0.00682329  0.45308474  1  0  -0.734213  0  1.968335  0  0  -0.682988  0  2.22559  0  0  -0.702816  0  2.209502  0  0  -0.392803  -0.669022  0  2.236388  0
O  O78  1  0.27701397  0.50681842  0.54691332  1  0  -0.73409  0  1.968409  0  0  -0.682923  0  2.225812  0  0  -0.702703  0  2.209637  0  0  -0.392738  -0.668956  0  2.236609  0
O  O79  1  0.77702853  0.99317530  0.54691278  1  0  -0.734198  0  1.968296  0  0  -0.683021  0  2.225589  0  0  -0.70285  0  2.209504  0  0  -0.392825  -0.669052  0  2.236387  0
O  O80  1  0.60008872  0.36939084  0.29240856  1  0  -0.678726  0  1.996041  0  0  -0.620771  0  2.242053  0  0  -0.642229  0  2.229864  0  0  -0.332799  -0.605598  0  2.24993  0
O  O81  1  0.10008066  0.13061443  0.29239601  1  0  -0.678897  0  1.995796  0  0  -0.620885  0  2.24175  0  0  -0.642336  0  2.229548  0  0  -0.332917  -0.605707  0  2.24962  0
O  O82  1  0.39990945  0.63061607  0.70759667  1  0  -0.678841  0  1.9959  0  0  -0.620782  0  2.24183  0  0  -0.64223  0  2.229624  0  0  -0.33291  -0.605616  0  2.249731  0
O  O83  1  0.89991901  0.86938416  0.70760136  1  0  -0.678863  0  1.995847  0  0  -0.620842  0  2.241801  0  0  -0.642285  0  2.229595  0  0  -0.332912  -0.605677  0  2.249706  0
O  O84  1  0.25768308  0.41669329  0.30996998  1  0  -0.524936  0  2.143476  0  0  -0.476808  0  2.372146  0  0  -0.497988  0  2.362623  0  0  -0.350872  -0.461655  0  2.37815  0
O  O85  1  0.75768001  0.08331505  0.30997002  1  0  -0.524868  0  2.143631  0  0  -0.476718  0  2.372226  0  0  -0.497874  0  2.362686  0  0  -0.350884  -0.461568  0  2.37823  0
O  O86  1  0.74231365  0.58331279  0.69002857  1  0  -0.524922  0  2.143565  0  0  -0.476751  0  2.372254  0  0  -0.497921  0  2.362705  0  0  -0.35086  -0.461597  0  2.378255  0
O  O87  1  0.24232551  0.91668437  0.69002904  1  0  -0.524995  0  2.143553  0  0  -0.476835  0  2.372168  0  0  -0.497991  0  2.36262  0  0  -0.35093  -0.461682  0  2.378172  0
O  O88  1  0.55904648  0.41247743  0.87854470  1  0  -0.377855  0  1.775586  0  0  -0.353882  0  1.992202  0  0  -0.364046  0  1.986692  0  0  -0.132924  -0.347149  0  1.996168  0
O  O89  1  0.05903283  0.08751726  0.87854006  1  0  -0.377975  0  1.775289  0  0  -0.353934  0  1.99182  0  0  -0.364097  0  1.986309  0  0  -0.132968  -0.347199  0  1.995785  0
O  O90  1  0.44096930  0.58753114  0.12145267  1  0  -0.377893  0  1.77531  0  0  -0.353855  0  1.991799  0  0  -0.364019  0  1.986291  0  0  -0.133005  -0.34712  0  1.995764  0
O  O91  1  0.94096391  0.91247052  0.12145445  1  0  -0.377831  0  1.775447  0  0  -0.353796  0  1.991987  0  0  -0.363961  0  1.986478  0  0  -0.132921  -0.347061  0  1.995952  0
O  O92  1  0.78284127  0.32220196  0.81913606  1  0  -0.406404  0  1.777546  0  0  -0.372187  0  1.983187  0  0  -0.38492  0  1.976743  0  0  -0.140105  -0.363746  0  1.987767  0
O  O93  1  0.28284314  0.17780375  0.81912183  1  0  -0.406441  0  1.777093  0  0  -0.372297  0  1.982714  0  0  -0.385023  0  1.97626  0  0  -0.140195  -0.363863  0  1.987319  0
O  O94  1  0.21714662  0.67778914  0.18087651  1  0  -0.406336  0  1.777238  0  0  -0.372119  0  1.982833  0  0  -0.384844  0  1.976383  0  0  -0.14013  -0.363688  0  1.987444  0
O  O95  1  0.71714919  0.82221397  0.18087768  1  0  -0.406518  0  1.777312  0  0  -0.372287  0  1.982956  0  0  -0.385013  0  1.976503  0  0  -0.140244  -0.36385  0  1.987561  0
O  O96  1  0.11790349  0.17396293  0.59036485  1  0  -0.906806  0  1.769509  0  0  -0.865082  0  1.931711  0  0  -0.87995  0  1.898659  0  0  -0.674503  -0.85455  0  1.954918  0
O  O97  1  0.61791481  0.32603656  0.59037291  1  0  -0.906995  0  1.769228  0  0  -0.865246  0  1.93143  0  0  -0.880128  0  1.898377  0  0  -0.674486  -0.85471  0  1.954639  0
O  O98  1  0.88209472  0.82603649  0.40962908  1  0  -0.907083  0  1.769217  0  0  -0.865338  0  1.931459  0  0  -0.880203  0  1.898402  0  0  -0.674548  -0.854802  0  1.954673  0
O  O99  1  0.38208923  0.67396203  0.40963158  1  0  -0.906918  0  1.769362  0  0  -0.865174  0  1.931593  0  0  -0.880049  0  1.898537  0  0  -0.67452  -0.854642  0  1.954797  0
