# generated using pymatgen
data_CdH32C46S2(N5O4)2
_symmetry_space_group_name_H-M   'P 1'
_cell_length_a   6.81905359
_cell_length_b   10.83070894
_cell_length_c   15.66056510
_cell_angle_alpha   98.73240273
_cell_angle_beta   102.46857033
_cell_angle_gamma   95.73933993
_symmetry_Int_Tables_number   1
_chemical_formula_structural   CdH32C46S2(N5O4)2
_chemical_formula_sum   'Cd1 H32 C46 S2 N10 O8'
_cell_volume   1105.62836457
_cell_formula_units_Z   1
loop_
 _symmetry_equiv_pos_site_id
 _symmetry_equiv_pos_as_xyz
  1  'x, y, z'
loop_
 _atom_site_type_symbol
 _atom_site_label
 _atom_site_symmetry_multiplicity
 _atom_site_fract_x
 _atom_site_fract_y
 _atom_site_fract_z
 _atom_site_occupancy
 _atom_site_hle17_bader_spin_density
 _atom_site_hle17_ddec_charge
 _atom_site_hle17_ddec_spin_density
 _atom_site_hle17_ddec_sum_bond_order
 _atom_site_hle17_magmom
 _atom_site_hse06_10hf_bader_spin_density
 _atom_site_hse06_10hf_ddec_charge
 _atom_site_hse06_10hf_ddec_spin_density
 _atom_site_hse06_10hf_ddec_sum_bond_order
 _atom_site_hse06_10hf_magmom
 _atom_site_hse06_bader_spin_density
 _atom_site_hse06_ddec_charge
 _atom_site_hse06_ddec_spin_density
 _atom_site_hse06_ddec_sum_bond_order
 _atom_site_hse06_magmom
 _atom_site_pbe_bader_spin_density
 _atom_site_pbe_cm5_charge
 _atom_site_pbe_ddec_charge
 _atom_site_pbe_ddec_spin_density
 _atom_site_pbe_ddec_sum_bond_order
 _atom_site_pbe_magmom
Cd  Cd0  1  0.49999903  0.99999944  0.49999927  1  0  1.008158  0  1.919653  0  0  0.793705  0  2.392618  0  0  0.843381  0  2.35289  0  0  0.800597  0.759156  0  2.419464  0
H  H1  1  0.70330906  0.28359541  0.59886602  1  0  0.077753  0  0.942567  0  0  0.084271  0  1.010612  0  0  0.086343  0  1.009062  0  0  0.11448  0.082766  0  1.011731  0
H  H2  1  0.29668234  0.71640204  0.40113191  1  0  0.077791  0  0.94258  0  0  0.084303  0  1.01062  0  0  0.086377  0  1.009069  0  0  0.114497  0.082799  0  1.01174  0
H  H3  1  0.80377096  0.49809312  0.57068892  1  0  0.124509  0  0.957916  0  0  0.133911  0  1.014032  0  0  0.137847  0  1.012037  0  0  0.111879  0.131136  0  1.015595  0
H  H4  1  0.19622091  0.50190624  0.42931244  1  0  0.124538  0  0.957891  0  0  0.13391  0  1.014033  0  0  0.137846  0  1.012038  0  0  0.111881  0.131136  0  1.015597  0
H  H5  1  0.78211679  0.52808566  0.41125044  1  0  0.106917  0  0.976426  0  0  0.113339  0  1.044342  0  0  0.116343  0  1.04271  0  0  0.102385  0.111183  0  1.045545  0
H  H6  1  0.21787767  0.47191841  0.58875165  1  0  0.106879  0  0.976481  0  0  0.113338  0  1.04437  0  0  0.116346  0  1.042724  0  0  0.102385  0.111179  0  1.045582  0
H  H7  1  0.57382042  0.12925171  0.33043861  1  0  0.094566  0  0.939657  0  0  0.100051  0  1.009143  0  0  0.102788  0  1.006639  0  0  0.119113  0.098243  0  1.010643  0
H  H8  1  0.42618664  0.87074852  0.66956105  1  0  0.094543  0  0.939677  0  0  0.100035  0  1.009155  0  0  0.102771  0  1.006652  0  0  0.119112  0.098227  0  1.010653  0
H  H9  1  0.77075885  0.51314551  0.14183924  1  0  0.11364  0  0.92169  0  0  0.123649  0  0.981118  0  0  0.126076  0  0.98001  0  0  0.110071  0.121903  0  0.982049  0
H  H10  1  0.22924330  0.48685287  0.85816297  1  0  0.113673  0  0.921563  0  0  0.123693  0  0.980992  0  0  0.126111  0  0.979893  0  0  0.110122  0.121947  0  0.981922  0
H  H11  1  0.43198396  0.40236268  0.09412025  1  0  0.096084  0  0.909189  0  0  0.107994  0  0.966552  0  0  0.109843  0  0.965881  0  0  0.110532  0.106652  0  0.967141  0
H  H12  1  0.56801840  0.59763664  0.90588080  1  0  0.096066  0  0.909326  0  0  0.107969  0  0.966699  0  0  0.10982  0  0.966027  0  0  0.110535  0.106629  0  0.967285  0
H  H13  1  0.05446715  0.39799753  0.11082638  1  0  0.074679  0  0.910781  0  0  0.085453  0  0.969188  0  0  0.087466  0  0.968113  0  0  0.10466  0.083956  0  0.970135  0
H  H14  1  0.94553393  0.60200273  0.88917465  1  0  0.074668  0  0.910761  0  0  0.085457  0  0.969195  0  0  0.08747  0  0.96812  0  0  0.104654  0.08396  0  0.970141  0
H  H15  1  0.02069609  0.17246325  0.12473486  1  0  0.114027  0  0.977936  0  0  0.121171  0  1.044102  0  0  0.125146  0  1.041909  0  0  0.099731  0.118338  0  1.045749  0
H  H16  1  0.97930820  0.82753794  0.87526657  1  0  0.114031  0  0.977934  0  0  0.121137  0  1.04414  0  0  0.125112  0  1.041948  0  0  0.099743  0.118304  0  1.045787  0
H  H17  1  0.65617271  0.05159726  0.07906192  1  0  0.107241  0  0.990252  0  0  0.116545  0  1.054235  0  0  0.119791  0  1.052952  0  0  0.099787  0.114219  0  1.055282  0
H  H18  1  0.34383115  0.94840204  0.92093863  1  0  0.107235  0  0.990237  0  0  0.116554  0  1.054206  0  0  0.119797  0  1.052923  0  0  0.099787  0.114228  0  1.055253  0
H  H19  1  0.38021203  0.17506111  0.02268901  1  0  0.077948  0  0.906617  0  0  0.089009  0  0.963837  0  0  0.091098  0  0.962687  0  0  0.10635  0.087495  0  0.964737  0
H  H20  1  0.61978883  0.82493821  0.97731191  1  0  0.077918  0  0.906629  0  0  0.088964  0  0.963857  0  0  0.091061  0  0.962696  0  0  0.106343  0.08745  0  0.964755  0
H  H21  1  0.80298474  0.45987058  0.98745156  1  0  0.099753  0  0.935004  0  0  0.106368  0  1.002396  0  0  0.109333  0  1.000408  0  0  0.108538  0.104196  0  1.003941  0
H  H22  1  0.19702061  0.54012872  0.01254849  1  0  0.099714  0  0.935058  0  0  0.10635  0  1.002422  0  0  0.109317  0  1.00043  0  0  0.108534  0.10418  0  1.003964  0
H  H23  1  0.46880192  0.33953768  0.93702722  1  0  0.112866  0  0.909504  0  0  0.123035  0  0.968106  0  0  0.125308  0  0.96714  0  0  0.114574  0.121395  0  0.968895  0
H  H24  1  0.53120110  0.66046447  0.06297483  1  0  0.112859  0  0.909536  0  0  0.123034  0  0.968129  0  0  0.125308  0  0.967166  0  0  0.114567  0.121395  0  0.968919  0
H  H25  1  0.11891361  0.07936027  0.87101482  1  0  0.108722  0  0.947964  0  0  0.118297  0  1.011174  0  0  0.121236  0  1.008364  0  0  0.112674  0.116117  0  1.013259  0
H  H26  1  0.88108444  0.92064659  0.12898151  1  0  0.108715  0  0.947907  0  0  0.118329  0  1.011082  0  0  0.121264  0  1.008271  0  0  0.112672  0.116149  0  1.013167  0
H  H27  1  0.17814048  0.94160980  0.73881096  1  0  0.105432  0  0.951597  0  0  0.113996  0  1.013721  0  0  0.116588  0  1.013792  0  0  0.109037  0.112147  0  1.013844  0
H  H28  1  0.82185974  0.05839989  0.26118714  1  0  0.105377  0  0.951592  0  0  0.113908  0  1.013747  0  0  0.1165  0  1.013817  0  0  0.109013  0.112061  0  1.013866  0
H  H29  1  0.92494082  0.91710429  0.59143324  1  0  0.09303  0  0.936079  0  0  0.099252  0  0.99966  0  0  0.102022  0  0.997465  0  0  0.118183  0.097161  0  1.001455  0
H  H30  1  0.07505767  0.08289786  0.40856519  1  0  0.092963  0  0.936159  0  0  0.099205  0  0.999725  0  0  0.101975  0  0.997532  0  0  0.118171  0.097113  0  1.001519  0
H  H31  1  0.56998390  0.15351840  0.70272334  1  0  0.084128  0  0.995178  0  0  0.087986  0  1.06839  0  0  0.089872  0  1.067193  0  0  0.11217  0.08654  0  1.069348  0
H  H32  1  0.43000751  0.84647906  0.29727523  1  0  0.084118  0  0.995186  0  0  0.087935  0  1.068442  0  0  0.08982  0  1.067248  0  0  0.112166  0.086492  0  1.069393  0
C  C33  1  0.69726296  0.29962071  0.53137410  1  0  0.138976  0  3.692428  0  0  0.105046  0  3.945082  0  0  0.111579  0  3.964676  0  0  0.052698  0.10084  0  3.931662  0
C  C34  1  0.30274239  0.70037858  0.46862531  1  0  0.138895  0  3.692462  0  0  0.104975  0  3.94508  0  0  0.111509  0  3.964671  0  0  0.052701  0.100769  0  3.931664  0
C  C35  1  0.75279562  0.41963165  0.51516955  1  0  -0.105266  0  3.717813  0  0  -0.113994  0  3.963338  0  0  -0.121522  0  3.985301  0  0  -0.078119  -0.109064  0  3.948539  0
C  C36  1  0.24720051  0.58036673  0.48483019  1  0  -0.105269  0  3.717768  0  0  -0.113952  0  3.963273  0  0  -0.121481  0  3.985239  0  0  -0.078123  -0.109022  0  3.948473  0
C  C37  1  0.74387654  0.43582280  0.42801207  1  0  -0.071132  0  3.679863  0  0  -0.09676  0  3.926073  0  0  -0.094842  0  3.943925  0  0  -0.061168  -0.097933  0  3.914252  0
C  C38  1  0.25611597  0.56417938  0.57198837  1  0  -0.071095  0  3.67985  0  0  -0.096769  0  3.926083  0  0  -0.09485  0  3.94394  0  0  -0.061148  -0.097941  0  3.914254  0
C  C39  1  0.68108251  0.33005438  0.36052693  1  0  0.161673  0  3.772096  0  0  0.158136  0  4.020529  0  0  0.159896  0  4.042602  0  0  0.099187  0.156505  0  4.005865  0
C  C40  1  0.31891343  0.66994968  0.63947338  1  0  0.161601  0  3.771996  0  0  0.158021  0  4.020533  0  0  0.159782  0  4.042605  0  0  0.099129  0.156392  0  4.005866  0
C  C41  1  0.62651176  0.21292208  0.38189078  1  0  0.057097  0  3.680091  0  0  0.018979  0  3.934516  0  0  0.025194  0  3.950488  0  0  0.052301  0.015005  0  3.923599  0
C  C42  1  0.37348974  0.78708006  0.61810921  1  0  0.057152  0  3.68015  0  0  0.019039  0  3.934584  0  0  0.025256  0  3.950553  0  0  0.052297  0.015066  0  3.923666  0
C  C43  1  0.83585095  0.40245138  0.24342353  1  0  0.54452  0  3.742807  0  0  0.497437  0  4.041083  0  0  0.524611  0  4.041003  0  0  0.252265  0.478811  0  4.041081  0
C  C44  1  0.16415247  0.59754604  0.75657679  1  0  0.544635  0  3.742652  0  0  0.497526  0  4.040967  0  0  0.524695  0  4.040889  0  0  0.252394  0.478904  0  4.040962  0
C  C45  1  0.76317432  0.41250938  0.14644686  1  0  -0.158751  0  3.610367  0  0  -0.171217  0  3.849496  0  0  -0.175911  0  3.862429  0  0  -0.079741  -0.167868  0  3.840501  0
C  C46  1  0.23682910  0.58748803  0.85355345  1  0  -0.158685  0  3.609912  0  0  -0.171144  0  3.849149  0  0  -0.175826  0  3.862079  0  0  -0.079753  -0.167796  0  3.840154  0
C  C47  1  0.54558014  0.34207140  0.11739916  1  0  -0.142195  0  3.606003  0  0  -0.156585  0  3.851795  0  0  -0.160552  0  3.864231  0  0  -0.076235  -0.153753  0  3.842994  0
C  C48  1  0.45442373  0.65792791  0.88260267  1  0  -0.142174  0  3.605921  0  0  -0.156551  0  3.8517  0  0  -0.160527  0  3.864145  0  0  -0.076219  -0.153723  0  3.842901  0
C  C49  1  0.50148307  0.29963008  0.20049803  1  0  0.541372  0  3.734481  0  0  0.49457  0  4.030924  0  0  0.521956  0  4.031006  0  0  0.257296  0.475998  0  4.030432  0
C  C50  1  0.49852251  0.70037017  0.79950342  1  0  0.541399  0  3.734347  0  0  0.494556  0  4.030849  0  0  0.521942  0  4.030933  0  0  0.257335  0.475985  0  4.030356  0
C  C51  1  0.89853550  0.34934666  0.08966413  1  0  0.026625  0  3.604437  0  0  0.016996  0  3.841523  0  0  0.017486  0  3.856673  0  0  -0.073914  0.016755  0  3.831159  0
C  C52  1  0.10146363  0.65065172  0.91033525  1  0  0.026654  0  3.604209  0  0  0.016915  0  3.841483  0  0  0.017399  0  3.856635  0  0  -0.073924  0.016678  0  3.83111  0
C  C53  1  0.88484356  0.21206396  0.09782135  1  0  -0.120637  0  3.661797  0  0  -0.14067  0  3.918973  0  0  -0.143026  0  3.938227  0  0  -0.10449  -0.138901  0  3.905749  0
C  C54  1  0.11516008  0.78793441  0.90218036  1  0  -0.120588  0  3.661801  0  0  -0.140557  0  3.919018  0  0  -0.14291  0  3.938274  0  0  -0.104446  -0.138788  0  3.905791  0
C  C55  1  0.69555191  0.14968386  0.07400445  1  0  -0.130006  0  3.667701  0  0  -0.149392  0  3.925417  0  0  -0.152406  0  3.945513  0  0  -0.109126  -0.147275  0  3.911683  0
C  C56  1  0.30445218  0.85031640  0.92599877  1  0  -0.130089  0  3.667798  0  0  -0.149496  0  3.925501  0  0  -0.152509  0  3.945599  0  0  -0.10919  -0.14738  0  3.911769  0
C  C57  1  0.53319794  0.22803912  0.04223136  1  0  0.023678  0  3.605399  0  0  0.013124  0  3.844127  0  0  0.013952  0  3.858414  0  0  -0.074116  0.012675  0  3.834274  0
C  C58  1  0.46680443  0.77196019  0.95777097  1  0  0.023771  0  3.605485  0  0  0.013273  0  3.84414  0  0  0.014099  0  3.858431  0  0  -0.074076  0.012824  0  3.834287  0
C  C59  1  0.80125357  0.35949016  0.99220773  1  0  -0.161998  0  3.625565  0  0  -0.175491  0  3.871122  0  0  -0.180476  0  3.884051  0  0  -0.082197  -0.171955  0  3.862064  0
C  C60  1  0.19875029  0.64050915  0.00779282  1  0  -0.162002  0  3.625481  0  0  -0.175487  0  3.871073  0  0  -0.180473  0  3.884003  0  0  -0.082198  -0.171952  0  3.862018  0
C  C61  1  0.91836323  0.29996394  0.92858305  1  0  0.5499  0  3.729128  0  0  0.500595  0  4.026616  0  0  0.529014  0  4.026238  0  0  0.258696  0.481334  0  4.026345  0
C  C62  1  0.08163568  0.70003349  0.07141621  1  0  0.549843  0  3.729237  0  0  0.50058  0  4.026674  0  0  0.529002  0  4.026296  0  0  0.25867  0.481315  0  4.026407  0
C  C63  1  0.59784724  0.18080916  0.88848055  1  0  0.540786  0  3.740684  0  0  0.489961  0  4.041429  0  0  0.517338  0  4.041954  0  0  0.257834  0.471269  0  4.040802  0
C  C64  1  0.40214892  0.81919583  0.11151924  1  0  0.54075  0  3.740671  0  0  0.489918  0  4.041438  0  0  0.517295  0  4.041962  0  0  0.257863  0.471223  0  4.040812  0
C  C65  1  0.58699895  0.28408591  0.96343792  1  0  -0.152289  0  3.616265  0  0  -0.166547  0  3.86153  0  0  -0.170854  0  3.874092  0  0  -0.076974  -0.163521  0  3.852733  0
C  C66  1  0.41300557  0.71591623  0.03656427  1  0  -0.152298  0  3.61629  0  0  -0.166603  0  3.861593  0  0  -0.170908  0  3.874148  0  0  -0.076985  -0.163576  0  3.852798  0
C  C67  1  0.83829498  0.12498340  0.79615829  1  0  0.153989  0  3.78368  0  0  0.150622  0  4.032474  0  0  0.152195  0  4.054046  0  0  0.09356  0.149121  0  4.018037  0
C  C68  1  0.16170051  0.87501876  0.20383987  1  0  0.15407  0  3.783495  0  0  0.150649  0  4.032385  0  0  0.152225  0  4.053953  0  0  0.093603  0.149147  0  4.017954  0
C  C69  1  0.01096424  0.06527442  0.80706089  1  0  -0.06096  0  3.681434  0  0  -0.09188  0  3.935928  0  0  -0.088822  0  3.952077  0  0  -0.058839  -0.093524  0  3.925006  0
C  C70  1  0.98903532  0.93473243  0.19293493  1  0  -0.061046  0  3.681339  0  0  -0.091998  0  3.935882  0  0  -0.088936  0  3.952028  0  0  -0.058853  -0.09364  0  3.924961  0
C  C71  1  0.04381523  0.98883594  0.73298449  1  0  -0.084549  0  3.710384  0  0  -0.096551  0  3.963158  0  0  -0.103811  0  3.985729  0  0  -0.073474  -0.092068  0  3.948261  0
C  C72  1  0.95618476  0.01117280  0.26701156  1  0  -0.08442  0  3.710319  0  0  -0.096383  0  3.963104  0  0  -0.103638  0  3.985667  0  0  -0.073474  -0.0919  0  3.948204  0
C  C73  1  0.90501168  0.97476387  0.65161258  1  0  0.14145  0  3.660941  0  0  0.107864  0  3.912213  0  0  0.114787  0  3.930136  0  0  0.056885  0.103395  0  3.900163  0
C  C74  1  0.09498338  0.02523640  0.34838534  1  0  0.141444  0  3.66105  0  0  0.107835  0  3.912296  0  0  0.114757  0  3.930221  0  0  0.05689  0.103368  0  3.900238  0
C  C75  1  0.70594111  0.10735705  0.71260004  1  0  0.051551  0  3.696676  0  0  0.012897  0  3.950654  0  0  0.019833  0  3.965987  0  0  0.049155  0.00851  0  3.940117  0
C  C76  1  0.29405009  0.89263947  0.28739905  1  0  0.051543  0  3.696605  0  0  0.012916  0  3.950629  0  0  0.019849  0  3.965964  0  0  0.049155  0.008529  0  3.940097  0
C  C77  1  0.26367891  0.19174654  0.61870970  1  0  0.295413  0  4.08692  0  0  0.282159  0  4.381656  0  0  0.305504  0  4.394619  0  0  0.131588  0.266369  0  4.372225  0
C  C78  1  0.73632684  0.80824803  0.38128863  1  0  0.295442  0  4.086825  0  0  0.282185  0  4.381568  0  0  0.305534  0  4.394526  0  0  0.13165  0.266395  0  4.372137  0
S  S79  1  0.24152491  0.30119598  0.69730352  1  0  -0.393601  0  2.011412  0  0  -0.383043  0  2.295115  0  0  -0.399402  0  2.292131  0  0  -0.204644  -0.371362  0  2.296767  0
S  S80  1  0.75847464  0.69879768  0.30269669  1  0  -0.393564  0  2.011448  0  0  -0.383003  0  2.295148  0  0  -0.399362  0  2.292174  0  0  -0.204646  -0.371321  0  2.296799  0
N  N81  1  0.63392889  0.19852631  0.46603949  1  0  -0.310489  0  3.24709  0  0  -0.23528  0  3.510867  0  0  -0.254384  0  3.531376  0  0  -0.32202  -0.22238  0  3.496948  0
N  N82  1  0.36607667  0.80147393  0.53396068  1  0  -0.310435  0  3.24718  0  0  -0.23523  0  3.510951  0  0  -0.254334  0  3.531462  0  0  -0.322004  -0.22233  0  3.497036  0
N  N83  1  0.67211625  0.34319894  0.27087074  1  0  -0.317841  0  3.418513  0  0  -0.240914  0  3.645875  0  0  -0.26503  0  3.664953  0  0  -0.234399  -0.224446  0  3.632768  0
N  N84  1  0.32788633  0.65680132  0.72913043  1  0  -0.317857  0  3.418435  0  0  -0.240895  0  3.645838  0  0  -0.265013  0  3.664917  0  0  -0.234418  -0.224428  0  3.632728  0
N  N85  1  0.78815250  0.20262728  0.86784873  1  0  -0.302555  0  3.415414  0  0  -0.224881  0  3.640668  0  0  -0.248809  0  3.659144  0  0  -0.228401  -0.20851  0  3.627702  0
N  N86  1  0.21184428  0.79737393  0.13215009  1  0  -0.302522  0  3.415353  0  0  -0.22485  0  3.640635  0  0  -0.24878  0  3.659112  0  0  -0.228395  -0.208476  0  3.62767  0
N  N87  1  0.73879532  0.03352630  0.64186713  1  0  -0.309274  0  3.249403  0  0  -0.232201  0  3.514456  0  0  -0.251508  0  3.534616  0  0  -0.320964  -0.219014  0  3.500306  0
N  N88  1  0.26119630  0.96647211  0.35813156  1  0  -0.309237  0  3.249376  0  0  -0.23211  0  3.514347  0  0  -0.251416  0  3.534507  0  0  -0.320934  -0.218923  0  3.500198  0
N  N89  1  0.27907697  0.10930967  0.56182355  1  0  -0.583586  0  2.871645  0  0  -0.524261  0  3.145018  0  0  -0.545983  0  3.149202  0  0  -0.418808  -0.509249  0  3.141869  0
N  N90  1  0.72092068  0.89068872  0.43817825  1  0  -0.583646  0  2.871525  0  0  -0.524293  0  3.14485  0  0  -0.546033  0  3.149071  0  0  -0.418854  -0.509279  0  3.141699  0
O  O91  1  0.34701189  0.23754145  0.20655046  1  0  -0.475314  0  1.92613  0  0  -0.440166  0  2.138526  0  0  -0.458614  0  2.134238  0  0  -0.26282  -0.427542  0  2.141298  0
O  O92  1  0.65299259  0.76245408  0.79344912  1  0  -0.475363  0  1.926129  0  0  -0.440169  0  2.138509  0  0  -0.458614  0  2.134221  0  0  -0.262853  -0.427545  0  2.14128  0
O  O93  1  0.00637591  0.43558089  0.29007408  1  0  -0.468538  0  1.929353  0  0  -0.435826  0  2.138923  0  0  -0.453025  0  2.133326  0  0  -0.260257  -0.424081  0  2.142746  0
O  O94  1  0.99363090  0.56441178  0.70992350  1  0  -0.468624  0  1.929338  0  0  -0.435913  0  2.138933  0  0  -0.453111  0  2.133338  0  0  -0.260354  -0.424168  0  2.142756  0
O  O95  1  0.47066809  0.09028138  0.85193908  1  0  -0.474161  0  1.992856  0  0  -0.435739  0  2.22171  0  0  -0.455059  0  2.218209  0  0  -0.248565  -0.422532  0  2.223989  0
O  O96  1  0.52932764  0.90972173  0.14806175  1  0  -0.474178  0  1.992884  0  0  -0.43572  0  2.221693  0  0  -0.455041  0  2.21819  0  0  -0.248605  -0.422514  0  2.223976  0
O  O97  1  0.09777128  0.32958930  0.93005137  1  0  -0.499269  0  1.938929  0  0  -0.458198  0  2.161967  0  0  -0.478124  0  2.156725  0  0  -0.266687  -0.444679  0  2.165488  0
O  O98  1  0.90222742  0.67040719  0.06994905  1  0  -0.499266  0  1.938999  0  0  -0.458207  0  2.162021  0  0  -0.478134  0  2.156779  0  0  -0.266688  -0.444677  0  2.165531  0
