# generated using pymatgen
data_MgH11C11(NO2)2
_symmetry_space_group_name_H-M   'P 1'
_cell_length_a   6.91433938
_cell_length_b   32.02913831
_cell_length_c   32.02972858
_cell_angle_alpha   119.50369812
_cell_angle_beta   94.13237399
_cell_angle_gamma   94.10172509
_symmetry_Int_Tables_number   1
_chemical_formula_structural   MgH11C11(NO2)2
_chemical_formula_sum   'Mg6 H66 C66 N12 O24'
_cell_volume   6110.46077684
_cell_formula_units_Z   6
loop_
 _symmetry_equiv_pos_site_id
 _symmetry_equiv_pos_as_xyz
  1  'x, y, z'
loop_
 _atom_site_type_symbol
 _atom_site_label
 _atom_site_symmetry_multiplicity
 _atom_site_fract_x
 _atom_site_fract_y
 _atom_site_fract_z
 _atom_site_occupancy
 _atom_site_pbe_bader_charge
 _atom_site_pbe_bader_spin_density
 _atom_site_pbe_cm5_charge
 _atom_site_pbe_ddec_charge
 _atom_site_pbe_ddec_spin_density
 _atom_site_pbe_ddec_sum_bond_order
 _atom_site_pbe_magmom
Mg  Mg0  1  0.04572436  0.69929349  0.33226639  1  1.685482  0  0.907297  1.412372  0  1.320652  0
Mg  Mg1  1  0.32221740  0.30114929  0.66736111  1  1.685396  0  0.902527  1.409795  0  1.32298  0
Mg  Mg2  1  0.34665678  0.63303291  0.30067576  1  1.682771  0  0.90791  1.412679  0  1.320065  0
Mg  Mg3  1  0.02096280  0.36635291  0.69882571  1  1.682847  0  0.902457  1.410088  0  1.322149  0
Mg  Mg4  1  0.71374438  0.66775749  0.36699611  1  1.684486  0  0.907866  1.413616  0  1.318843  0
Mg  Mg5  1  0.65484730  0.33255228  0.63361257  1  1.68529  0  0.902351  1.410183  0  1.321898  0
H  H6  1  0.20645234  0.58017870  0.01939650  1  0.430625  0  0.310082  0.263972  0  0.963777  0
H  H7  1  0.48891553  0.52142144  0.03153439  1  0.120325  0  0.138212  0.076314  0  0.954199  0
H  H8  1  0.42785187  0.50419137  0.93375357  1  0.4393  0  0.305943  0.260853  0  0.992641  0
H  H9  1  0.10013612  0.40127780  0.89390504  1  0.455299  0  0.330764  0.296747  0  0.905172  0
H  H10  1  0.07908767  0.37587973  0.81013219  1  0.077245  0  0.1073  0.133125  0  1.008881  0
H  H11  1  0.78900959  0.42813470  0.83519505  1  0.097807  0  0.102655  0.104426  0  1.007737  0
H  H12  1  0.61546412  0.44938776  0.90651475  1  0.09539  0  0.104539  0.119495  0  1.01379  0
H  H13  1  0.73951686  0.54865218  0.99659796  1  -0.000462  0  0.09187  0.09026  0  0.982618  0
H  H14  1  0.66836134  0.59774378  0.04902761  1  0.064381  0  0.102027  0.107095  0  0.990587  0
H  H15  1  0.45416851  0.61785226  0.99594206  1  0.039365  0  0.089411  0.078958  0  0.993103  0
H  H16  1  0.53992012  0.57212611  0.94418458  1  -0.020283  0  0.084291  0.067124  0  0.995297  0
H  H17  1  0.88566326  0.61281762  0.97959255  1  -0.003298  0  0.080961  0.064333  0  0.993386  0
H  H18  1  0.79141940  0.66040758  0.02814309  1  0.047094  0  0.091186  0.084547  0  0.972296  0
H  H19  1  0.70035001  0.63005434  0.92091822  1  -0.004054  0  0.084262  0.068417  0  0.981307  0
H  H20  1  0.87050828  0.67905031  0.96342425  1  0.015696  0  0.088568  0.074712  0  0.976491  0
H  H21  1  0.42494597  0.67074095  0.96704729  1  0.01899  0  0.080665  0.10149  0  1.021115  0
H  H22  1  0.56209917  0.70945451  0.95234491  1  0.02482  0  0.08765  0.113478  0  1.001509  0
H  H23  1  0.59596357  0.71879250  0.01196124  1  0.044133  0  0.086943  0.112693  0  0.998289  0
H  H24  1  0.97765169  0.58646304  0.06755187  1  0.424734  0  0.306345  0.252869  0  0.984568  0
H  H25  1  0.27221207  0.62973887  0.18545657  1  0.094605  0  0.1106  0.142329  0  0.996375  0
H  H26  1  0.55871461  0.58249644  0.16868307  1  0.137401  0  0.10792  0.122078  0  1.026777  0
H  H27  1  0.71403726  0.56591557  0.09655320  1  0.057489  0  0.093109  0.099296  0  1.063885  0
H  H28  1  0.62635518  0.43921774  0.41988511  1  0.421604  0  0.310547  0.265083  0  0.963236  0
H  H29  1  0.96757249  0.51007244  0.47853119  1  0.16326  0  0.138211  0.07627  0  0.95403  0
H  H30  1  0.92434361  0.42964305  0.49585837  1  0.447215  0  0.305935  0.265314  0  0.988785  0
H  H31  1  0.69888305  0.49269582  0.59869653  1  0.463579  0  0.330401  0.296303  0  0.905468  0
H  H32  1  0.70354089  0.43430159  0.62404648  1  0.076146  0  0.107681  0.132881  0  1.009689  0
H  H33  1  0.36132609  0.40713200  0.57177924  1  0.090229  0  0.103048  0.105253  0  1.007728  0
H  H34  1  0.16653999  0.45730413  0.55066648  1  0.068255  0  0.104284  0.118986  0  1.01443  0
H  H35  1  0.19114837  0.44784739  0.45144465  1  0.000629  0  0.091895  0.090198  0  0.983569  0
H  H36  1  0.07161856  0.45123727  0.40232342  1  0.031866  0  0.102164  0.107001  0  0.990984  0
H  H37  1  0.83679064  0.37808285  0.38212129  1  0.035096  0  0.08952  0.079654  0  0.993073  0
H  H38  1  0.96801173  0.37198289  0.42782359  1  -0.026124  0  0.084199  0.067146  0  0.995403  0
H  H39  1  0.27327204  0.36667444  0.38715275  1  0.010874  0  0.080583  0.064334  0  0.993553  0
H  H40  1  0.13142217  0.36755645  0.33953598  1  0.014034  0  0.090954  0.084119  0  0.972053  0
H  H41  1  0.07105374  0.29077597  0.37000175  1  0.0026  0  0.084675  0.068988  0  0.980779  0
H  H42  1  0.19192406  0.28420091  0.32093069  1  0.024459  0  0.088507  0.075309  0  0.977106  0
H  H43  1  0.75478635  0.29625680  0.32940284  1  0.006525  0  0.081101  0.101947  0  1.021512  0
H  H44  1  0.85305326  0.24278609  0.29063563  1  0.059902  0  0.08775  0.113523  0  1.001721  0
H  H45  1  0.87751386  0.29304964  0.28130081  1  0.006362  0  0.086721  0.112735  0  0.999055  0
H  H46  1  0.39199589  0.48107512  0.41328586  1  0.430759  0  0.306658  0.253766  0  0.983324  0
H  H47  1  0.64338291  0.55575114  0.37001116  1  0.084049  0  0.111012  0.142929  0  0.99692  0
H  H48  1  0.97675319  0.58598533  0.41726013  1  0.151231  0  0.108363  0.122254  0  1.026558  0
H  H49  1  0.14914962  0.53044555  0.43374467  1  0.048932  0  0.093116  0.099697  0  1.063021  0
H  H50  1  0.18643610  0.98076531  0.56102810  1  0.420426  0  0.310147  0.264417  0  0.963483  0
H  H51  1  0.45609194  0.96845707  0.48997006  1  0.130164  0  0.138155  0.076319  0  0.954341  0
H  H52  1  0.49394018  0.06627607  0.57047669  1  0.450576  0  0.306284  0.261326  0  0.992341  0
H  H53  1  0.20632942  0.10617085  0.50738264  1  0.459284  0  0.330485  0.296266  0  0.905442  0
H  H54  1  0.26949367  0.18988465  0.56566058  1  0.052692  0  0.107715  0.133316  0  1.008359  0
H  H55  1  0.95417008  0.16468531  0.59294173  1  0.094944  0  0.102906  0.105107  0  1.007402  0
H  H56  1  0.70914269  0.09340309  0.54293498  1  0.046066  0  0.104134  0.119551  0  1.014698  0
H  H57  1  0.74216046  0.00336020  0.55203811  1  0.009214  0  0.092157  0.090304  0  0.983654  0
H  H58  1  0.61867052  0.95097437  0.54875363  1  0.018878  0  0.101954  0.106773  0  0.99109  0
H  H59  1  0.45800082  0.00412398  0.62201547  1  0.030175  0  0.089341  0.079533  0  0.992758  0
H  H60  1  0.59532989  0.05584707  0.62798576  1  -0.023595  0  0.084645  0.067516  0  0.994493  0
H  H61  1  0.90582290  0.02044842  0.63325174  1  -0.004791  0  0.080656  0.064187  0  0.992976  0
H  H62  1  0.76323079  0.97193793  0.63234734  1  0.009112  0  0.090613  0.083495  0  0.972784  0
H  H63  1  0.77947496  0.07920137  0.70918679  1  0.01931  0  0.084504  0.068346  0  0.981599  0
H  H64  1  0.90715025  0.03672017  0.71570812  1  0.022395  0  0.088086  0.074342  0  0.976773  0
H  H65  1  0.45797595  0.03317196  0.70380836  1  0.002772  0  0.080996  0.101414  0  1.02142  0
H  H66  1  0.60997998  0.04786295  0.75722223  1  0.015977  0  0.087615  0.112934  0  1.001296  0
H  H67  1  0.58408153  0.98824689  0.70696266  1  0.001687  0  0.08678  0.112447  0  0.999374  0
H  H68  1  0.90951483  0.93238140  0.51917755  1  0.427392  0  0.306358  0.256896  0  0.979948  0
H  H69  1  0.08647754  0.81444235  0.44441747  1  0.09209  0  0.110743  0.142194  0  0.996317  0
H  H70  1  0.38953891  0.83134270  0.41408238  1  0.145684  0  0.108122  0.122378  0  1.026357  0
H  H71  1  0.61699150  0.90337868  0.46972825  1  0.049691  0  0.092832  0.099066  0  1.064604  0
C  C72  1  0.24808442  0.56918029  0.07836278  1  1.837285  0  0.327832  0.639014  0  4.21237  0
C  C73  1  0.44411824  0.53868046  0.01058704  1  0.714912  0  0.115321  0.295572  0  3.891777  0
C  C74  1  0.25227867  0.46087940  0.95029764  1  1.809441  0  0.317733  0.628687  0  4.234996  0
C  C75  1  0.33144995  0.41501954  0.86338048  1  0.364829  0  0.100965  0.290352  0  4.083749  0
C  C76  1  0.23595743  0.38718438  0.81620252  1  -0.020039  0  -0.121192  -0.338482  0  3.933062  0
C  C77  1  0.33380072  0.37333114  0.77529827  1  0.598129  0  0.09339  0.387263  0  4.09719  0
C  C78  1  0.53966873  0.38898506  0.78256345  1  -0.042423  0  -0.052408  -0.23198  0  3.975736  0
C  C79  1  0.63241437  0.41706014  0.83039031  1  -0.046278  0  -0.087774  -0.047982  0  4.053804  0
C  C80  1  0.53464708  0.43005618  0.87043266  1  -0.047988  0  -0.123829  -0.24884  0  4.025037  0
C  C81  1  0.65823127  0.37724694  0.74283253  1  1.500167  0  0.232278  0.674991  0  4.134574  0
C  C82  1  0.61996319  0.57099192  0.01080621  1  -0.046472  0  -0.161713  -0.245391  0  3.930104  0
C  C83  1  0.58031821  0.59777064  0.98319859  1  -0.013661  0  -0.167061  -0.130489  0  3.951724  0
C  C84  1  0.75735144  0.63283420  0.98950650  1  -0.029099  0  -0.165297  -0.143776  0  3.951796  0
C  C85  1  0.73097570  0.65783455  0.95952516  1  0.004869  0  -0.16521  -0.093034  0  3.980637  0
C  C86  1  0.56970686  0.69092121  0.97345772  1  -0.093237  0  -0.244817  -0.354204  0  3.983605  0
C  C87  1  0.00301236  0.59782797  0.13644343  1  0.324837  0  0.093195  0.281889  0  4.067069  0
C  C88  1  0.11569583  0.61943475  0.18155058  1  0.001257  0  -0.112511  -0.312855  0  3.890947  0
C  C89  1  0.02845615  0.62961070  0.22362760  1  0.582596  0  0.096265  0.382704  0  4.08622  0
C  C90  1  0.82186526  0.61604924  0.21836648  1  0.04187  0  -0.049756  -0.227844  0  3.98235  0
C  C91  1  0.71425530  0.59342266  0.17226514  1  -0.125225  0  -0.085583  -0.04209  0  4.027058  0
C  C92  1  0.80142055  0.58447274  0.13179232  1  0.02559  0  -0.124119  -0.237335  0  4.044318  0
C  C93  1  0.71119510  0.62438267  0.25864848  1  1.501139  0  0.235887  0.678846  0  4.133989  0
C  C94  1  0.67971585  0.50906687  0.43060288  1  1.840074  0  0.327377  0.638791  0  4.211398  0
C  C95  1  0.90566332  0.47185412  0.46128589  1  0.680861  0  0.11531  0.296381  0  3.891985  0
C  C96  1  0.79124225  0.48943279  0.53907574  1  1.82887  0  0.319372  0.631516  0  4.234218  0
C  C97  1  0.91681967  0.44849006  0.58498161  1  0.312524  0  0.100807  0.290482  0  4.084048  0
C  C98  1  0.84921899  0.42912158  0.61278518  1  -0.004584  0  -0.121833  -0.339768  0  3.933667  0
C  C99  1  0.96093247  0.40206288  0.62661425  1  0.58544  0  0.094195  0.390112  0  4.093152  0
C  C100  1  0.15112503  0.39365077  0.61093079  1  0.02132  0  -0.052475  -0.232316  0  3.976817  0
C  C101  1  0.21585258  0.41342965  0.58289456  1  -0.076184  0  -0.08765  -0.04912  0  4.0551  0
C  C102  1  0.10502753  0.44051627  0.56996089  1  -0.014239  0  -0.12368  -0.248246  0  4.026159  0
C  C103  1  0.28137583  0.36564365  0.62265800  1  1.484886  0  0.231447  0.673637  0  4.13535  0
C  C104  1  0.04949836  0.43975236  0.42903971  1  -0.016393  0  -0.162388  -0.24606  0  3.931174  0
C  C105  1  0.98293640  0.38535779  0.40219443  1  -0.007326  0  -0.167125  -0.131167  0  3.949791  0
C  C106  1  0.12498146  0.35653495  0.36713465  1  -0.029252  0  -0.16427  -0.142329  0  3.949624  0
C  C107  1  0.07369325  0.30155184  0.34219002  1  0.000531  0  -0.166005  -0.095375  0  3.98328  0
C  C108  1  0.87924416  0.28243150  0.30917360  1  -0.071056  0  -0.245029  -0.35438  0  3.986014  0
C  C109  1  0.40631559  0.53859295  0.40194683  1  0.286128  0  0.093147  0.28193  0  4.066945  0
C  C110  1  0.49723811  0.56215751  0.38039107  1  0.022716  0  -0.112459  -0.312803  0  3.890988  0
C  C111  1  0.39949906  0.59407931  0.37030061  1  0.636829  0  0.096384  0.383033  0  4.084716  0
C  C112  1  0.20637379  0.60232362  0.38385220  1  -0.024152  0  -0.049423  -0.227861  0  3.980082  0
C  C113  1  0.12153271  0.57875310  0.40638237  1  -0.068827  0  -0.086121  -0.041618  0  4.026032  0
C  C114  1  0.21798723  0.54724543  0.41529673  1  0.005278  0  -0.124854  -0.239186  0  4.043329  0
C  C115  1  0.08711176  0.63426605  0.37555055  1  1.485189  0  0.236074  0.67962  0  4.13052  0
C  C116  1  0.16903313  0.92165941  0.49107741  1  1.841029  0  0.327774  0.63847  0  4.213078  0
C  C117  1  0.43261886  0.98945824  0.52820649  1  0.716118  0  0.115396  0.29569  0  3.891775  0
C  C118  1  0.30157096  0.04977600  0.51065978  1  1.8521  0  0.318473  0.630866  0  4.234987  0
C  C119  1  0.46839717  0.13658920  0.55159127  1  0.319457  0  0.100916  0.290354  0  4.084961  0
C  C120  1  0.42028043  0.18377807  0.57090189  1  0.01257  0  -0.12217  -0.339249  0  3.933099  0
C  C121  1  0.55908341  0.22464913  0.59789641  1  0.595998  0  0.095036  0.389683  0  4.09519  0
C  C122  1  0.75770730  0.21736999  0.60631494  1  0.03332  0  -0.053072  -0.233121  0  3.97819  0
C  C123  1  0.80244669  0.16952408  0.58661886  1  -0.156669  0  -0.088197  -0.049173  0  4.055937  0
C  C124  1  0.66449907  0.12950533  0.55961623  1  0.07495  0  -0.122859  -0.248378  0  4.026944  0
C  C125  1  0.91591940  0.25710367  0.63430789  1  1.47994  0  0.232408  0.675105  0  4.134695  0
C  C126  1  0.60852370  0.98919535  0.56022856  1  0.013404  0  -0.161904  -0.244639  0  3.930964  0
C  C127  1  0.59680888  0.01683826  0.61463654  1  -0.032314  0  -0.167575  -0.13209  0  3.951115  0
C  C128  1  0.76770687  0.01056308  0.64339409  1  -0.008581  0  -0.164273  -0.142062  0  3.94947  0
C  C129  1  0.77144768  0.04060377  0.69838857  1  -0.00059  0  -0.165448  -0.093571  0  3.980727  0
C  C130  1  0.59629060  0.02673635  0.71757387  1  -0.027019  0  -0.244425  -0.352429  0  3.983747  0
C  C131  1  0.86626589  0.86349171  0.46160479  1  0.336872  0  0.093072  0.280867  0  4.070199  0
C  C132  1  0.93385995  0.81838098  0.43802158  1  0.019522  0  -0.112524  -0.311473  0  3.889901  0
C  C133  1  0.80451197  0.77634537  0.40603698  1  0.575929  0  0.096503  0.382478  0  4.084181  0
C  C134  1  0.60316460  0.78161922  0.39775013  1  -0.045594  0  -0.049145  -0.227526  0  3.980249  0
C  C135  1  0.54155344  0.82771211  0.42133799  1  -0.043533  0  -0.086051  -0.042218  0  4.02469  0
C  C136  1  0.66924373  0.86814461  0.45290851  1  -0.021148  0  -0.123915  -0.237665  0  4.044016  0
C  C137  1  0.45232359  0.74134914  0.36574588  1  1.518598  0  0.235302  0.678306  0  4.133452  0
N  N138  1  0.29111130  0.56628346  0.03547413  1  -1.195647  0  -0.445382  -0.492578  0  3.520412  0
N  N139  1  0.37561459  0.50116161  0.96102655  1  -1.227586  0  -0.437763  -0.47242  0  3.511195  0
N  N140  1  0.22134723  0.42480784  0.90127421  1  -1.199753  0  -0.409243  -0.436963  0  3.524604  0
N  N141  1  0.08044117  0.59057610  0.09402741  1  -1.212844  0  -0.421015  -0.442991  0  3.536096  0
N  N142  1  0.72533092  0.46907943  0.43355672  1  -1.183311  0  -0.445495  -0.493703  0  3.520126  0
N  N143  1  0.87421363  0.45982241  0.49877476  1  -1.232046  0  -0.438716  -0.478942  0  3.510189  0
N  N144  1  0.79674622  0.47656851  0.57519352  1  -1.221475  0  -0.409406  -0.436788  0  3.525427  0
N  N145  1  0.49085094  0.50336718  0.40913543  1  -1.229029  0  -0.420842  -0.444061  0  3.535962  0
N  N146  1  0.25473260  0.96464759  0.53100505  1  -1.194833  0  -0.445471  -0.492925  0  3.519823  0
N  N147  1  0.41385958  0.03902770  0.54024994  1  -1.242477  0  -0.438797  -0.474499  0  3.512547  0
N  N148  1  0.32019855  0.09876317  0.52351772  1  -1.228724  0  -0.409111  -0.436558  0  3.525275  0
N  N149  1  0.98597935  0.90591516  0.49684057  1  -1.225826  0  -0.421119  -0.446887  0  3.535017  0
O  O150  1  0.53168679  0.60748447  0.25090742  1  -1.248998  0  -0.361203  -0.647786  0  2.151158  0
O  O151  1  0.79965415  0.65013880  0.30227712  1  -1.307916  0  -0.410464  -0.773456  0  2.429849  0
O  O152  1  0.14024569  0.65226545  0.26663641  1  -1.310828  0  -0.436276  -0.772518  0  2.28357  0
O  O153  1  0.83945807  0.39323922  0.75075329  1  -1.250043  0  -0.360751  -0.655465  0  2.144764  0
O  O154  1  0.57416580  0.34946663  0.69893656  1  -1.303914  0  -0.406651  -0.772695  0  2.414838  0
O  O155  1  0.22851679  0.34670694  0.73163931  1  -1.314918  0  -0.445719  -0.774505  0  2.299564  0
O  O156  1  0.35188323  0.55484612  0.10026704  1  -1.159722  0  -0.289533  -0.498996  0  2.12712  0
O  O157  1  0.16498695  0.45596292  0.98004467  1  -1.136433  0  -0.322902  -0.521891  0  2.011773  0
O  O158  1  0.92443494  0.64342257  0.39244557  1  -1.246167  0  -0.361645  -0.649102  0  2.148792  0
O  O159  1  0.14972670  0.65218022  0.34983444  1  -1.292186  0  -0.410239  -0.773371  0  2.429604  0
O  O160  1  0.48846781  0.61449032  0.34769779  1  -1.311179  0  -0.436999  -0.773148  0  2.285219  0
O  O161  1  0.44653934  0.35749662  0.60662056  1  -1.246687  0  -0.360605  -0.654615  0  2.143418  0
O  O162  1  0.22505443  0.34960877  0.65048842  1  -1.295676  0  -0.405838  -0.7717  0  2.4134  0
O  O163  1  0.88216075  0.38499414  0.65318555  1  -1.302362  0  -0.446144  -0.775722  0  2.298781  0
O  O164  1  0.79795704  0.54526965  0.44493899  1  -1.161426  0  -0.289162  -0.498098  0  2.126795  0
O  O165  1  0.70848811  0.52404845  0.54394911  1  -1.133164  0  -0.323191  -0.52281  0  2.010306  0
O  O166  1  0.28045624  0.74907166  0.35658604  1  -1.245438  0  -0.36155  -0.64869  0  2.150693  0
O  O167  1  0.49739683  0.69773309  0.34779716  1  -1.2979  0  -0.409685  -0.772052  0  2.429295  0
O  O168  1  0.87341008  0.73333885  0.38559601  1  -1.310547  0  -0.436948  -0.77281  0  2.283023  0
O  O169  1  0.08929494  0.24919267  0.64236925  1  -1.241769  0  -0.360535  -0.654667  0  2.144119  0
O  O170  1  0.87553961  0.30098917  0.65038401  1  -1.299537  0  -0.406658  -0.773056  0  2.414207  0
O  O171  1  0.49734323  0.26829595  0.61492348  1  -1.311778  0  -0.446804  -0.776043  0  2.298882  0
O  O172  1  0.25088470  0.89974046  0.45482761  1  -1.151257  0  -0.289184  -0.498396  0  2.125784  0
O  O173  1  0.18429995  0.02005069  0.47602081  1  -1.146598  0  -0.322934  -0.522771  0  2.010938  0
