# generated using pymatgen
data_MnH9C13NO5
_symmetry_space_group_name_H-M   'P 1'
_cell_length_a   6.99468721
_cell_length_b   10.16345461
_cell_length_c   20.18598562
_cell_angle_alpha   90.80617294
_cell_angle_beta   92.29521943
_cell_angle_gamma   69.87191702
_symmetry_Int_Tables_number   1
_chemical_formula_structural   MnH9C13NO5
_chemical_formula_sum   'Mn4 H36 C52 N4 O20'
_cell_volume   1346.30127743
_cell_formula_units_Z   4
loop_
 _symmetry_equiv_pos_site_id
 _symmetry_equiv_pos_as_xyz
  1  'x, y, z'
loop_
 _atom_site_type_symbol
 _atom_site_label
 _atom_site_symmetry_multiplicity
 _atom_site_fract_x
 _atom_site_fract_y
 _atom_site_fract_z
 _atom_site_occupancy
 _atom_site_pbe_bader_charge
 _atom_site_pbe_bader_spin_density
 _atom_site_pbe_cm5_charge
 _atom_site_pbe_ddec_charge
 _atom_site_pbe_ddec_spin_density
 _atom_site_pbe_ddec_sum_bond_order
 _atom_site_pbe_magmom
Mn  Mn0  1  0.50087635  0.71207061  0.52910164  1  1.496735  4.566058  0.597452  0.972694  4.690775  2.223426  4.474
Mn  Mn1  1  0.78669341  0.71219295  0.97103112  1  1.49698  4.565735  0.597055  0.971265  4.691665  2.225821  4.474
Mn  Mn2  1  0.49913207  0.28793819  0.47089900  1  1.496742  4.566066  0.597453  0.972716  4.69077  2.223403  4.474
Mn  Mn3  1  0.21331518  0.28780957  0.02896802  1  1.496858  4.565736  0.59705  0.97124  4.691654  2.225923  4.474
H  H4  1  0.12949277  0.96555364  0.71130553  1  0.102256  0.000486  0.106079  0.111253  0.000201  1.006491  0.0
H  H5  1  0.90473030  0.96551149  0.78876551  1  0.0914  0.000501  0.106276  0.111279  0.000203  1.006874  0.0
H  H6  1  0.87051359  0.03444154  0.28869110  1  0.102211  0.000486  0.10609  0.11124  0.000201  1.00646  0.0
H  H7  1  0.09526209  0.03449522  0.21123604  1  0.091353  0.000501  0.106263  0.111265  0.000202  1.006784  0.0
H  H8  1  0.73841502  0.40109443  0.69869100  1  0.088342  0.000328  0.106929  0.111307  -2.7e-05  1.00412  0.0
H  H9  1  0.85914171  0.40129147  0.80154488  1  0.115634  0.00031  0.106928  0.111147  -2.8e-05  1.003896  0.0
H  H10  1  0.26158332  0.59890284  0.30130807  1  0.088203  0.000329  0.106938  0.111307  -2.7e-05  1.004145  0.0
H  H11  1  0.14084262  0.59871419  0.19845663  1  0.115617  0.00031  0.106947  0.111125  -2.8e-05  1.004005  0.0
H  H12  1  0.99105841  0.17667163  0.52396274  1  0.100485  0.000518  0.106861  0.093626  -0.000204  1.063297  0.0
H  H13  1  0.83261091  0.17634907  0.97621079  1  0.096024  0.000521  0.107041  0.094203  -0.000206  1.062746  0.0
H  H14  1  0.00893913  0.82332145  0.47603583  1  0.100535  0.000518  0.106889  0.093681  -0.000204  1.063232  0.0
H  H15  1  0.16740822  0.82364087  0.02378788  1  0.096107  0.000521  0.107074  0.094133  -0.000206  1.062643  0.0
H  H16  1  0.41343034  0.92836040  0.41529969  1  0.145058  0.001255  0.120415  0.094387  0.000476  1.034354  0.001
H  H17  1  0.65754414  0.92858236  0.08497289  1  0.133903  0.001273  0.120112  0.094711  0.000471  1.033737  0.001
H  H18  1  0.58656213  0.07165364  0.58469494  1  0.1455  0.001255  0.12044  0.094368  0.000476  1.034128  0.001
H  H19  1  0.34246453  0.07140863  0.91502671  1  0.133801  0.001273  0.12009  0.09465  0.000471  1.03375  0.001
H  H20  1  0.44561646  0.93905265  0.29458836  1  0.077552  0.000608  0.114095  0.121467  0.000302  0.988388  0.0
H  H21  1  0.61465972  0.93911674  0.20566008  1  0.075019  0.000611  0.113929  0.121875  0.000304  0.988817  0.0
H  H22  1  0.55436860  0.06094777  0.70540719  1  0.077145  0.000608  0.114027  0.121362  0.000302  0.988422  0.0
H  H23  1  0.38533328  0.06088263  0.79433898  1  0.074952  0.000611  0.113919  0.121833  0.000304  0.988943  0.0
H  H24  1  0.81386222  0.49868279  0.30122487  1  0.093827  0.000595  0.115434  0.122946  0.00029  0.984101  0.0
H  H25  1  0.68849986  0.49845972  0.19889202  1  0.112294  0.000594  0.11561  0.123037  0.00029  0.984263  0.0
H  H26  1  0.18611678  0.50131658  0.69877809  1  0.091118  0.000596  0.115446  0.122996  0.00029  0.98402  0.0
H  H27  1  0.31150123  0.50153860  0.80111253  1  0.112557  0.000594  0.115622  0.123063  0.00029  0.984229  0.0
H  H28  1  0.75791355  0.50549295  0.42214606  1  0.144195  0.001556  0.121195  0.10028  0.000557  1.027694  0.001
H  H29  1  0.73815917  0.50535949  0.07802158  1  0.145754  0.001552  0.121397  0.099614  0.00056  1.028289  0.001
H  H30  1  0.24207249  0.49452109  0.57785796  1  0.144172  0.001556  0.121138  0.100192  0.000557  1.027825  0.001
H  H31  1  0.26185737  0.49463360  0.92198253  1  0.145638  0.001553  0.121412  0.099615  0.000561  1.02835  0.001
H  H32  1  0.86118443  0.77006742  0.56750642  1  0.626671  0.002326  0.32663  0.407391  0.001196  0.870817  0.002
H  H33  1  0.36898971  0.76995126  0.93255027  1  0.615606  0.002355  0.326513  0.407473  0.001178  0.870207  0.002
H  H34  1  0.13880907  0.22993719  0.43249612  1  0.626687  0.002327  0.326635  0.407384  0.001196  0.870802  0.002
H  H35  1  0.63102975  0.23004706  0.06745139  1  0.615512  0.002355  0.326572  0.40748  0.001177  0.870196  0.002
H  H36  1  0.73056443  0.89918447  0.52219631  1  0.649253  0.001493  0.293282  0.385643  0.000623  0.956897  0.002
H  H37  1  0.36981123  0.89948346  0.97773956  1  0.649825  0.00152  0.292649  0.384702  0.000633  0.957947  0.002
H  H38  1  0.26944183  0.10082014  0.47780481  1  0.649273  0.001493  0.29331  0.385696  0.000623  0.956796  0.002
H  H39  1  0.63018807  0.10052115  0.02226400  1  0.649826  0.001519  0.292691  0.384747  0.000632  0.957909  0.002
C  C40  1  0.08163509  0.05933075  0.61464633  1  -0.033851  -0.001741  -0.020109  -0.033225  -0.002852  4.008512  -0.002
C  C41  1  0.85885345  0.05915796  0.88548689  1  -0.011888  -0.001764  -0.01919  -0.030423  -0.00285  4.005841  -0.002
C  C42  1  0.91835759  0.94066338  0.38535172  1  -0.033252  -0.001741  -0.020119  -0.033218  -0.002851  4.008521  -0.002
C  C43  1  0.14115024  0.94084036  0.11451420  1  -0.011817  -0.001763  -0.019191  -0.030386  -0.002849  4.005751  -0.002
C  C44  1  0.05073459  0.06040934  0.68276956  1  -0.083262  0.008216  -0.077387  -0.136439  0.006315  3.915679  0.005
C  C45  1  0.88839426  0.06037431  0.81735588  1  -0.067171  0.008207  -0.077834  -0.137237  0.006323  3.916038  0.005
C  C46  1  0.94927317  0.93958898  0.31722858  1  -0.08323  0.008216  -0.0774  -0.136322  0.006315  3.915464  0.005
C  C47  1  0.11160115  0.93962611  0.18264418  1  -0.067163  0.008204  -0.077752  -0.13713  0.006321  3.915779  0.005
C  C48  1  0.92623722  0.18251208  0.71417584  1  0.018224  -0.001037  -0.010906  0.054949  -0.00125  4.011867  -0.001
C  C49  1  0.89055659  0.18255758  0.78599550  1  -0.01752  -0.001044  -0.010945  0.055165  -0.001255  4.010505  -0.001
C  C50  1  0.07376254  0.81748205  0.28582125  1  0.017554  -0.001038  -0.010912  0.054765  -0.001251  4.011996  -0.001
C  C51  1  0.10943554  0.81744074  0.21400405  1  -0.017504  -0.001043  -0.010961  0.055157  -0.001254  4.010503  -0.001
C  C52  1  0.83552504  0.30448570  0.67604285  1  -0.046494  0.007414  -0.075805  -0.130393  0.005471  3.922767  0.004
C  C53  1  0.85911563  0.30456975  0.82416221  1  -0.074936  0.007422  -0.075938  -0.130426  0.005466  3.920644  0.004
C  C54  1  0.16447291  0.69550634  0.32395423  1  -0.04571  0.007414  -0.075797  -0.130309  0.005471  3.922636  0.004
C  C55  1  0.14087507  0.69542858  0.17583732  1  -0.075021  0.007419  -0.075977  -0.130435  0.005464  3.920883  0.004
C  C56  1  0.85732476  0.30135097  0.60754026  1  -0.076308  0.000316  -0.019181  -0.041296  -0.001054  4.018067  -0.001
C  C57  1  0.84077057  0.30128912  0.89267790  1  -0.026038  0.000268  -0.018784  -0.039918  -0.001059  4.017342  -0.001
C  C58  1  0.14267037  0.69864421  0.39245929  1  -0.075814  0.000314  -0.019243  -0.041279  -0.001055  4.018073  -0.001
C  C59  1  0.15923022  0.69871235  0.10732466  1  -0.026157  0.000269  -0.018686  -0.039786  -0.001058  4.017416  -0.001
C  C60  1  0.97879977  0.17862354  0.57732964  1  0.047362  0.008312  -0.076069  -0.105086  0.006152  3.968514  0.005
C  C61  1  0.84245710  0.17842849  0.92283485  1  -0.00795  0.008381  -0.077073  -0.10792  0.006182  3.969161  0.005
C  C62  1  0.02119054  0.82136954  0.42266790  1  0.046561  0.008313  -0.076071  -0.105107  0.006152  3.968585  0.005
C  C63  1  0.15754369  0.82156983  0.07716573  1  -0.007674  0.008378  -0.077154  -0.107933  0.006181  3.968928  0.005
C  C64  1  0.22681147  0.93619845  0.58049166  1  1.548933  0.008539  0.206291  0.563907  0.00983  4.19276  0.006
C  C65  1  0.83700455  0.93594013  0.91958416  1  1.536278  0.008546  0.206589  0.563596  0.00982  4.192061  0.006
C  C66  1  0.77319425  0.06380092  0.41950548  1  1.549188  0.008539  0.20618  0.563723  0.00983  4.192528  0.006
C  C67  1  0.16298579  0.06406238  0.08041935  1  1.536547  0.008544  0.206542  0.563431  0.009818  4.192519  0.006
C  C68  1  0.74732400  0.42248950  0.56326462  1  1.555011  0.027662  0.220958  0.580755  0.027856  4.190923  0.023
C  C69  1  0.82963323  0.42237273  0.93700910  1  1.556466  0.027665  0.221318  0.580128  0.027906  4.192538  0.023
C  C70  1  0.25269733  0.57750358  0.43672712  1  1.571635  0.027575  0.220902  0.580437  0.027853  4.191088  0.023
C  C71  1  0.17037283  0.57762664  0.06299250  1  1.555925  0.027659  0.221262  0.580112  0.027898  4.192621  0.023
C  C72  1  0.50106057  0.83514135  0.38840394  1  0.489956  0.008512  0.05127  0.101446  0.006942  3.940997  0.006
C  C73  1  0.66352790  0.83523945  0.11182106  1  0.495213  0.008538  0.052553  0.101904  0.006947  3.939569  0.006
C  C74  1  0.49892449  0.16487059  0.61159214  1  0.48898  0.008512  0.051231  0.10146  0.006941  3.940561  0.006
C  C75  1  0.33647923  0.16475468  0.88817905  1  0.495122  0.008541  0.052512  0.101949  0.006949  3.939747  0.006
C  C76  1  0.52114913  0.84047191  0.32051458  1  -0.070331  0.000978  -0.075518  -0.160471  0.000245  3.936509  0.0
C  C77  1  0.63792263  0.84050964  0.17970619  1  -0.01307  0.000943  -0.076151  -0.161698  0.000233  3.936734  0.0
C  C78  1  0.47883196  0.15953375  0.67948196  1  -0.069676  0.000979  -0.075436  -0.160338  0.000246  3.936299  0.0
C  C79  1  0.36207390  0.15948869  0.82029487  1  -0.012933  0.000942  -0.076147  -0.161692  0.000232  3.937011  0.0
C  C80  1  0.63086380  0.71857208  0.28630089  1  -0.001434  0.006267  0.013841  0.100066  0.004811  3.983562  0.004
C  C81  1  0.65037074  0.71855468  0.21389643  1  -0.014519  0.006276  0.014683  0.099907  0.004822  3.982444  0.004
C  C82  1  0.36911814  0.28142939  0.71369812  1  -0.001493  0.006265  0.013844  0.100121  0.004808  3.9834  0.004
C  C83  1  0.34962330  0.28144260  0.78610263  1  -0.014435  0.006279  0.014637  0.09983  0.004825  3.982384  0.004
C  C84  1  0.72073270  0.59633527  0.32396686  1  0.009577  0.001002  -0.074898  -0.160841  0.000258  3.928733  0.001
C  C85  1  0.68340856  0.59626183  0.17619402  1  -0.078692  0.001073  -0.075549  -0.161419  0.00025  3.928156  0.001
C  C86  1  0.27924743  0.40366724  0.67603412  1  0.012174  0.001003  -0.074926  -0.160922  0.000259  3.928558  0.001
C  C87  1  0.31658658  0.40373650  0.82380752  1  -0.078693  0.001072  -0.075534  -0.161398  0.000249  3.928107  0.001
C  C88  1  0.69379739  0.59942367  0.39179126  1  0.421028  0.008521  0.051998  0.098871  0.006857  3.932119  0.006
C  C89  1  0.70767395  0.59937606  0.10838402  1  0.491004  0.008477  0.051573  0.099387  0.006881  3.933171  0.006
C  C90  1  0.30618773  0.40058303  0.60820877  1  0.420877  0.008519  0.052069  0.098815  0.006855  3.93246  0.006
C  C91  1  0.29232988  0.40062226  0.89161906  1  0.490913  0.00848  0.051503  0.099373  0.006884  3.933139  0.006
N  N92  1  0.58361896  0.71652863  0.42402658  1  -1.270118  0.050078  -0.321931  -0.27251  0.032842  3.519487  0.012
N  N93  1  0.70015294  0.71658354  0.07616504  1  -1.262226  0.050123  -0.322316  -0.272605  0.032898  3.520715  0.012
N  N94  1  0.41637338  0.28348960  0.57597500  1  -1.269595  0.050074  -0.321895  -0.272325  0.032839  3.519533  0.012
N  N95  1  0.29985965  0.28340849  0.92383657  1  -1.262053  0.050112  -0.322198  -0.272575  0.0329  3.520757  0.012
O  O96  1  0.28494272  0.95382854  0.52263697  1  -1.198103  0.041941  -0.305422  -0.565135  0.029961  2.231907  0.022
O  O97  1  0.76171522  0.95345097  0.97752710  1  -1.200682  0.042221  -0.305387  -0.565089  0.030104  2.232283  0.022
O  O98  1  0.71505581  0.04616874  0.47736459  1  -1.198033  0.041937  -0.305395  -0.565088  0.029961  2.231521  0.022
O  O99  1  0.23831577  0.04654212  0.02247906  1  -1.200938  0.042218  -0.305329  -0.564929  0.0301  2.232077  0.022
O  O100  1  0.72232059  0.82694310  0.55424731  1  -1.270513  0.052982  -0.557136  -0.752251  0.038654  2.086745  0.025
O  O101  1  0.45053584  0.82718443  0.94572917  1  -1.259783  0.052892  -0.556274  -0.751204  0.038688  2.086783  0.025
O  O102  1  0.27767610  0.17306989  0.44575825  1  -1.270543  0.05298  -0.557151  -0.752264  0.038649  2.086718  0.025
O  O103  1  0.54947237  0.17281704  0.05427691  1  -1.259691  0.052886  -0.556389  -0.751299  0.038689  2.086803  0.025
O  O104  1  0.29320782  0.81672083  0.60854731  1  -1.183138  0.053622  -0.318449  -0.541436  0.035503  2.141585  0.025
O  O105  1  0.88956195  0.81658874  0.89139506  1  -1.178161  0.053465  -0.318471  -0.541207  0.035456  2.141326  0.025
O  O106  1  0.70680258  0.18328168  0.39145679  1  -1.18314  0.05362  -0.318344  -0.541315  0.035501  2.141704  0.025
O  O107  1  0.11041367  0.18341377  0.10860293  1  -1.178183  0.053454  -0.318484  -0.541198  0.035451  2.141692  0.025
O  O108  1  0.69928559  0.54652241  0.58650179  1  -1.183608  0.077992  -0.311514  -0.536707  0.051911  2.243119  0.036
O  O109  1  0.75276190  0.54647959  0.91393206  1  -1.182713  0.077929  -0.311995  -0.537071  0.051889  2.24296  0.036
O  O110  1  0.30073963  0.45347381  0.41348651  1  -1.183511  0.077985  -0.311562  -0.536694  0.05191  2.243219  0.036
O  O111  1  0.24722501  0.45352397  0.08607094  1  -1.182705  0.077926  -0.311993  -0.537041  0.051886  2.243009  0.036
O  O112  1  0.70764725  0.39387648  0.50347554  1  -1.20271  0.06522  -0.30856  -0.585177  0.046836  2.352662  0.027
O  O113  1  0.89885238  0.39362372  0.99668563  1  -1.210673  0.065424  -0.308166  -0.583265  0.046776  2.353201  0.027
O  O114  1  0.29238622  0.60611241  0.49651675  1  -1.220067  0.065306  -0.308489  -0.584914  0.046832  2.352406  0.027
O  O115  1  0.10117240  0.60636937  0.00331406  1  -1.210226  0.065413  -0.308147  -0.5833  0.046774  2.353167  0.027
