# generated using pymatgen
data_CuH13C16NO4
_symmetry_space_group_name_H-M   'P 1'
_cell_length_a   9.87701139
_cell_length_b   24.15535434
_cell_length_c   24.15398775
_cell_angle_alpha   118.17208310
_cell_angle_beta   97.83128450
_cell_angle_gamma   97.83657119
_symmetry_Int_Tables_number   1
_chemical_formula_structural   CuH13C16NO4
_chemical_formula_sum   'Cu6 H78 C96 N6 O24'
_cell_volume   4897.98463685
_cell_formula_units_Z   6
loop_
 _symmetry_equiv_pos_site_id
 _symmetry_equiv_pos_as_xyz
  1  'x, y, z'
loop_
 _atom_site_type_symbol
 _atom_site_label
 _atom_site_symmetry_multiplicity
 _atom_site_fract_x
 _atom_site_fract_y
 _atom_site_fract_z
 _atom_site_occupancy
 _atom_site_pbe_bader_charge
 _atom_site_pbe_bader_spin_density
 _atom_site_pbe_cm5_charge
 _atom_site_pbe_ddec_charge
 _atom_site_pbe_ddec_spin_density
 _atom_site_pbe_ddec_sum_bond_order
 _atom_site_pbe_magmom
Cu  Cu0  1  0.08142628  0.55359744  0.51455600  1  1.060227  0.553805  0.681221  0.765041  0.709795  2.365334  0.551
Cu  Cu1  1  0.52782422  0.96096096  0.44640108  1  1.05887  -0.553804  0.68102  0.765177  -0.709524  2.365658  -0.551
Cu  Cu2  1  0.56682679  0.48542978  0.03903945  1  1.062245  -0.553832  0.681369  0.764376  -0.710067  2.367489  -0.551
Cu  Cu3  1  0.91856762  0.44640078  0.48544029  1  1.06044  -0.553804  0.681212  0.765024  -0.709799  2.365393  -0.551
Cu  Cu4  1  0.47217612  0.03904402  0.55359917  1  1.05918  0.553804  0.68106  0.765112  0.709533  2.365795  0.551
Cu  Cu5  1  0.43317366  0.51457134  0.96096478  1  1.061921  0.553832  0.681344  0.764318  0.710059  2.367558  0.551
H  H6  1  0.21693135  0.32430772  0.44595484  1  0.076288  -0.000286  0.103317  0.108631  -0.000227  1.001169  0.0
H  H7  1  0.89259218  0.12160386  0.67567508  1  0.072353  0.000285  0.103306  0.108544  0.000227  1.00163  0.0
H  H8  1  0.77098917  0.55408614  0.87840045  1  0.091358  0.000282  0.103346  0.108359  0.000227  1.00174  0.0
H  H9  1  0.78306440  0.67568809  0.55404166  1  0.074155  0.000286  0.103338  0.108661  0.000227  1.001237  0.0
H  H10  1  0.10740972  0.87840015  0.32432398  1  0.072357  -0.000285  0.103295  0.108541  -0.000227  1.001659  0.0
H  H11  1  0.22900773  0.44591401  0.12160727  1  0.091262  -0.000282  0.103358  0.108388  -0.000227  1.00172  0.0
H  H12  1  0.42159004  0.27366985  0.42256081  1  0.042399  0.000228  0.099602  0.101747  0.00012  1.002451  0.0
H  H13  1  0.14787190  0.14885084  0.72631124  1  0.057329  -0.000225  0.099339  0.101395  -0.00012  1.002486  0.0
H  H14  1  0.99903915  0.57742225  0.85112459  1  0.044007  -0.000228  0.099291  0.101106  -0.00012  1.002357  0.0
H  H15  1  0.57840920  0.72632886  0.57743849  1  0.042652  -0.000228  0.099603  0.101745  -0.00012  1.002452  0.0
H  H16  1  0.85212934  0.85114980  0.27368866  1  0.057334  0.000225  0.099345  0.101387  0.00012  1.002504  0.0
H  H17  1  0.00095259  0.42257983  0.14888044  1  0.044249  0.000228  0.09934  0.101209  0.00012  1.002209  0.0
H  H18  1  0.62064729  0.42883984  0.39932960  1  0.105464  -0.000172  0.10074  0.110448  -9.2e-05  1.041065  0.0
H  H19  1  0.19178294  0.97047538  0.57114222  1  0.106217  0.000169  0.100654  0.110349  9.2e-05  1.041256  0.0
H  H20  1  0.22133196  0.60065990  0.02951986  1  0.101443  0.000169  0.100793  0.110163  9.1e-05  1.041089  0.0
H  H21  1  0.37934685  0.57115887  0.60066900  1  0.105425  0.000172  0.100763  0.110483  9.2e-05  1.041002  0.0
H  H22  1  0.80821518  0.02952718  0.42885470  1  0.106091  -0.000169  0.100677  0.110367  -9.2e-05  1.041167  0.0
H  H23  1  0.77867175  0.39934363  0.97048404  1  0.101564  -0.000169  0.100756  0.110113  -9.2e-05  1.041229  0.0
H  H24  1  0.41866483  0.48069516  0.42560281  1  0.09916  0.000275  0.106024  0.112034  0.000231  0.991722  0.0
H  H25  1  0.93793405  0.94488204  0.51926801  1  0.113195  -0.000275  0.10586  0.11184  -0.000231  0.991673  0.0
H  H26  1  0.99308238  0.57438203  0.05510796  1  0.0972  -0.000277  0.105907  0.111995  -0.000231  0.992383  0.0
H  H27  1  0.58132576  0.51930257  0.57439472  1  0.099169  -0.000275  0.106005  0.112051  -0.000231  0.991582  0.0
H  H28  1  0.06206401  0.05512245  0.48072816  1  0.11322  0.000275  0.105865  0.111826  0.000231  0.991709  0.0
H  H29  1  0.00692780  0.42561812  0.94489719  1  0.097054  0.000277  0.105871  0.111948  0.000231  0.992285  0.0
H  H30  1  0.63054102  0.26760421  0.38314403  1  0.052649  6.8e-05  0.09482  0.067155  3.3e-05  1.006036  0.0
H  H31  1  0.36291245  0.11550374  0.73239538  1  0.015877  -7.1e-05  0.094827  0.067045  -3.5e-05  1.006153  0.0
H  H32  1  0.24740457  0.61685103  0.88446790  1  0.012088  -6.9e-05  0.094657  0.066844  -3.3e-05  1.006829  0.0
H  H33  1  0.36946328  0.73239643  0.61685440  1  0.052651  -6.9e-05  0.09481  0.067131  -3.3e-05  1.006049  0.0
H  H34  1  0.63708427  0.88449400  0.26760416  1  0.015815  7.1e-05  0.094847  0.067027  3.5e-05  1.006232  0.0
H  H35  1  0.75258464  0.38315008  0.11553198  1  0.011882  6.9e-05  0.094684  0.066885  3.3e-05  1.00678  0.0
H  H36  1  0.70602489  0.32443606  0.36205325  1  0.064639  2.7e-05  0.105849  0.093238  1.2e-05  0.971941  0.0
H  H37  1  0.38158570  0.03759222  0.67556562  1  0.040862  -3.1e-05  0.105971  0.093305  -1.4e-05  0.971997  0.0
H  H38  1  0.34398202  0.63794457  0.96238731  1  0.080097  -2.8e-05  0.105972  0.093545  -1.2e-05  0.971666  0.0
H  H39  1  0.29397172  0.67556554  0.63794561  1  0.064716  -2.8e-05  0.105873  0.093228  -1.2e-05  0.971861  0.0
H  H40  1  0.61840543  0.96240455  0.32443149  1  0.040778  3.1e-05  0.105948  0.093305  1.4e-05  0.971995  0.0
H  H41  1  0.65601580  0.36205944  0.03761235  1  0.080131  2.7e-05  0.105961  0.093491  1.2e-05  0.971689  0.0
H  H42  1  0.72720726  0.36702955  0.49795501  1  0.402581  8e-05  0.297521  0.242691  5.6e-05  0.942658  0.0
H  H43  1  0.36009412  0.13088905  0.63296721  1  0.392455  -8.7e-05  0.297647  0.242207  -6e-05  0.942511  0.0
H  H44  1  0.22925725  0.50204911  0.86909480  1  0.391978  -8.2e-05  0.297319  0.241926  -5.6e-05  0.942849  0.0
H  H45  1  0.27279368  0.63297253  0.50204432  1  0.402602  -8e-05  0.297544  0.242667  -5.6e-05  0.942719  0.0
H  H46  1  0.63991674  0.86911448  0.36703626  1  0.392543  8.7e-05  0.297631  0.242225  6e-05  0.942544  0.0
H  H47  1  0.77073774  0.49795538  0.13090617  1  0.391971  8.1e-05  0.297343  0.24202  5.6e-05  0.942779  0.0
H  H48  1  0.91324498  0.29410651  0.42113784  1  0.058277  -6e-06  0.11017  0.099872  -2e-05  0.966311  0.0
H  H49  1  0.61907275  0.12705328  0.70590922  1  0.064394  1.9e-05  0.110136  0.099781  2.9e-05  0.967345  0.0
H  H50  1  0.49209683  0.57886836  0.87296991  1  0.051354  6e-06  0.110237  0.099847  2e-05  0.967072  0.0
H  H51  1  0.08675771  0.70589702  0.57885979  1  0.058418  6e-06  0.110185  0.099949  2e-05  0.966261  0.0
H  H52  1  0.38092481  0.87294204  0.29409585  1  0.064823  -1.9e-05  0.110143  0.099838  -2.9e-05  0.967384  0.0
H  H53  1  0.50789924  0.42113420  0.12702937  1  0.051298  -6e-06  0.110269  0.099886  -2e-05  0.967045  0.0
H  H54  1  0.95418752  0.34156275  0.50602461  1  0.076039  9.4e-05  0.109798  0.102357  5.8e-05  0.983825  0.0
H  H55  1  0.61257050  0.16444132  0.65841653  1  0.069765  -9.3e-05  0.109917  0.102476  -5.9e-05  0.983939  0.0
H  H56  1  0.44815696  0.49397963  0.83553826  1  0.062877  -9.5e-05  0.110046  0.102561  -5.9e-05  0.983989  0.0
H  H57  1  0.04581769  0.65844174  0.49397321  1  0.076047  -9.5e-05  0.109832  0.102407  -5.9e-05  0.983832  0.0
H  H58  1  0.38744401  0.83555932  0.34159364  1  0.069543  9.3e-05  0.109905  0.102402  5.9e-05  0.983975  0.0
H  H59  1  0.55183989  0.50602245  0.16446415  1  0.063076  9.5e-05  0.110028  0.102554  5.9e-05  0.984044  0.0
H  H60  1  0.75910317  0.31654882  0.56275064  1  0.059438  -0.000198  0.103163  0.10433  -0.000108  0.993115  0.0
H  H61  1  0.44249894  0.24623160  0.68342338  1  0.043413  -0.000197  0.103043  0.104528  -0.000101  0.992039  0.0
H  H62  1  0.19634768  0.43725493  0.75381387  1  0.060123  0.000198  0.102975  0.103918  0.000108  0.992992  0.0
H  H63  1  0.24090438  0.68345423  0.43724703  1  0.059426  0.000197  0.103199  0.104375  0.000108  0.993154  0.0
H  H64  1  0.55750847  0.75376711  0.31658341  1  0.043538  0.000197  0.103096  0.104641  0.000101  0.991806  0.0
H  H65  1  0.80365157  0.56274377  0.24618543  1  0.060154  -0.000198  0.102947  0.103919  -0.000108  0.992958  0.0
H  H66  1  0.63412460  0.22547377  0.57209854  1  0.09545  0.000377  0.104083  0.108151  0.000303  1.002093  0.0
H  H67  1  0.40856994  0.34663011  0.77451801  1  0.084205  0.00038  0.104426  0.109086  0.000305  1.001548  0.0
H  H68  1  0.06200225  0.42791591  0.65341438  1  0.08799  -0.000383  0.104362  0.10856  -0.000305  1.002108  0.0
H  H69  1  0.36588242  0.77453024  0.42789873  1  0.095299  -0.000377  0.1041  0.108184  -0.000303  1.001947  0.0
H  H70  1  0.59144307  0.65336956  0.22548914  1  0.084189  -0.00038  0.104321  0.108931  -0.000305  1.001668  0.0
H  H71  1  0.93799272  0.57208038  0.34658603  1  0.088047  0.000383  0.104404  0.108607  0.000305  1.00219  0.0
H  H72  1  0.68603801  0.09042090  0.38538549  1  0.110182  -0.00027  0.105653  0.108109  -0.000234  1.008121  0.0
H  H73  1  0.59558440  0.29497209  0.90956472  1  0.09918  -0.000274  0.105854  0.10832  -0.000234  1.007736  0.0
H  H74  1  0.30061850  0.61461229  0.70502466  1  0.078112  0.000277  0.105711  0.108369  0.000234  1.008044  0.0
H  H75  1  0.31396828  0.90958166  0.61461147  1  0.110047  0.00027  0.105642  0.108031  0.000234  1.008231  0.0
H  H76  1  0.40442609  0.70502661  0.09044142  1  0.099511  0.000274  0.105913  0.10833  0.000234  1.007728  0.0
H  H77  1  0.69936909  0.38538352  0.29497014  1  0.078075  -0.000277  0.105742  0.108371  -0.000234  1.008181  0.0
H  H78  1  0.81026669  0.18123778  0.37529421  1  0.053775  0.000209  0.102406  0.102445  0.00011  0.995495  0.0
H  H79  1  0.62898367  0.19409973  0.81874467  1  0.046  0.000197  0.102225  0.10218  0.000104  0.995715  0.0
H  H80  1  0.43497052  0.62469441  0.80591111  1  0.034188  -0.000212  0.102341  0.102267  -0.00011  0.995845  0.0
H  H81  1  0.18974364  0.81876671  0.62470430  1  0.054005  -0.000209  0.102373  0.102459  -0.00011  0.995498  0.0
H  H82  1  0.37101635  0.80589849  0.18126396  1  0.046009  -0.000197  0.102237  0.102251  -0.000104  0.995581  0.0
H  H83  1  0.56502128  0.37530574  0.19408639  1  0.034086  0.000212  0.102312  0.102241  0.00011  0.99582  0.0
C  C84  1  0.18916120  0.43899396  0.45675110  1  1.518391  0.00027  0.213474  0.575699  0.000225  4.16101  0.0
C  C85  1  0.75013403  0.01773023  0.56099736  1  1.543476  -0.000298  0.21356  0.576238  -0.000228  4.161221  0.0
C  C86  1  0.73243253  0.54329812  0.98230364  1  1.533748  -0.000293  0.213199  0.574495  -0.000227  4.160378  0.0
C  C87  1  0.81083474  0.56100426  0.54324655  1  1.518353  -0.000272  0.213527  0.57584  -0.000228  4.160806  0.0
C  C88  1  0.24986535  0.98227282  0.43900192  1  1.543893  0.000299  0.213614  0.576328  0.000228  4.161009  0.0
C  C89  1  0.26756918  0.45670348  0.01770213  1  1.532958  0.000289  0.213471  0.574891  0.000224  4.159924  0.0
C  C90  1  0.30592772  0.40576183  0.43746304  1  -0.011307  -0.000297  -0.018806  -0.032209  -0.000228  3.973847  0.0
C  C91  1  0.90011197  0.03165683  0.59423098  1  0.002747  0.000333  -0.018802  -0.032357  0.000227  3.975222  0.0
C  C92  1  0.86849298  0.56258186  0.96835334  1  0.00264  0.00033  -0.018744  -0.030264  0.000243  3.972248  0.0
C  C93  1  0.69406671  0.59423543  0.56253614  1  -0.011908  0.000299  -0.018828  -0.032312  0.000229  3.973906  0.0
C  C94  1  0.09988867  0.96834670  0.40576695  1  0.00264  -0.000333  -0.018797  -0.032383  -0.000227  3.975229  0.0
C  C95  1  0.13150975  0.43741974  0.03165290  1  0.003033  -0.000329  -0.018812  -0.030489  -0.000243  3.972366  0.0
C  C96  1  0.30601642  0.34693026  0.43578786  1  -0.110226  0.000881  -0.089902  -0.096116  0.000529  3.996465  0.001
C  C97  1  0.95903261  0.08880659  0.65306122  1  -0.099113  -0.000892  -0.089785  -0.096243  -0.000529  3.997613  -0.001
C  C98  1  0.87024326  0.56424624  0.91118720  1  -0.073582  -0.000865  -0.089607  -0.096453  -0.000527  3.996834  -0.001
C  C99  1  0.69398055  0.65306796  0.56421109  1  -0.107794  -0.000881  -0.089951  -0.096163  -0.000529  3.996622  -0.001
C  C100  1  0.04096881  0.91119646  0.34693694  1  -0.099205  0.000892  -0.089807  -0.096262  0.000529  3.997605  0.001
C  C101  1  0.12975562  0.43575584  0.08881988  1  -0.073169  0.000865  -0.089619  -0.096459  0.000527  3.996895  0.001
C  C102  1  0.42049218  0.31885688  0.42258864  1  -0.004141  0.000765  -0.098196  -0.153756  0.000553  4.013495  0.001
C  C103  1  0.10159088  0.10368731  0.68113955  1  -0.050996  -0.000773  -0.097524  -0.152842  -0.000552  4.012662  -0.001
C  C104  1  0.99791429  0.57741336  0.89628901  1  -0.019386  -0.000776  -0.097671  -0.152316  -0.000551  4.0138  -0.001
C  C105  1  0.57950503  0.68114182  0.57741013  1  -0.00451  -0.000765  -0.098144  -0.153733  -0.000552  4.013573  -0.001
C  C106  1  0.89840982  0.89631429  0.31885871  1  -0.050758  0.000773  -0.097496  -0.152768  0.000552  4.012522  0.001
C  C107  1  0.00208255  0.42258872  0.10371631  1  -0.01946  0.000777  -0.097768  -0.1525  0.000552  4.013741  0.001
C  C108  1  0.53503124  0.34815154  0.40953226  1  -0.006359  -0.000269  -0.010113  0.094229  -0.000177  3.969401  0.0
C  C109  1  0.18682824  0.06134037  0.65184731  1  0.003077  0.000267  -0.010107  0.094923  0.000176  3.96738  0.0
C  C110  1  0.12550012  0.59046190  0.93863340  1  -0.028411  0.000267  -0.010693  0.093352  0.000178  3.969823  0.0
C  C111  1  0.46496644  0.65184813  0.59046699  1  -0.006358  0.000269  -0.010111  0.094307  0.000177  3.969311  0.0
C  C112  1  0.81316988  0.93866219  0.34815126  1  0.002356  -0.000267  -0.010195  0.094721  -0.000176  3.967471  0.0
C  C113  1  0.87449925  0.40954114  0.06137044  1  -0.028592  -0.000268  -0.010582  0.093546  -0.000178  3.969774  0.0
C  C114  1  0.53182935  0.40583561  0.40919885  1  -0.071755  -0.000725  -0.090184  -0.124796  -0.000515  3.961226  -0.001
C  C115  1  0.12595023  0.00333074  0.59415121  1  -0.0746  0.000727  -0.090665  -0.126307  0.000515  3.961553  0.001
C  C116  1  0.12264749  0.59078893  0.99665111  1  -0.063733  0.000725  -0.090076  -0.123901  0.000515  3.961015  0.001
C  C117  1  0.46816683  0.59416310  0.59080028  1  -0.071768  0.000726  -0.090278  -0.125007  0.000516  3.961193  0.001
C  C118  1  0.87404891  0.99667182  0.40584494  1  -0.074216  -0.000727  -0.090657  -0.126265  -0.000515  3.961501  -0.001
C  C119  1  0.87735446  0.40921316  0.00335284  1  -0.064495  -0.000725  -0.090018  -0.123931  -0.000515  3.961259  -0.001
C  C120  1  0.41931636  0.43480893  0.42375148  1  -0.000795  -0.001313  -0.082262  -0.083152  -0.000849  3.974426  -0.001
C  C121  1  0.98445290  0.98890487  0.56517103  1  -0.011788  0.001311  -0.081783  -0.081677  0.000848  3.973148  0.001
C  C122  1  0.99558910  0.57625350  0.01108674  1  -0.035188  0.001326  -0.082124  -0.08385  0.00085  3.974898  0.001
C  C123  1  0.58067958  0.56518929  0.57624741  1  -0.000307  0.001314  -0.082179  -0.083034  0.000849  3.97434  0.001
C  C124  1  0.01554595  0.01109914  0.43482537  1  -0.011424  -0.001311  -0.081792  -0.081635  -0.000848  3.973242  -0.001
C  C125  1  0.00441670  0.42374810  0.98891926  1  -0.034756  -0.001325  -0.082087  -0.083678  -0.00085  3.974758  -0.001
C  C126  1  0.66197786  0.31949778  0.39935917  1  0.23304  0.000131  -0.069253  -0.071813  9e-05  3.923679  0.0
C  C127  1  0.34244302  0.07982883  0.68049837  1  0.287411  -0.000131  -0.069698  -0.072623  -8.9e-05  3.923047  0.0
C  C128  1  0.26263006  0.60064076  0.92014792  1  0.25098  -0.00013  -0.069573  -0.07279  -9e-05  3.923795  0.0
C  C129  1  0.33802109  0.68050238  0.60063914  1  0.232989  -0.000131  -0.069265  -0.071776  -9e-05  3.923608  0.0
C  C130  1  0.65755442  0.92017036  0.31950023  1  0.287446  0.000131  -0.069621  -0.072444  8.9e-05  3.923046  0.0
C  C131  1  0.73736498  0.39936180  0.07985380  1  0.251751  0.000129  -0.06965  -0.072834  9e-05  3.92362  0.0
C  C132  1  0.86724634  0.31083434  0.46355383  1  0.284903  0.000153  -0.07311  -0.09379  0.00013  3.940897  0.0
C  C133  1  0.55634512  0.15272383  0.68916105  1  0.277834  -0.000147  -0.073423  -0.094401  -0.000126  3.942992  0.0
C  C134  1  0.40369170  0.53645220  0.84728385  1  0.305167  -0.000153  -0.073767  -0.094646  -0.00013  3.943186  0.0
C  C135  1  0.13275917  0.68916871  0.53644414  1  0.284785  -0.000153  -0.073212  -0.094105  -0.00013  3.940938  0.0
C  C136  1  0.44366079  0.84727390  0.31084479  1  0.277806  0.000147  -0.073398  -0.09423  0.000126  3.943212  0.0
C  C137  1  0.59630233  0.46355037  0.15271698  1  0.304917  0.000153  -0.07375  -0.094694  0.00013  3.943165  0.0
C  C138  1  0.79341768  0.25494236  0.46835001  1  -0.087233  8e-05  -0.010931  0.096094  2.8e-05  3.988122  0.0
C  C139  1  0.53838244  0.21341384  0.74503300  1  0.005002  -4.5e-05  -0.010554  0.095989  -8e-06  3.987644  0.0
C  C140  1  0.32503414  0.53166118  0.78660217  1  -0.041499  -8e-05  -0.01012  0.096519  -2.8e-05  3.987217  0.0
C  C141  1  0.20659113  0.74506117  0.53164920  1  -0.086579  -8e-05  -0.010862  0.096349  -2.8e-05  3.987904  0.0
C  C142  1  0.46161915  0.78658342  0.25497362  1  0.004912  4.4e-05  -0.010423  0.095913  7e-06  3.988415  0.0
C  C143  1  0.67495898  0.46833752  0.21339637  1  -0.041638  7.9e-05  -0.010109  0.096689  2.8e-05  3.98709  0.0
C  C144  1  0.74239986  0.26688160  0.52349705  1  -0.040656  -0.000531  -0.095525  -0.147514  -0.000398  4.002522  0.0
C  C145  1  0.47542257  0.25661958  0.73309882  1  -0.073155  -0.000596  -0.095295  -0.147337  -0.000436  3.99938  0.0
C  C146  1  0.21885668  0.47652238  0.74340959  1  -0.097471  0.000532  -0.095159  -0.146329  0.000399  4.000793  0.0
C  C147  1  0.25760871  0.73312144  0.47650110  1  -0.041497  0.000531  -0.095539  -0.147623  0.000398  4.002655  0.0
C  C148  1  0.52458382  0.74337913  0.26690833  1  -0.073515  0.000597  -0.095362  -0.147323  0.000436  3.999385  0.0
C  C149  1  0.78114359  0.52347632  0.25659018  1  -0.097404  -0.000531  -0.095119  -0.146416  -0.000398  4.000743  0.0
C  C150  1  0.67260164  0.21640558  0.52910111  1  -0.025863  -0.00085  -0.084499  -0.087284  -0.000517  3.992962  -0.001
C  C151  1  0.45607299  0.31269462  0.78358645  1  -0.03284  -0.000944  -0.085414  -0.089475  -0.00057  3.993716  -0.001
C  C152  1  0.14342861  0.47092511  0.68733980  1  -0.044613  0.000868  -0.085146  -0.088547  0.000517  3.994031  0.001
C  C153  1  0.32740435  0.78359843  0.47089693  1  -0.025627  0.000849  -0.084549  -0.087336  0.000517  3.993105  0.001
C  C154  1  0.54393467  0.68730457  0.21642017  1  -0.032888  0.000944  -0.085356  -0.089455  0.00057  3.993863  0.001
C  C155  1  0.85656660  0.52907166  0.31265877  1  -0.044709  -0.000868  -0.085191  -0.088659  -0.000517  3.99426  -0.001
C  C156  1  0.65316829  0.15244862  0.47942358  1  -0.011434  0.000416  -0.019743  -0.034829  0.000288  3.971981  0.0
C  C157  1  0.50056317  0.32696955  0.84754360  1  -0.026106  0.000263  -0.019763  -0.034014  0.000193  3.97119  0.0
C  C158  1  0.17363175  0.52059160  0.67304368  1  -0.013586  -0.000441  -0.019968  -0.034225  -0.000283  3.971124  0.0
C  C159  1  0.34683722  0.84755443  0.52057315  1  -0.012538  -0.000414  -0.019704  -0.034741  -0.000288  3.9721  0.0
C  C160  1  0.49944551  0.67302964  0.15246308  1  -0.025597  -0.000261  -0.019681  -0.033905  -0.000192  3.97109  0.0
C  C161  1  0.82635968  0.47940373  0.32695152  1  -0.013403  0.000441  -0.01991  -0.033902  0.000283  3.97078  0.0
C  C162  1  0.70216097  0.14016049  0.42386745  1  -0.039865  0.000904  -0.082518  -0.083307  0.000564  3.980884  0.001
C  C163  1  0.56188750  0.28370880  0.85982287  1  -0.06566  0.000956  -0.082245  -0.083351  0.000587  3.981254  0.001
C  C164  1  0.27822140  0.57613571  0.71629210  1  0.000285  -0.000905  -0.082357  -0.084022  -0.000564  3.982031  -0.001
C  C165  1  0.29784580  0.85984304  0.57613123  1  -0.039485  -0.000904  -0.0824  -0.083101  -0.000564  3.980807  -0.001
C  C166  1  0.43812016  0.71629039  0.14018500  1  -0.066145  -0.000955  -0.082326  -0.083339  -0.000587  3.981308  -0.001
C  C167  1  0.72176925  0.42386009  0.28370370  1  0.000244  0.000905  -0.082528  -0.084279  0.000564  3.98208  0.001
C  C168  1  0.77139406  0.19107610  0.41850143  1  -0.071139  0.00067  -0.093845  -0.146569  0.000474  4.005093  0.001
C  C169  1  0.58022220  0.22744508  0.80890504  1  -0.027873  0.000486  -0.093573  -0.145724  0.000372  4.006361  0.0
C  C170  1  0.35285483  0.58149751  0.77256237  1  -0.015627  -0.00066  -0.094044  -0.146438  -0.000474  4.007279  -0.001
C  C171  1  0.22861656  0.80892695  0.58149642  1  -0.070526  -0.00067  -0.09393  -0.14678  -0.000474  4.005108  -0.001
C  C172  1  0.41978113  0.77255363  0.19110277  1  -0.02795  -0.000486  -0.093641  -0.145855  -0.000372  4.006829  0.0
C  C173  1  0.64713907  0.41850071  0.22743433  1  -0.01567  0.000661  -0.093939  -0.14635  0.000474  4.007173  0.001
C  C174  1  0.58769138  0.09761104  0.48710558  1  1.534902  -0.000617  0.213562  0.572447  -0.000517  4.168435  -0.001
C  C175  1  0.49001698  0.38949659  0.90239442  1  1.535562  -0.00066  0.214199  0.573872  -0.000538  4.164245  -0.001
C  C176  1  0.10047931  0.51288806  0.61051636  1  1.529183  0.000622  0.214653  0.573972  0.000521  4.164033  0.001
C  C177  1  0.41231028  0.90239249  0.51289158  1  1.53507  0.000616  0.213585  0.572487  0.000518  4.168261  0.001
C  C178  1  0.50998833  0.61050404  0.09761193  1  1.535422  0.000656  0.214155  0.574084  0.000535  4.164231  0.001
C  C179  1  0.89951134  0.48710775  0.38948109  1  1.529199  -0.000624  0.214503  0.573575  -0.000523  4.163704  -0.001
N  N180  1  0.77455386  0.35293975  0.45979706  1  -1.013804  0.001521  -0.482106  -0.33022  0.000765  3.42067  0.0
N  N181  1  0.42156196  0.10683350  0.64705306  1  -1.006398  -0.001541  -0.48228  -0.329217  -0.000777  3.420344  0.0
N  N182  1  0.31476714  0.54020499  0.89315694  1  -1.005638  -0.00152  -0.481696  -0.328469  -0.000763  3.419752  0.0
N  N183  1  0.22544557  0.64706137  0.54020091  1  -1.013993  -0.001519  -0.482056  -0.33008  -0.000764  3.420569  0.0
N  N184  1  0.57844083  0.89316617  0.35294896  1  -1.006442  0.001541  -0.482275  -0.329363  0.000777  3.420432  0.0
N  N185  1  0.68522996  0.45979758  0.10684365  1  -1.006274  0.001521  -0.481772  -0.328628  0.000763  3.41966  0.0
O  O186  1  0.21472528  0.49929802  0.47603996  1  -1.107721  0.085604  -0.31316  -0.522387  0.055563  2.376265  0.077
O  O187  1  0.71538272  0.97672110  0.50069105  1  -1.114551  -0.085614  -0.312972  -0.522812  -0.055572  2.377742  -0.077
O  O188  1  0.73868491  0.52401884  0.02333235  1  -1.106453  -0.085512  -0.312992  -0.521985  -0.055475  2.376251  -0.077
O  O189  1  0.78527042  0.50069972  0.52395661  1  -1.107779  -0.085602  -0.31318  -0.522427  -0.055562  2.376263  -0.077
O  O190  1  0.28461437  0.02328147  0.49930912  1  -1.114454  0.085618  -0.31302  -0.522859  0.055576  2.377703  0.077
O  O191  1  0.26131530  0.47598180  0.97667288  1  -1.10619  0.08551  -0.313176  -0.522216  0.055475  2.376059  0.077
O  O192  1  0.07486638  0.40494580  0.45393138  1  -1.101717  -0.089437  -0.312775  -0.518661  -0.057962  2.374063  -0.081
O  O193  1  0.66990486  0.04897614  0.59504212  1  -1.112272  0.089424  -0.312948  -0.518953  0.057984  2.374354  0.081
O  O194  1  0.62097483  0.54611898  0.95107034  1  -1.110735  0.089514  -0.312715  -0.518147  0.058106  2.374154  0.081
O  O195  1  0.92512878  0.59505290  0.54606687  1  -1.101641  0.089439  -0.312789  -0.518686  0.057965  2.373957  0.081
O  O196  1  0.33009476  0.95102739  0.40495782  1  -1.112639  -0.089422  -0.312962  -0.519003  -0.057982  2.374267  -0.081
O  O197  1  0.37902610  0.45388310  0.04893562  1  -1.110461  -0.089509  -0.312799  -0.518269  -0.058105  2.374105  -0.081
O  O198  1  0.54255902  0.11138729  0.53804209  1  -1.104432  0.087031  -0.313061  -0.514519  0.056589  2.348479  0.079
O  O199  1  0.43130111  0.42670450  0.88862489  1  -1.109385  0.08705  -0.313882  -0.515662  0.056496  2.347235  0.079
O  O200  1  0.00442089  0.46195269  0.57335572  1  -1.109704  -0.086978  -0.313761  -0.515247  -0.056504  2.345806  -0.079
O  O201  1  0.45744163  0.88861623  0.46195459  1  -1.104729  -0.087038  -0.313101  -0.514594  -0.056593  2.348442  -0.079
O  O202  1  0.56870704  0.57329566  0.11137973  1  -1.109338  -0.087049  -0.313962  -0.515848  -0.056495  2.347241  -0.079
O  O203  1  0.99556639  0.53804457  0.42664182  1  -1.109503  0.086978  -0.313807  -0.515174  0.056504  2.345591  0.079
O  O204  1  0.58609233  0.04101621  0.44236404  1  -1.118813  -0.078681  -0.311318  -0.523737  -0.051282  2.405224  -0.071
O  O205  1  0.54491958  0.40132319  0.95899196  1  -1.117437  -0.078643  -0.311487  -0.524103  -0.051269  2.404145  -0.071
O  O206  1  0.14361861  0.55761596  0.59864086  1  -1.109116  0.078674  -0.311849  -0.524646  0.05122  2.404229  0.071
O  O207  1  0.41390910  0.95898684  0.55763329  1  -1.118488  0.078679  -0.311323  -0.523749  0.05128  2.405114  0.071
O  O208  1  0.45508087  0.59867792  0.04101518  1  -1.117384  0.078643  -0.311459  -0.524291  0.051271  2.404334  0.071
O  O209  1  0.85637282  0.44237937  0.40135558  1  -1.109234  -0.078675  -0.311706  -0.524409  -0.051221  2.404088  -0.071
