# generated using pymatgen
data_CoH24C29N4(ClO4)2
_symmetry_space_group_name_H-M   'P 1'
_cell_length_a   13.05572255
_cell_length_b   13.05571763
_cell_length_c   25.91100860
_cell_angle_alpha   90.00000874
_cell_angle_beta   90.00003580
_cell_angle_gamma   90.00006080
_symmetry_Int_Tables_number   1
_chemical_formula_structural   CoH24C29N4(ClO4)2
_chemical_formula_sum   'Co4 H96 C116 N16 Cl8 O32'
_cell_volume   4416.57875705
_cell_formula_units_Z   4
loop_
 _symmetry_equiv_pos_site_id
 _symmetry_equiv_pos_as_xyz
  1  'x, y, z'
loop_
 _atom_site_type_symbol
 _atom_site_label
 _atom_site_symmetry_multiplicity
 _atom_site_fract_x
 _atom_site_fract_y
 _atom_site_fract_z
 _atom_site_occupancy
 _atom_site_pbe_bader_charge
 _atom_site_pbe_bader_spin_density
 _atom_site_pbe_cm5_charge
 _atom_site_pbe_ddec_charge
 _atom_site_pbe_ddec_spin_density
 _atom_site_pbe_ddec_sum_bond_order
 _atom_site_pbe_magmom
Co  Co0  1  0.74999972  0.74999983  0.38104321  1  1.164876  2.56376  0.572547  0.637082  2.83633  2.725508  2.542
Co  Co1  1  0.24999986  0.24999955  0.88104410  1  1.164861  2.563755  0.572497  0.636965  2.836331  2.725648  2.542
Co  Co2  1  0.24999970  0.24999951  0.61895589  1  1.164829  2.563757  0.572482  0.636943  2.836334  2.725635  2.542
Co  Co3  1  0.75000033  0.74999979  0.11895654  1  1.164836  2.56375  0.572569  0.637057  2.836324  2.725608  2.542
H  H4  1  0.74790346  0.88665031  0.47817876  1  0.139959  0.001831  0.111904  0.091747  0.000554  1.003622  0.001
H  H5  1  0.86533249  0.93014091  0.55281347  1  0.121067  0.000968  0.117957  0.129276  0.000471  0.981627  0.0
H  H6  1  0.10185871  0.75850152  0.47528066  1  0.106114  0.000797  0.115466  0.12529  0.000394  0.990857  0.0
H  H7  1  0.97333933  0.71659236  0.40638459  1  0.125028  0.001465  0.112051  0.091971  0.000116  1.012171  0.001
H  H8  1  0.30204997  0.86461607  0.57516295  1  0.083546  0.000679  0.108599  0.094555  0.000426  0.970562  0.0
H  H9  1  0.21070617  0.91147902  0.62001993  1  0.136756  9.9e-05  0.103562  0.088921  1.7e-05  1.040962  0.0
H  H10  1  0.36475886  0.70170665  0.68628059  1  0.122565  -3.9e-05  0.113482  0.092921  -6.3e-05  0.978459  0.0
H  H11  1  0.41136909  0.79213831  0.64067489  1  0.072528  0.000152  0.112276  0.090161  9.7e-05  0.966776  0.0
H  H12  1  0.20534158  0.98226641  0.73220854  1  0.1187  0.000803  0.109441  0.116845  0.000323  1.026009  0.0
H  H13  1  0.15697846  0.12782083  0.79018656  1  0.091156  0.001637  0.103301  0.080798  0.000418  1.053575  0.001
H  H14  1  0.44206039  0.12837937  0.85935335  1  0.142151  0.001473  0.106692  0.083009  0.000145  1.05864  0.001
H  H15  1  0.50179630  0.98005375  0.80585103  1  0.102058  0.000842  0.119173  0.13741  0.00039  0.983074  0.0
H  H16  1  0.75209611  0.61334860  0.47817914  1  0.139958  0.00183  0.111897  0.091732  0.000554  1.003648  0.001
H  H17  1  0.63466793  0.56985879  0.55281380  1  0.121049  0.000968  0.117978  0.129283  0.000471  0.981601  0.0
H  H18  1  0.39814104  0.74149916  0.47528109  1  0.106105  0.000797  0.115449  0.125291  0.000394  0.990859  0.0
H  H19  1  0.52666091  0.78340730  0.40638453  1  0.125028  0.001465  0.112028  0.091928  0.000116  1.012213  0.001
H  H20  1  0.19794991  0.63538388  0.57516331  1  0.083556  0.000679  0.108606  0.094557  0.000426  0.970559  0.0
H  H21  1  0.28929453  0.58852171  0.62001993  1  0.136755  9.9e-05  0.103567  0.0889  1.7e-05  1.040979  0.0
H  H22  1  0.13524116  0.79829333  0.68628055  1  0.122565  -3.9e-05  0.113492  0.092937  -6.3e-05  0.978434  0.0
H  H23  1  0.08863164  0.70786242  0.64067483  1  0.072531  0.000152  0.112276  0.09015  9.7e-05  0.966795  0.0
H  H24  1  0.29466002  0.51773358  0.73220854  1  0.118683  0.000803  0.109445  0.116827  0.000323  1.026018  0.0
H  H25  1  0.34302268  0.37217823  0.79018660  1  0.091138  0.001637  0.103293  0.080777  0.000418  1.053566  0.001
H  H26  1  0.05794007  0.37162048  0.85935329  1  0.142156  0.001473  0.106683  0.083001  0.000145  1.058662  0.001
H  H27  1  0.99820443  0.51994679  0.80585071  1  0.102067  0.000842  0.119175  0.137425  0.00039  0.983046  0.0
H  H28  1  0.11335103  0.24790385  0.97818001  1  0.13996  0.00183  0.1119  0.091741  0.000554  1.003664  0.001
H  H29  1  0.06985925  0.36533423  0.05281387  1  0.121065  0.000968  0.117996  0.129324  0.000471  0.98158  0.0
H  H30  1  0.24149886  0.60186072  0.97528012  1  0.106069  0.000797  0.115442  0.125255  0.000394  0.990926  0.0
H  H31  1  0.28340834  0.47333926  0.90638431  1  0.124995  0.001466  0.112047  0.091877  0.000116  1.01217  0.001
H  H32  1  0.13538402  0.80205021  0.07516386  1  0.083556  0.000679  0.108597  0.094553  0.000426  0.970625  0.0
H  H33  1  0.08852102  0.71070631  0.12002046  1  0.136755  9.9e-05  0.103558  0.088915  1.7e-05  1.040964  0.0
H  H34  1  0.29829352  0.86475924  0.18628075  1  0.12256  -3.9e-05  0.113491  0.092935  -6.3e-05  0.978431  0.0
H  H35  1  0.20786191  0.91136865  0.14067502  1  0.072533  0.000152  0.112264  0.090127  9.7e-05  0.966816  0.0
H  H36  1  0.01773221  0.70534159  0.23220751  1  0.1187  0.000803  0.109458  0.116818  0.000323  1.026074  0.0
H  H37  1  0.87217822  0.65697856  0.29018570  1  0.091147  0.001637  0.103274  0.080733  0.000418  1.053623  0.001
H  H38  1  0.87162004  0.94205980  0.35935245  1  0.142174  0.001473  0.106697  0.083004  0.000145  1.058643  0.001
H  H39  1  0.01994547  0.00179697  0.30585031  1  0.102077  0.000842  0.119171  0.137431  0.00039  0.983057  0.0
H  H40  1  0.38664958  0.25209603  0.97818044  1  0.139977  0.001831  0.111901  0.091757  0.000554  1.003648  0.001
H  H41  1  0.43014099  0.13466537  0.05281392  1  0.121071  0.000968  0.117963  0.129273  0.000471  0.981613  0.0
H  H42  1  0.25850152  0.89813935  0.97528013  1  0.106073  0.000797  0.115438  0.125264  0.000394  0.990901  0.0
H  H43  1  0.21659219  0.02666060  0.90638467  1  0.125021  0.001465  0.112043  0.091953  0.000116  1.012215  0.001
H  H44  1  0.36461601  0.69794882  0.07516350  1  0.083543  0.000679  0.108608  0.094551  0.000426  0.970568  0.0
H  H45  1  0.41147906  0.78929350  0.12002051  1  0.136753  9.9e-05  0.103554  0.088934  1.7e-05  1.040922  0.0
H  H46  1  0.20170587  0.63524059  0.18628072  1  0.122553  -3.9e-05  0.113473  0.092911  -6.3e-05  0.978468  0.0
H  H47  1  0.29213666  0.58863117  0.14067502  1  0.072539  0.000152  0.112272  0.090147  9.7e-05  0.966801  0.0
H  H48  1  0.48226648  0.79465826  0.23220720  1  0.118696  0.000803  0.109457  0.116854  0.000323  1.025982  0.0
H  H49  1  0.62782264  0.84302106  0.29018528  1  0.091146  0.001637  0.10329  0.080756  0.000418  1.05362  0.001
H  H50  1  0.62838091  0.55794061  0.35935279  1  0.142154  0.001472  0.106678  0.083004  0.000145  1.058636  0.001
H  H51  1  0.48005431  0.49820348  0.30585040  1  0.102074  0.000842  0.119174  0.137432  0.00039  0.98306  0.0
H  H52  1  0.25209597  0.11335132  0.52181995  1  0.139966  0.00183  0.111908  0.091742  0.000554  1.003649  0.001
H  H53  1  0.13466693  0.06985842  0.44718563  1  0.121029  0.000968  0.117979  0.129301  0.000471  0.981632  0.0
H  H54  1  0.89813994  0.24149781  0.52471844  1  0.106104  0.000798  0.115458  0.125277  0.000394  0.990899  0.0
H  H55  1  0.02666009  0.28340773  0.59361489  1  0.125072  0.001466  0.112056  0.091929  0.000116  1.012153  0.001
H  H56  1  0.69795022  0.13538403  0.42483576  1  0.083966  0.000679  0.10862  0.094592  0.000426  0.970559  0.0
H  H57  1  0.78929478  0.08852185  0.37997916  1  0.136729  9.9e-05  0.103551  0.088923  1.7e-05  1.040938  0.0
H  H58  1  0.63524057  0.29829421  0.31371851  1  0.122499  -3.9e-05  0.113496  0.092936  -6.3e-05  0.978461  0.0
H  H59  1  0.58863187  0.20786179  0.35932459  1  0.072546  0.000152  0.112279  0.090144  9.7e-05  0.966795  0.0
H  H60  1  0.79465937  0.01773369  0.26779171  1  0.118689  0.000803  0.109444  0.116847  0.000323  1.025989  0.0
H  H61  1  0.84302249  0.87217774  0.20981408  1  0.091122  0.001637  0.103296  0.080796  0.000418  1.053603  0.001
H  H62  1  0.55794133  0.87161920  0.14064652  1  0.142178  0.001473  0.106688  0.083015  0.000145  1.058619  0.001
H  H63  1  0.49820542  0.01994558  0.19414845  1  0.102085  0.000842  0.119174  0.137418  0.00039  0.983096  0.0
H  H64  1  0.24790332  0.38664920  0.52181996  1  0.139957  0.001831  0.111902  0.091747  0.000554  1.003654  0.001
H  H65  1  0.36533456  0.43014054  0.44718568  1  0.121065  0.000968  0.11796  0.129257  0.000471  0.981625  0.0
H  H66  1  0.60185991  0.25850093  0.52471955  1  0.106093  0.000798  0.115437  0.125269  0.000394  0.990865  0.0
H  H67  1  0.47333928  0.21659280  0.59361495  1  0.125036  0.001465  0.112033  0.09195  0.000116  1.012216  0.001
H  H68  1  0.80205028  0.36461545  0.42483578  1  0.083972  0.000679  0.108619  0.094606  0.000426  0.970539  0.0
H  H69  1  0.71070490  0.41147762  0.37997878  1  0.136722  9.9e-05  0.103564  0.08895  1.7e-05  1.040952  0.0
H  H70  1  0.86475903  0.20170753  0.31371854  1  0.122523  -3.9e-05  0.113518  0.093  -6.3e-05  0.978436  0.0
H  H71  1  0.91136778  0.29213844  0.35932465  1  0.072557  0.000152  0.112283  0.090162  9.7e-05  0.966801  0.0
H  H72  1  0.70534170  0.48226728  0.26779171  1  0.118726  0.000803  0.109468  0.116839  0.000323  1.026011  0.0
H  H73  1  0.65697751  0.62782263  0.20981365  1  0.091122  0.001637  0.103295  0.080786  0.000418  1.053581  0.001
H  H74  1  0.94205935  0.62838115  0.14064657  1  0.142162  0.001473  0.106689  0.083011  0.000145  1.058622  0.001
H  H75  1  0.00179422  0.48005407  0.19414877  1  0.102091  0.000842  0.119167  0.137413  0.00039  0.983085  0.0
H  H76  1  0.88665069  0.75209778  0.02182101  1  0.139929  0.001831  0.111891  0.091739  0.000554  1.00368  0.001
H  H77  1  0.93014094  0.63466740  0.94718715  1  0.121082  0.000968  0.117966  0.129306  0.000471  0.98163  0.0
H  H78  1  0.75850287  0.39814091  0.02471974  1  0.106129  0.000797  0.115475  0.125315  0.000394  0.990826  0.0
H  H79  1  0.71659185  0.52666160  0.09361594  1  0.125027  0.001465  0.112098  0.092045  0.000116  1.01204  0.001
H  H80  1  0.86461541  0.19795142  0.92483755  1  0.083558  0.000679  0.108608  0.094568  0.000426  0.970546  0.0
H  H81  1  0.91147687  0.28929609  0.87998057  1  0.135978  9.9e-05  0.103579  0.088942  1.7e-05  1.040968  0.0
H  H82  1  0.70170666  0.13524086  0.81371989  1  0.12258  -3.9e-05  0.113476  0.09292  -6.3e-05  0.978444  0.0
H  H83  1  0.79213904  0.08863145  0.85932561  1  0.07251  0.000152  0.112254  0.0901  9.7e-05  0.966796  0.0
H  H84  1  0.98226645  0.29465928  0.76779197  1  0.118678  0.000803  0.109448  0.116848  0.000323  1.026017  0.0
H  H85  1  0.12782043  0.34302230  0.70981339  1  0.091143  0.001637  0.103271  0.080746  0.000418  1.053625  0.001
H  H86  1  0.12837862  0.05793953  0.64064741  1  0.142155  0.001473  0.106696  0.083024  0.000145  1.058638  0.001
H  H87  1  0.98005242  0.99820389  0.69414955  1  0.102056  0.000842  0.119167  0.137413  0.00039  0.983057  0.0
H  H88  1  0.61335061  0.74790253  0.02182097  1  0.139941  0.001831  0.111931  0.091772  0.000554  1.003689  0.001
H  H89  1  0.56985997  0.86533243  0.94718710  1  0.121098  0.000968  0.11796  0.12932  0.000471  0.98161  0.0
H  H90  1  0.74149867  0.10185845  0.02471973  1  0.106129  0.000798  0.115451  0.125348  0.000394  0.990826  0.0
H  H91  1  0.78340877  0.97333873  0.09361597  1  0.125016  0.001465  0.112075  0.092005  0.000116  1.012091  0.001
H  H92  1  0.63538418  0.30204898  0.92483752  1  0.083557  0.000679  0.108613  0.094559  0.000426  0.970535  0.0
H  H93  1  0.58852266  0.21070277  0.87998090  1  0.135976  9.9e-05  0.103576  0.088925  1.7e-05  1.040991  0.0
H  H94  1  0.79829278  0.36475874  0.81372030  1  0.122592  -3.9e-05  0.113489  0.092947  -6.3e-05  0.97841  0.0
H  H95  1  0.70786046  0.41136816  0.85932561  1  0.072507  0.000152  0.112264  0.090081  9.7e-05  0.966813  0.0
H  H96  1  0.51773294  0.20534108  0.76779189  1  0.118684  0.000803  0.10947  0.116835  0.000323  1.026041  0.0
H  H97  1  0.37217908  0.15697751  0.70981342  1  0.090992  0.001636  0.103295  0.080775  0.000418  1.053593  0.001
H  H98  1  0.37162005  0.44205949  0.64064708  1  0.142167  0.001473  0.106692  0.083032  0.000145  1.058624  0.001
H  H99  1  0.51994588  0.50179662  0.69414946  1  0.102074  0.000842  0.119175  0.137428  0.00039  0.98306  0.0
C  C100  1  0.82664286  0.85886176  0.47989310  1  0.458391  -0.007501  0.046502  0.091077  -0.007695  3.930015  -0.004
C  C101  1  0.89172930  0.88379264  0.52049361  1  -0.041191  0.00441  -0.074074  -0.136934  0.001985  3.937545  0.004
C  C102  1  0.99247055  0.84713519  0.51968818  1  -0.003257  -0.012878  -0.001865  -0.004173  -0.013204  4.005524  -0.008
C  C103  1  0.02402696  0.78783039  0.47758816  1  -0.077562  0.003794  -0.077218  -0.141136  0.001702  3.944631  0.003
C  C104  1  0.95356184  0.76542460  0.43899930  1  0.513225  -0.0083  0.048376  0.097686  -0.008768  3.930725  -0.005
C  C105  1  0.06133101  0.87030616  0.56405566  1  1.52002  -0.002747  0.237352  0.502023  -0.002934  4.120948  -0.001
C  C106  1  0.23211666  0.84537695  0.59646585  1  0.339102  0.000562  -0.068171  -0.030511  0.000396  3.814061  0.0
C  C107  1  0.34431650  0.76990358  0.66377741  1  0.363306  5.8e-05  -0.060793  -0.019777  7.3e-05  3.828747  0.0
C  C108  1  0.39368040  0.88328765  0.73114493  1  1.517687  -0.00139  0.235928  0.509405  -0.001396  4.106018  0.0
C  C109  1  0.35814585  0.96984358  0.76429917  1  -0.03526  -0.009967  0.001607  0.002957  -0.010229  3.978723  -0.006
C  C110  1  0.25994013  0.01204172  0.76003066  1  0.062926  0.004803  -0.080032  -0.142137  0.002308  3.943542  0.004
C  C111  1  0.23305237  0.09393150  0.79159485  1  0.439666  -0.00628  0.042316  0.093316  -0.006587  3.924157  -0.004
C  C112  1  0.39217802  0.09361985  0.83066476  1  0.440243  -0.006492  0.041998  0.085584  -0.006986  3.939216  -0.004
C  C113  1  0.42519796  0.01151331  0.80077862  1  0.001148  0.004113  -0.071772  -0.132542  0.001986  3.90985  0.003
C  C114  1  0.67335747  0.64113868  0.47989307  1  0.458404  -0.007501  0.04651  0.091106  -0.007695  3.929961  -0.004
C  C115  1  0.60827108  0.61620782  0.52049433  1  -0.041174  0.00441  -0.074107  -0.136989  0.001985  3.937541  0.004
C  C116  1  0.50752907  0.65286526  0.51968848  1  -0.003254  -0.012878  -0.001842  -0.004127  -0.013204  4.005534  -0.008
C  C117  1  0.47597280  0.71217029  0.47758823  1  -0.077557  0.003794  -0.077197  -0.141144  0.001702  3.944593  0.003
C  C118  1  0.54643844  0.73457507  0.43899924  1  0.513225  -0.0083  0.048413  0.097757  -0.008768  3.930778  -0.005
C  C119  1  0.43866886  0.62969378  0.56405533  1  1.520293  -0.002746  0.237358  0.502033  -0.002934  4.120926  -0.001
C  C120  1  0.26788325  0.65462377  0.59646624  1  0.339062  0.000562  -0.068193  -0.030498  0.000396  3.814097  0.0
C  C121  1  0.15568502  0.73009716  0.66377699  1  0.363034  5.8e-05  -0.060817  -0.019804  7.3e-05  3.828698  0.0
C  C122  1  0.10631814  0.61671387  0.73114487  1  1.517722  -0.00139  0.235941  0.509391  -0.001396  4.10606  0.0
C  C123  1  0.14185579  0.53015565  0.76429874  1  -0.035245  -0.009966  0.001568  0.002971  -0.010229  3.978598  -0.006
C  C124  1  0.24006098  0.48795733  0.76003068  1  0.062919  0.004803  -0.079968  -0.14205  0.002308  3.943529  0.004
C  C125  1  0.26694801  0.40606833  0.79159487  1  0.43966  -0.006279  0.042299  0.093317  -0.006586  3.924168  -0.004
C  C126  1  0.10782165  0.40637999  0.83066434  1  0.440232  -0.006492  0.042007  0.085593  -0.006986  3.939192  -0.004
C  C127  1  0.07480244  0.48848652  0.80077820  1  0.001168  0.004113  -0.071751  -0.132543  0.001986  3.909689  0.003
C  C128  1  0.14113889  0.32664179  0.97989319  1  0.458407  -0.007503  0.046504  0.09106  -0.007697  3.92997  -0.004
C  C129  1  0.11620827  0.39173112  0.02049403  1  -0.041174  0.00441  -0.074123  -0.137068  0.001985  3.937576  0.004
C  C130  1  0.15286428  0.49247167  0.01968859  1  -0.003166  -0.012879  -0.001882  -0.00414  -0.013205  4.005429  -0.008
C  C131  1  0.21217068  0.52402890  0.97758724  1  -0.077566  0.003794  -0.077222  -0.141128  0.001702  3.944581  0.003
C  C132  1  0.23457535  0.45356247  0.93899978  1  0.513242  -0.008298  0.048314  0.097677  -0.008766  3.930789  -0.005
C  C133  1  0.12969289  0.56133268  0.06405506  1  1.520206  -0.002747  0.237414  0.50223  -0.002934  4.120868  -0.001
C  C134  1  0.15462383  0.73211765  0.09646639  1  0.339057  0.000562  -0.068179  -0.030548  0.000396  3.814131  0.0
C  C135  1  0.23009659  0.84431605  0.16377717  1  0.363626  5.8e-05  -0.060794  -0.019768  7.3e-05  3.828768  0.0
C  C136  1  0.11671419  0.89368134  0.23114505  1  1.51769  -0.001391  0.235947  0.509372  -0.001396  4.106087  0.0
C  C137  1  0.03015674  0.85814515  0.26429812  1  -0.035249  -0.009967  0.001614  0.003029  -0.01023  3.978623  -0.006
C  C138  1  0.98795661  0.75993964  0.26002982  1  0.062898  0.004804  -0.079956  -0.141968  0.002308  3.943603  0.004
C  C139  1  0.90606762  0.73305253  0.29159361  1  0.440132  -0.006279  0.04223  0.093244  -0.006586  3.92428  -0.004
C  C140  1  0.90637794  0.89217822  0.33066465  1  0.440245  -0.006493  0.042019  0.085634  -0.006987  3.939109  -0.004
C  C141  1  0.98848599  0.92519828  0.30077775  1  0.001187  0.004114  -0.071791  -0.132632  0.001986  3.90971  0.003
C  C142  1  0.35886019  0.17335810  0.97989361  1  0.458427  -0.007503  0.046503  0.09103  -0.007697  3.929914  -0.004
C  C143  1  0.38379193  0.10826848  0.02049367  1  -0.041209  0.00441  -0.07413  -0.137018  0.001985  3.93765  0.004
C  C144  1  0.34713592  0.00752792  0.01968821  1  -0.003171  -0.012879  -0.001756  -0.003949  -0.013205  4.005524  -0.008
C  C145  1  0.28782970  0.97597116  0.97758766  1  -0.077573  0.003794  -0.077192  -0.141129  0.001702  3.944657  0.003
C  C146  1  0.26542368  0.04643741  0.93899977  1  0.513227  -0.008299  0.048329  0.097612  -0.008767  3.930873  -0.005
C  C147  1  0.37030712  0.93866711  0.06405549  1  1.519726  -0.002747  0.237339  0.502002  -0.002934  4.120955  -0.001
C  C148  1  0.34537622  0.76788215  0.09646642  1  0.339045  0.000562  -0.068184  -0.030562  0.000396  3.813983  0.0
C  C149  1  0.26990278  0.65568377  0.16377717  1  0.363313  5.8e-05  -0.060788  -0.019791  7.3e-05  3.828738  0.0
C  C150  1  0.38328680  0.60631926  0.23114469  1  1.517699  -0.00139  0.235964  0.509395  -0.001396  4.105977  0.0
C  C151  1  0.46984352  0.64185470  0.26429819  1  -0.035274  -0.009967  0.001622  0.003027  -0.010229  3.978591  -0.006
C  C152  1  0.51204345  0.74005921  0.26002935  1  0.062909  0.004804  -0.07995  -0.141958  0.002309  3.943574  0.004
C  C153  1  0.59393325  0.76694709  0.29159317  1  0.440143  -0.00628  0.042242  0.093205  -0.006587  3.924417  -0.004
C  C154  1  0.59362221  0.60782142  0.33066498  1  0.439798  -0.006493  0.041971  0.085563  -0.006987  3.939185  -0.004
C  C155  1  0.51151412  0.57480135  0.30077805  1  0.001184  0.004114  -0.07177  -0.132609  0.001986  3.909638  0.003
C  C156  1  0.25000074  0.75000036  0.62990106  1  0.067786  -0.000109  -0.023168  0.038776  -0.000156  3.827438  0.0
C  C157  1  0.24999966  0.75000029  0.12990123  1  0.067518  -0.000109  -0.023186  0.038853  -0.000156  3.827319  0.0
C  C158  1  0.17335809  0.14113910  0.52010638  1  0.458388  -0.007503  0.046518  0.091125  -0.007697  3.929848  -0.004
C  C159  1  0.10827089  0.11620899  0.47950509  1  -0.041156  0.004409  -0.074073  -0.136985  0.001984  3.937528  0.004
C  C160  1  0.00752888  0.15286490  0.48031091  1  -0.003207  -0.012881  -0.001921  -0.004182  -0.013207  4.005473  -0.008
C  C161  1  0.97597246  0.21216971  0.52241171  1  -0.077566  0.003793  -0.077191  -0.141095  0.001702  3.944583  0.003
C  C162  1  0.04643758  0.23457473  0.56100018  1  0.513486  -0.008301  0.048288  0.097611  -0.008768  3.930839  -0.005
C  C163  1  0.93866765  0.12969470  0.43594575  1  1.519983  -0.002748  0.237516  0.50224  -0.002936  4.120658  -0.001
C  C164  1  0.76788277  0.15462391  0.40353286  1  0.338702  0.000562  -0.068203  -0.030565  0.000396  3.814042  0.0
C  C165  1  0.65568292  0.23009729  0.33622207  1  0.363364  5.8e-05  -0.060801  -0.019736  7.3e-05  3.828719  0.0
C  C166  1  0.60631749  0.11671398  0.26885417  1  1.51762  -0.00139  0.235906  0.509402  -0.001396  4.106273  0.0
C  C167  1  0.64185510  0.03015651  0.23570031  1  -0.035126  -0.009967  0.0016  0.003023  -0.01023  3.978536  -0.006
C  C168  1  0.74006082  0.98795761  0.23996920  1  0.062946  0.004804  -0.079989  -0.142066  0.002309  3.94335  0.004
C  C169  1  0.76694859  0.90606706  0.20840540  1  0.439656  -0.00628  0.042246  0.093186  -0.006587  3.92416  -0.004
C  C170  1  0.60782370  0.90637795  0.16933511  1  0.439769  -0.006494  0.042001  0.085596  -0.006987  3.939183  -0.004
C  C171  1  0.57480300  0.98848602  0.19922086  1  0.001207  0.004114  -0.071799  -0.132613  0.001986  3.909861  0.003
C  C172  1  0.32664195  0.35886065  0.52010680  1  0.458409  -0.007502  0.046503  0.091037  -0.007696  3.929979  -0.004
C  C173  1  0.39173064  0.38379075  0.47950592  1  -0.041172  0.00441  -0.074083  -0.136903  0.001985  3.937572  0.004
C  C174  1  0.49247112  0.34713483  0.48031177  1  -0.003262  -0.012878  -0.001821  -0.004125  -0.013204  4.005608  -0.008
C  C175  1  0.52402739  0.28782981  0.52241202  1  -0.077569  0.003794  -0.077183  -0.141093  0.001702  3.944671  0.003
C  C176  1  0.45356252  0.26542503  0.56100063  1  0.513205  -0.008299  0.04835  0.097647  -0.008767  3.930857  -0.005
C  C177  1  0.56133133  0.37030709  0.43594454  1  1.52031  -0.002746  0.237375  0.502012  -0.002934  4.120921  -0.001
C  C178  1  0.73211618  0.34537633  0.40353286  1  0.338711  0.000562  -0.0682  -0.030609  0.000396  3.814112  0.0
C  C179  1  0.84431517  0.26990294  0.33622249  1  0.363051  5.8e-05  -0.060809  -0.019856  7.3e-05  3.828836  0.0
C  C180  1  0.89368128  0.38328546  0.26885383  1  1.517612  -0.00139  0.235912  0.509371  -0.001396  4.106165  0.0
C  C181  1  0.85814287  0.46984291  0.23569997  1  -0.035158  -0.009966  0.001519  0.002922  -0.010229  3.978683  -0.006
C  C182  1  0.75993998  0.51204353  0.23996918  1  0.0629  0.004803  -0.079985  -0.142007  0.002308  3.94347  0.004
C  C183  1  0.73305141  0.59393330  0.20840577  1  0.43903  -0.00628  0.042265  0.093245  -0.006587  3.924057  -0.004
C  C184  1  0.89217624  0.59362164  0.16933514  1  0.440217  -0.006493  0.042042  0.085662  -0.006987  3.939265  -0.004
C  C185  1  0.92519622  0.51151281  0.19922089  1  0.001215  0.004114  -0.07178  -0.132614  0.001986  3.909861  0.003
C  C186  1  0.85886130  0.67335908  0.02010783  1  0.458424  -0.007502  0.046563  0.091126  -0.007696  3.929961  -0.004
C  C187  1  0.88379269  0.60827128  0.97950700  1  -0.041187  0.00441  -0.074106  -0.137038  0.001985  3.937568  0.004
C  C188  1  0.84713591  0.50752996  0.98031282  1  -0.003116  -0.012879  -0.001843  -0.00407  -0.013205  4.005456  -0.008
C  C189  1  0.78783104  0.47597426  0.02241262  1  -0.077543  0.003794  -0.077228  -0.141187  0.001702  3.944551  0.003
C  C190  1  0.76542407  0.54643916  0.06100163  1  0.513191  -0.008301  0.048279  0.097584  -0.008769  3.930556  -0.005
C  C191  1  0.87030577  0.43867048  0.93594519  1  1.519936  -0.002747  0.237296  0.501918  -0.002935  4.120874  -0.001
C  C192  1  0.84537559  0.26788475  0.90353502  1  0.339882  0.000562  -0.06822  -0.030556  0.000396  3.814118  0.0
C  C193  1  0.76990360  0.15568482  0.83622346  1  0.363663  5.8e-05  -0.060746  -0.019665  7.3e-05  3.828582  0.0
C  C194  1  0.88328447  0.10631875  0.76885559  1  1.517709  -0.00139  0.235953  0.509313  -0.001396  4.106234  0.0
C  C195  1  0.96984191  0.14185648  0.73570097  1  -0.035295  -0.009965  0.001565  0.003006  -0.010227  3.978688  -0.006
C  C196  1  0.01204205  0.24006046  0.73996966  1  0.062921  0.004804  -0.08002  -0.142145  0.002309  3.943594  0.004
C  C197  1  0.09393180  0.26694833  0.70840549  1  0.439659  -0.006279  0.042319  0.093334  -0.006586  3.924134  -0.004
C  C198  1  0.09362072  0.10782188  0.66933521  1  0.440262  -0.006492  0.042006  0.085555  -0.006986  3.939093  -0.004
C  C199  1  0.01151190  0.07480259  0.69922250  1  0.001206  0.004114  -0.071796  -0.132592  0.001986  3.90971  0.003
C  C200  1  0.64113923  0.82664123  0.02010742  1  0.458445  -0.007502  0.046521  0.091087  -0.007697  3.930026  -0.004
C  C201  1  0.61620826  0.89172855  0.97950735  1  -0.04124  0.00441  -0.074082  -0.137034  0.001985  3.937583  0.004
C  C202  1  0.65286504  0.99246911  0.98031320  1  -0.003099  -0.012879  -0.001823  -0.004008  -0.013205  4.005392  -0.008
C  C203  1  0.71217049  0.02402510  0.02241298  1  -0.077566  0.003794  -0.077257  -0.141343  0.001702  3.944633  0.003
C  C204  1  0.73457574  0.95356039  0.06100202  1  0.513196  -0.0083  0.048323  0.097669  -0.008769  3.930678  -0.005
C  C205  1  0.62969537  0.06132916  0.93594514  1  1.520173  -0.002747  0.237353  0.502002  -0.002935  4.120651  -0.001
C  C206  1  0.65462397  0.23211488  0.90353499  1  0.339869  0.000562  -0.068232  -0.030565  0.000396  3.81421  0.0
C  C207  1  0.73009587  0.34431556  0.83622346  1  0.363634  5.8e-05  -0.060752  -0.019636  7.3e-05  3.828665  0.0
C  C208  1  0.61671339  0.39368236  0.76885517  1  1.517714  -0.00139  0.235913  0.509325  -0.001396  4.106047  0.0
C  C209  1  0.53015667  0.35814539  0.73570168  1  -0.035266  -0.009966  0.001625  0.003061  -0.010229  3.978652  -0.006
C  C210  1  0.48795750  0.25994012  0.73997012  1  0.062921  0.004803  -0.079996  -0.142058  0.002308  3.94364  0.004
C  C211  1  0.40606771  0.23305224  0.70840592  1  0.440307  -0.006279  0.042269  0.093292  -0.006587  3.924195  -0.004
C  C212  1  0.40638028  0.39217715  0.66933566  1  0.440252  -0.006492  0.041974  0.085523  -0.006986  3.939191  -0.004
C  C213  1  0.48848684  0.42519798  0.69922181  1  0.001161  0.004113  -0.071757  -0.132571  0.001986  3.909735  0.003
C  C214  1  0.74999945  0.24999973  0.37009803  1  0.067777  -0.000109  -0.023238  0.038728  -0.000156  3.827438  0.0
C  C215  1  0.74999976  0.25000057  0.87010018  1  0.06747  -0.000109  -0.023164  0.03874  -0.000156  3.827292  0.0
N  N216  1  0.85626736  0.79961647  0.43998613  1  -1.209895  0.055206  -0.313729  -0.213028  0.030673  3.561716  0.049
N  N217  1  0.29791822  0.13496337  0.82638703  1  -1.226575  0.058501  -0.319418  -0.225979  0.032397  3.563527  0.052
N  N218  1  0.64373216  0.70038473  0.43998609  1  -1.209923  0.055206  -0.313744  -0.213058  0.030673  3.561706  0.049
N  N219  1  0.20208144  0.36503647  0.82638702  1  -1.226556  0.058501  -0.319438  -0.22603  0.032397  3.563626  0.052
N  N220  1  0.20038493  0.35626791  0.93998700  1  -1.209843  0.055208  -0.313647  -0.212861  0.030674  3.561629  0.049
N  N221  1  0.86503662  0.79791758  0.32638692  1  -1.227048  0.058502  -0.31941  -0.225988  0.032398  3.563536  0.052
N  N222  1  0.29961334  0.14373273  0.93998739  1  -1.209878  0.055207  -0.313706  -0.212959  0.030674  3.561622  0.049
N  N223  1  0.63496428  0.70208282  0.32638650  1  -1.226608  0.058504  -0.319407  -0.225981  0.032398  3.563626  0.052
N  N224  1  0.14373130  0.20038593  0.56001335  1  -1.210144  0.055207  -0.313659  -0.212941  0.030673  3.561578  0.049
N  N225  1  0.70208350  0.86503443  0.17361245  1  -1.226194  0.058503  -0.319382  -0.225905  0.032397  3.563491  0.052
N  N226  1  0.35626727  0.29961536  0.56001339  1  -1.209898  0.055208  -0.313701  -0.212967  0.030674  3.561703  0.049
N  N227  1  0.79791798  0.63496516  0.17361246  1  -1.226008  0.058503  -0.319425  -0.226017  0.032398  3.563553  0.052
N  N228  1  0.79961602  0.64373372  0.06001441  1  -1.209956  0.055208  -0.313719  -0.212992  0.030674  3.561685  0.049
N  N229  1  0.13496280  0.20208175  0.67361294  1  -1.226551  0.058503  -0.319392  -0.225924  0.032398  3.563519  0.052
N  N230  1  0.70038532  0.85626660  0.06001440  1  -1.209975  0.055208  -0.313722  -0.212999  0.030674  3.561772  0.049
N  N231  1  0.36503667  0.29791804  0.67361298  1  -1.22705  0.0585  -0.319428  -0.226  0.032396  3.563521  0.052
Cl  Cl232  1  0.67334147  0.91539552  0.38223073  1  -0.664841  0.138733  -0.325423  -0.54635  0.072187  1.163719  0.1
Cl  Cl233  1  0.82665797  0.58460413  0.38223074  1  -0.664842  0.138732  -0.325423  -0.546348  0.072187  1.163735  0.1
Cl  Cl234  1  0.08460568  0.17334339  0.88223121  1  -0.664844  0.138734  -0.325415  -0.546328  0.072189  1.163768  0.1
Cl  Cl235  1  0.41539328  0.32665723  0.88223088  1  -0.664847  0.138735  -0.325413  -0.546315  0.072189  1.163746  0.1
Cl  Cl236  1  0.32665719  0.08460534  0.61776914  1  -0.66483  0.138733  -0.325413  -0.546327  0.072188  1.163764  0.1
Cl  Cl237  1  0.17334222  0.41539443  0.61776835  1  -0.664827  0.138734  -0.325417  -0.546322  0.072188  1.163739  0.1
Cl  Cl238  1  0.91539374  0.82665748  0.11776942  1  -0.664835  0.13874  -0.325416  -0.546346  0.072192  1.163782  0.1
Cl  Cl239  1  0.58460461  0.67334210  0.11776898  1  -0.664844  0.138733  -0.325424  -0.546357  0.072188  1.163759  0.1
O  O240  1  0.03576832  0.92036545  0.60182957  1  -1.134363  -0.003485  -0.264718  -0.448503  -0.003405  2.162239  -0.003
O  O241  1  0.15494970  0.82743841  0.55723001  1  -1.063576  -0.001141  -0.165147  -0.229963  -0.001109  2.523949  -0.001
O  O242  1  0.31844898  0.85255854  0.69846074  1  -1.068673  -3e-05  -0.16303  -0.226862  -0.000205  2.551841  0.0
O  O243  1  0.47874882  0.84476128  0.73288706  1  -1.108343  -0.002502  -0.277265  -0.444961  -0.002565  2.063119  -0.002
O  O244  1  0.46423389  0.57963450  0.60182885  1  -1.13464  -0.003485  -0.264731  -0.448523  -0.003405  2.162151  -0.003
O  O245  1  0.34505093  0.67256154  0.55722926  1  -1.063545  -0.001141  -0.165147  -0.229957  -0.001109  2.523997  -0.001
O  O246  1  0.18155411  0.64744221  0.69846071  1  -1.068685  -3.1e-05  -0.163077  -0.22691  -0.000205  2.551839  0.0
O  O247  1  0.02125125  0.65523871  0.73288543  1  -1.108344  -0.002501  -0.277244  -0.444938  -0.002564  2.063251  -0.002
O  O248  1  0.07963363  0.53576915  0.10182818  1  -1.134612  -0.003485  -0.264727  -0.448596  -0.003405  2.162218  -0.003
O  O249  1  0.17256303  0.65494993  0.05723017  1  -1.063586  -0.001141  -0.165124  -0.229982  -0.001109  2.52396  -0.001
O  O250  1  0.14744242  0.81844842  0.19846010  1  -1.068989  -3.1e-05  -0.163056  -0.226894  -0.000205  2.551915  0.0
O  O251  1  0.15524217  0.97874907  0.23288602  1  -1.108368  -0.002502  -0.277279  -0.444977  -0.002565  2.063195  -0.002
O  O252  1  0.42036643  0.96423065  0.10182902  1  -1.134362  -0.003485  -0.26472  -0.448527  -0.003405  2.162192  -0.003
O  O253  1  0.32743927  0.84504910  0.05722943  1  -1.063333  -0.001141  -0.165128  -0.22993  -0.00111  2.523949  -0.001
O  O254  1  0.35255853  0.68155218  0.19846090  1  -1.068671  -3.1e-05  -0.163039  -0.226858  -0.000205  2.551861  0.0
O  O255  1  0.34476035  0.52125000  0.23288642  1  -1.10835  -0.002502  -0.277291  -0.444984  -0.002565  2.063098  -0.002
O  O256  1  0.96423264  0.07963312  0.39817030  1  -1.13461  -0.003487  -0.264824  -0.448658  -0.003407  2.161917  -0.003
O  O257  1  0.84504896  0.17256322  0.44277024  1  -1.063377  -0.001141  -0.165144  -0.229968  -0.00111  2.523961  -0.001
O  O258  1  0.68154968  0.14744232  0.30153797  1  -1.06862  -3.1e-05  -0.163043  -0.226928  -0.000205  2.55191  0.0
O  O259  1  0.52124907  0.15524035  0.26711242  1  -1.108438  -0.002502  -0.277231  -0.444975  -0.002565  2.063348  -0.002
O  O260  1  0.53576630  0.42036789  0.39817140  1  -1.134663  -0.003485  -0.264744  -0.448497  -0.003405  2.16217  -0.003
O  O261  1  0.65494926  0.32743780  0.44277022  1  -1.06356  -0.001141  -0.16514  -0.229953  -0.001109  2.523946  -0.001
O  O262  1  0.81844761  0.35255942  0.30153916  1  -1.068659  -3e-05  -0.163021  -0.226829  -0.000205  2.551873  0.0
O  O263  1  0.97874740  0.34475985  0.26711289  1  -1.108361  -0.002501  -0.277235  -0.444943  -0.002564  2.063312  -0.002
O  O264  1  0.92036656  0.46423401  0.89817207  1  -1.134606  -0.003485  -0.264672  -0.448446  -0.003405  2.16219  -0.003
O  O265  1  0.82743640  0.34505094  0.94277124  1  -1.063372  -0.001141  -0.165146  -0.229958  -0.001109  2.524007  -0.001
O  O266  1  0.85255854  0.18155321  0.80154015  1  -1.068997  -3e-05  -0.163028  -0.226847  -0.000205  2.551926  0.0
O  O267  1  0.84475726  0.02125332  0.76711500  1  -1.108348  -0.002501  -0.277267  -0.444926  -0.002564  2.063316  -0.002
O  O268  1  0.57963452  0.03576562  0.89817123  1  -1.1346  -0.003485  -0.26473  -0.448503  -0.003405  2.162018  -0.003
O  O269  1  0.67256398  0.15494870  0.94277044  1  -1.063585  -0.001141  -0.16514  -0.229967  -0.00111  2.524072  -0.001
O  O270  1  0.64744243  0.31844715  0.80153973  1  -1.069002  -3.1e-05  -0.163044  -0.226884  -0.000205  2.551823  0.0
O  O271  1  0.65523907  0.47874933  0.76711576  1  -1.108361  -0.002502  -0.277261  -0.444953  -0.002564  2.063222  -0.002
