# generated using pymatgen
data_CuP2H18C12(NO4)2
_symmetry_space_group_name_H-M   'P 1'
_cell_length_a   8.94542777
_cell_length_b   9.48981921
_cell_length_c   11.10831089
_cell_angle_alpha   73.68095300
_cell_angle_beta   66.26468592
_cell_angle_gamma   61.88329169
_symmetry_Int_Tables_number   1
_chemical_formula_structural   CuP2H18C12(NO4)2
_chemical_formula_sum   'Cu2 P4 H36 C24 N4 O16'
_cell_volume   756.47411625
_cell_formula_units_Z   2
loop_
 _symmetry_equiv_pos_site_id
 _symmetry_equiv_pos_as_xyz
  1  'x, y, z'
loop_
 _atom_site_type_symbol
 _atom_site_label
 _atom_site_symmetry_multiplicity
 _atom_site_fract_x
 _atom_site_fract_y
 _atom_site_fract_z
 _atom_site_occupancy
 _atom_site_pbe_cm5_charge
 _atom_site_pbe_ddec_charge
 _atom_site_pbe_ddec_spin_density
 _atom_site_pbe_ddec_sum_bond_order
 _atom_site_pbe_magmom
Cu  Cu0  1  0.99999861  0.50000020  0.00000043  1  0.745794  0.88943  0.763454  2.014667  0.599
Cu  Cu1  1  0.50000237  0.99999880  0.49999936  1  0.744655  0.890456  -0.763412  2.011799  -0.599
P  P2  1  0.86550024  0.80076661  0.78915362  1  0.363603  1.268085  0.002607  5.29599  0.001
P  P3  1  0.45541161  0.69923956  0.71089592  1  0.363689  1.268519  -0.002599  5.294995  -0.001
P  P4  1  0.13450036  0.19923405  0.21084606  1  0.363664  1.268213  0.002607  5.295985  0.001
P  P5  1  0.54458900  0.30076109  0.28910377  1  0.363698  1.268573  -0.0026  5.2949  -0.001
H  H6  1  0.68240100  0.54177859  0.91089077  1  0.2887  0.39469  -0.0  0.940298  0.0
H  H7  1  0.13524247  0.95828570  0.58907528  1  0.289164  0.395224  0.0  0.9393  0.0
H  H8  1  0.31759952  0.45822207  0.08911021  1  0.28868  0.394661  -0.0  0.940327  0.0
H  H9  1  0.86475586  0.04171616  0.41092479  1  0.289194  0.395268  0.0  0.939252  0.0
H  H10  1  0.63940436  0.46127462  0.05619060  1  0.281684  0.382225  -0.000239  0.963497  0.0
H  H11  1  0.15698621  0.03870586  0.44373750  1  0.282548  0.384488  0.000238  0.960952  0.0
H  H12  1  0.36059617  0.53872604  0.94381038  1  0.281683  0.382219  -0.000239  0.963508  0.0
H  H13  1  0.84301303  0.96129599  0.55626167  1  0.282542  0.384493  0.000238  0.960949  0.0
H  H14  1  0.72700008  0.74314812  0.69396855  1  0.314705  0.395157  -0.000349  0.943277  0.0
H  H15  1  0.16406471  0.75674359  0.80606609  1  0.313901  0.394025  0.00035  0.942747  0.0
H  H16  1  0.27300106  0.25685134  0.30603125  1  0.314705  0.395162  -0.000349  0.943274  0.0
H  H17  1  0.83593563  0.24325948  0.19393376  1  0.313896  0.393993  0.00035  0.942759  0.0
H  H18  1  0.77230283  0.17229270  0.98542422  1  0.091594  0.136036  1.8e-05  1.02739  0.0
H  H19  1  0.93010806  0.32762747  0.51456889  1  0.091412  0.135392  -1.8e-05  1.027239  0.0
H  H20  1  0.22769695  0.82770796  0.01457507  1  0.091584  0.136035  1.8e-05  1.027409  0.0
H  H21  1  0.06989238  0.67237320  0.48543339  1  0.091398  0.135376  -1.8e-05  1.02725  0.0
H  H22  1  0.85732408  0.10992933  0.82421847  1  0.092933  0.138061  -2e-05  1.015747  0.0
H  H23  1  0.79155659  0.38999463  0.67577994  1  0.092663  0.137784  2e-05  1.016064  0.0
H  H24  1  0.14267652  0.89007133  0.17578122  1  0.092942  0.138087  -2e-05  1.015729  0.0
H  H25  1  0.20844138  0.61000604  0.32422115  1  0.092673  0.137797  2e-05  1.016042  0.0
H  H26  1  0.92372024  0.97091029  0.95507449  1  0.092753  0.13683  -1.6e-05  1.017373  0.0
H  H27  1  0.84974174  0.52903475  0.54492723  1  0.092035  0.135403  1.7e-05  1.018903  0.0
H  H28  1  0.07627900  0.02909156  0.04492469  1  0.09275  0.136819  -1.6e-05  1.017372  0.0
H  H29  1  0.15025652  0.47096712  0.45507414  1  0.092037  0.135412  1.6e-05  1.018908  0.0
H  H30  1  0.51584418  0.79015428  0.89996630  1  0.103018  0.09755  1.7e-05  1.080729  0.0
H  H31  1  0.20607028  0.70978864  0.60013699  1  0.103433  0.097791  -1.7e-05  1.081502  0.0
H  H32  1  0.48415696  0.20984517  0.10003350  1  0.102988  0.097528  1.7e-05  1.080762  0.0
H  H33  1  0.79392942  0.29021202  0.39986360  1  0.103432  0.09778  -1.7e-05  1.081527  0.0
H  H34  1  0.93929939  0.33847483  0.84485276  1  0.128425  0.112328  0.000536  1.042042  0.001
H  H35  1  0.12232906  0.16176168  0.65542813  1  0.127049  0.110102  -0.000538  1.043847  -0.001
H  H36  1  0.06069965  0.66152581  0.15514484  1  0.128424  0.112334  0.000536  1.042051  0.001
H  H37  1  0.87766987  0.83824136  0.34456704  1  0.127063  0.11005  -0.000538  1.043879  -0.001
H  H38  1  0.40269838  0.34109689  0.84170429  1  0.129764  0.113774  0.000492  1.00962  0.001
H  H39  1  0.58518109  0.15905953  0.65870543  1  0.128894  0.113007  -0.000492  1.010475  -0.001
H  H40  1  0.59729975  0.65889776  0.15829749  1  0.12977  0.113778  0.000492  1.009562  0.001
H  H41  1  0.41481771  0.84093514  0.34129934  1  0.128926  0.113033  -0.000492  1.010472  -0.001
C  C42  1  0.80961566  0.07450228  0.93099424  1  -0.247736  -0.4299  9e-06  3.927551  0.0
C  C43  1  0.81521976  0.42540674  0.56900134  1  -0.244834  -0.425217  -8e-06  3.926312  0.0
C  C44  1  0.19038584  0.92549837  0.06900455  1  -0.247731  -0.429912  9e-06  3.927523  0.0
C  C45  1  0.18477903  0.57459393  0.43100015  1  -0.24483  -0.425232  -9e-06  3.926297  0.0
C  C46  1  0.65353013  0.03304685  0.96514960  1  -0.004499  0.185948  -0.000144  3.949852  0.0
C  C47  1  0.65180766  0.46686065  0.53484179  1  -0.005174  0.18366  0.000144  3.950398  0.0
C  C48  1  0.34646957  0.96695381  0.03485098  1  -0.004492  0.185984  -0.000144  3.949859  0.0
C  C49  1  0.34819212  0.53314001  0.46515750  1  -0.005153  0.183716  0.000144  3.950381  0.0
C  C50  1  0.66087846  0.91339278  0.90821307  1  -0.032455  -0.271459  -0.000115  4.012762  0.0
C  C51  1  0.48261297  0.58649316  0.59183318  1  -0.03336  -0.272936  0.000114  4.015734  0.0
C  C52  1  0.33912296  0.08660788  0.09178701  1  -0.032476  -0.271529  -0.000115  4.012709  0.0
C  C53  1  0.51738673  0.41350751  0.40816741  1  -0.033337  -0.272933  0.000114  4.015753  0.0
C  C54  1  0.50887453  0.88312598  0.94359887  1  -0.090762  -0.135776  0.000101  3.984603  0.0
C  C55  1  0.33568543  0.61683833  0.55645687  1  -0.091909  -0.135328  -0.000107  3.987595  0.0
C  C56  1  0.49112653  0.11687349  0.05640223  1  -0.090727  -0.135713  0.000101  3.984543  0.0
C  C57  1  0.66431434  0.38316232  0.44354242  1  -0.091877  -0.135261  -0.000107  3.987572  0.0
C  C58  1  0.08370019  0.29885439  0.80128857  1  0.062674  0.060981  -0.004031  3.841327  -0.005
C  C59  1  0.18358705  0.20132564  0.69901405  1  0.066943  0.068699  0.004021  3.841289  0.005
C  C60  1  0.91629830  0.70114745  0.19870891  1  0.062597  0.060795  -0.004031  3.841408  -0.005
C  C61  1  0.81641227  0.79867621  0.30098382  1  0.066933  0.068801  0.004021  3.841194  0.005
C  C62  1  0.33990143  0.30044463  0.80059487  1  0.065897  0.063883  -0.003598  3.861368  -0.005
C  C63  1  0.44063266  0.19969674  0.69979447  1  0.069785  0.066707  0.003588  3.859004  0.005
C  C64  1  0.66009626  0.69955483  0.19940594  1  0.065868  0.063825  -0.003598  3.861288  -0.005
C  C65  1  0.55936612  0.80030031  0.30020657  1  0.069744  0.066626  0.003588  3.859055  0.005
N  N66  1  0.16163725  0.34884786  0.85181994  1  -0.301915  -0.16951  0.05629  3.525501  0.073
N  N67  1  0.36203012  0.15134084  0.64847977  1  -0.30617  -0.175699  -0.056435  3.52474  -0.073
N  N68  1  0.83836106  0.65115039  0.14817970  1  -0.301837  -0.169296  0.056289  3.525385  0.073
N  N69  1  0.63796883  0.84865982  0.35151912  1  -0.306142  -0.175633  -0.056436  3.524634  -0.073
O  O70  1  0.73256621  0.49376965  0.98441307  1  -0.602736  -0.811732  -0.002385  2.064833  -0.002
O  O71  1  0.21079172  0.00639160  0.51554881  1  -0.603719  -0.814205  0.002398  2.061843  0.003
O  O72  1  0.26743395  0.50622982  0.01558893  1  -0.602728  -0.811693  -0.002385  2.064859  -0.002
O  O73  1  0.78920607  0.99361147  0.48445114  1  -0.603732  -0.814248  0.002398  2.061839  0.003
O  O74  1  0.00673464  0.68821492  0.85952653  1  -0.370124  -0.742374  0.047512  2.358799  0.066
O  O75  1  0.55432817  0.81184981  0.64055240  1  -0.370108  -0.742358  -0.047393  2.353984  -0.066
O  O76  1  0.99326704  0.31178333  0.14047339  1  -0.370143  -0.74241  0.047509  2.358905  0.066
O  O77  1  0.44567579  0.18814724  0.35944713  1  -0.370143  -0.742378  -0.047393  2.353912  -0.066
O  O78  1  0.92817234  0.91635698  0.67889732  1  -0.359959  -0.729143  0.011287  2.181969  0.015
O  O79  1  0.52340555  0.58373502  0.82119044  1  -0.359965  -0.728642  -0.011274  2.183599  -0.015
O  O80  1  0.07182736  0.08364368  0.32110326  1  -0.359976  -0.729173  0.011287  2.181967  0.015
O  O81  1  0.47659386  0.41626443  0.17880986  1  -0.359961  -0.728662  -0.011273  2.183573  -0.015
O  O82  1  0.82596667  0.68782639  0.73545852  1  -0.379521  -0.642376  -0.000433  2.29896  0.0
O  O83  1  0.24921882  0.81206760  0.76455251  1  -0.377581  -0.639731  0.000433  2.299023  0.0
O  O84  1  0.17403447  0.31217306  0.26454129  1  -0.379522  -0.642416  -0.000433  2.298995  0.0
O  O85  1  0.75078214  0.18793425  0.23544616  1  -0.377572  -0.639714  0.000433  2.299  0.0
