# generated using pymatgen
data_CuH17C13SN2O7
_symmetry_space_group_name_H-M   'P 1'
_cell_length_a   8.90404448
_cell_length_b   9.35269319
_cell_length_c   12.45262610
_cell_angle_alpha   98.32867897
_cell_angle_beta   91.61629732
_cell_angle_gamma   102.25421585
_symmetry_Int_Tables_number   1
_chemical_formula_structural   CuH17C13SN2O7
_chemical_formula_sum   'Cu2 H34 C26 S2 N4 O14'
_cell_volume   1000.83384869
_cell_formula_units_Z   2
loop_
 _symmetry_equiv_pos_site_id
 _symmetry_equiv_pos_as_xyz
  1  'x, y, z'
loop_
 _atom_site_type_symbol
 _atom_site_label
 _atom_site_symmetry_multiplicity
 _atom_site_fract_x
 _atom_site_fract_y
 _atom_site_fract_z
 _atom_site_occupancy
 _atom_site_hle17_ddec_charge
 _atom_site_hle17_ddec_spin_density
 _atom_site_hle17_ddec_sum_bond_order
 _atom_site_hle17_magmom
 _atom_site_hse06_10hf_ddec_charge
 _atom_site_hse06_10hf_ddec_spin_density
 _atom_site_hse06_10hf_ddec_sum_bond_order
 _atom_site_hse06_10hf_magmom
 _atom_site_hse06_ddec_charge
 _atom_site_hse06_ddec_spin_density
 _atom_site_hse06_ddec_sum_bond_order
 _atom_site_hse06_magmom
 _atom_site_pbe_cm5_charge
 _atom_site_pbe_ddec_charge
 _atom_site_pbe_ddec_spin_density
 _atom_site_pbe_ddec_sum_bond_order
 _atom_site_pbe_magmom
Cu  Cu0  1  0.99999923  0.00000194  0.00000170  1  1.043902  -0.7249  1.63105  -0.552  1.063849  -0.829872  2.00316  -0.689  1.150161  -0.891347  1.949338  -0.779  0.727845  1.00652  -0.778925  2.040664  -0.625
Cu  Cu1  1  0.50000206  0.00000429  0.00000086  1  0.958552  -0.674116  1.642953  -0.509  0.964558  -0.771634  2.018626  -0.636  1.057341  -0.833907  1.952423  -0.722  0.715371  0.899328  -0.730561  2.07787  -0.581
H  H2  1  0.71410005  0.29894572  0.07934489  1  0.078302  -0.001572  0.962519  -0.003  0.086252  -0.000894  1.027326  -0.002  0.086887  -0.000446  1.023673  -0.001  0.133196  0.085667  -0.001291  1.02973  -0.002
H  H3  1  0.28590107  0.70105703  0.92065100  1  0.078432  -0.001568  0.962521  -0.003  0.086287  -0.000894  1.027415  -0.002  0.086923  -0.000446  1.023761  -0.001  0.133206  0.0857  -0.001291  1.029821  -0.002
H  H4  1  0.68056107  0.46366887  0.80569375  1  0.112271  0.000151  0.957714  0.0  0.132111  0.000117  1.020535  0.0  0.132561  0.000102  1.020403  0.0  0.107184  0.131689  0.000119  1.020726  0.0
H  H5  1  0.31944291  0.53634163  0.19430383  1  0.11229  0.000144  0.957748  0.0  0.132122  0.000117  1.020543  0.0  0.132572  0.000102  1.020409  0.0  0.107208  0.131702  0.000119  1.020733  0.0
H  H6  1  0.58353598  0.57789816  0.88935028  1  0.1139  0.000143  0.927721  0.0  0.137306  9.2e-05  0.982351  0.0  0.137409  7.8e-05  0.982869  0.0  0.112771  0.137155  9e-05  0.98204  0.0
H  H7  1  0.41647132  0.42211237  0.11065141  1  0.11393  0.000132  0.927773  0.0  0.137262  9.2e-05  0.982461  0.0  0.137361  7.7e-05  0.982989  0.0  0.11279  0.137111  9e-05  0.98215  0.0
H  H8  1  0.49760861  0.38338561  0.85375811  1  0.102165  -0.00026  0.948839  0.0  0.121255  -0.000253  1.01399  0.0  0.122689  -0.000168  1.013048  0.0  0.106657  0.120191  -0.000335  1.014674  0.0
H  H9  1  0.50239408  0.61662933  0.14624312  1  0.10215  -0.000265  0.948803  0.0  0.121276  -0.000253  1.013908  0.0  0.12271  -0.000168  1.012964  0.0  0.106647  0.120211  -0.000335  1.014593  0.0
H  H10  1  0.84479128  0.51965538  0.10170587  1  0.116711  1.6e-05  0.968416  0.0  0.135845  -3.2e-05  1.031753  0.0  0.137089  -1.7e-05  1.031088  0.0  0.109495  0.134815  -4e-05  1.0324  0.0
H  H11  1  0.15521240  0.48034408  0.89829456  1  0.116754  1.6e-05  0.968359  0.0  0.135857  -3.2e-05  1.031738  0.0  0.137101  -1.6e-05  1.031072  0.0  0.109509  0.134826  -4e-05  1.032385  0.0
H  H12  1  0.75108494  0.65491575  0.05516154  1  0.108453  5e-05  0.928299  0.0  0.126001  3.1e-05  0.994456  0.0  0.126867  5.8e-05  0.993992  0.0  0.103961  0.125328  -1e-05  0.99474  0.0
H  H13  1  0.24892156  0.34509148  0.94484379  1  0.108459  5e-05  0.928247  0.0  0.126025  3.1e-05  0.994385  0.0  0.126893  5.8e-05  0.99392  0.0  0.103974  0.125351  -1e-05  0.99467  0.0
H  H14  1  0.89399461  0.59076982  0.97823352  1  0.121682  2.2e-05  0.944597  0.0  0.138828  -6e-06  1.007909  0.0  0.139766  8e-06  1.007677  0.0  0.107109  0.138058  -4.3e-05  1.008108  0.0
H  H15  1  0.10601252  0.40923519  0.02177080  1  0.121687  1.7e-05  0.944541  0.0  0.138864  -6e-06  1.007815  0.0  0.1398  8e-06  1.007588  0.0  0.107167  0.138094  -4.3e-05  1.008014  0.0
H  H16  1  0.75031599  0.00695198  0.84535339  1  0.062025  -0.002153  0.937184  -0.004  0.062052  -0.000895  1.017338  -0.002  0.062936  -0.000225  1.011049  -0.001  0.129777  0.061121  -0.001541  1.022064  -0.003
H  H17  1  0.24968158  0.99304524  0.15464585  1  0.062009  -0.002163  0.936991  -0.004  0.062006  -0.000896  1.017211  -0.002  0.062891  -0.000225  1.010921  -0.001  0.129736  0.061075  -0.001542  1.021937  -0.003
H  H18  1  0.59392521  0.03644391  0.71914058  1  0.119063  -6.8e-05  0.944745  0.0  0.136605  -0.000167  1.009792  0.0  0.138025  -9.1e-05  1.009065  0.0  0.112478  0.135439  -0.000249  1.010412  0.0
H  H19  1  0.40607139  0.96354887  0.28085575  1  0.119082  -6.9e-05  0.9448  0.0  0.13665  -0.000167  1.009798  0.0  0.138072  -9.1e-05  1.009067  0.0  0.112504  0.135485  -0.000249  1.010418  0.0
H  H20  1  0.69445165  0.07635227  0.59993507  1  0.09637  -4.7e-05  0.936071  0.0  0.116093  -3.6e-05  0.999214  0.0  0.11591  -5e-06  1.000672  0.0  0.102597  0.116004  -6.8e-05  0.998411  0.0
H  H21  1  0.30554542  0.92364274  0.40006392  1  0.096379  -4.6e-05  0.936036  0.0  0.116103  -3.6e-05  0.999184  0.0  0.115914  -5e-06  1.000648  0.0  0.1026  0.116013  -6.8e-05  0.998381  0.0
H  H22  1  0.62125540  0.21665843  0.68053874  1  0.100734  0.00012  0.929037  0.0  0.122388  6.6e-05  0.98739  0.0  0.123025  6.2e-05  0.987444  0.0  0.107993  0.12174  6.4e-05  0.987566  0.0
H  H23  1  0.37874145  0.78333547  0.31945852  1  0.100805  0.000118  0.929033  0.0  0.12242  6.6e-05  0.987423  0.0  0.123054  6.2e-05  0.98748  0.0  0.108036  0.121772  6.4e-05  0.987598  0.0
H  H24  1  0.89535971  0.39269313  0.73224233  1  0.118758  0.000127  0.963469  0.0  0.133873  8.7e-05  1.031071  0.0  0.13488  7.4e-05  1.030154  0.0  0.105539  0.132731  9.1e-05  1.032225  0.0
H  H25  1  0.10463623  0.60730189  0.26775743  1  0.118836  0.000123  0.963327  0.0  0.133897  8.7e-05  1.030998  0.0  0.134905  7.4e-05  1.030079  0.0  0.105562  0.132758  9.1e-05  1.032148  0.0
H  H26  1  0.94757928  0.26241924  0.62967586  1  0.097625  0.000112  0.935475  0.0  0.120762  8.5e-05  0.993756  0.0  0.119978  7.6e-05  0.995443  0.0  0.105631  0.121129  8.2e-05  0.992736  0.0
H  H27  1  0.05241533  0.73757464  0.37032053  1  0.097625  9.9e-05  0.935471  0.0  0.120793  8.5e-05  0.993701  0.0  0.120012  7.6e-05  0.99539  0.0  0.105636  0.12116  8.2e-05  0.99268  0.0
H  H28  1  0.04176910  0.29663363  0.76252397  1  0.111869  -0.000274  0.951409  0.0  0.13253  -0.000273  1.010778  0.0  0.133623  -0.000174  1.010791  0.0  0.110612  0.131529  -0.000359  1.011103  0.0
H  H29  1  0.95822997  0.70336028  0.23747496  1  0.111863  -0.000284  0.951438  0.0  0.132527  -0.000273  1.010797  0.0  0.13362  -0.000174  1.01081  0.0  0.110624  0.131529  -0.000359  1.011121  0.0
H  H30  1  0.64335059  0.85514372  0.27680733  1  0.095897  0.000231  0.955065  0.0  0.106291  6.1e-05  1.0157  0.0  0.109695  5.1e-05  1.013807  0.0  0.105444  0.103881  6.3e-05  1.017141  0.0
H  H31  1  0.35664632  0.14485574  0.72319533  1  0.095932  0.000243  0.955055  0.0  0.106322  6.2e-05  1.015685  0.0  0.109724  5.1e-05  1.013794  0.0  0.105455  0.10391  6.3e-05  1.017126  0.0
H  H32  1  0.76496552  0.82478018  0.44876995  1  0.098061  3.1e-05  0.949342  0.0  0.112904  8e-06  1.000717  0.0  0.115982  9e-06  0.998679  0.0  0.108227  0.110628  6e-06  1.002386  0.0
H  H33  1  0.23503493  0.17521483  0.55122913  1  0.098173  3.3e-05  0.949028  0.0  0.112925  8e-06  1.000634  0.0  0.115998  9e-06  0.998593  0.0  0.108223  0.110643  6e-06  1.00231  0.0
H  H34  1  0.13181719  0.20142014  0.41824517  1  0.110011  5.6e-05  0.960304  0.0  0.119719  -1e-05  1.020722  0.0  0.123491  -3e-06  1.017667  0.0  0.108129  0.117087  -1.4e-05  1.022802  0.0
H  H35  1  0.86818411  0.79857378  0.58175543  1  0.11013  5.7e-05  0.96007  0.0  0.119788  -1e-05  1.020667  0.0  0.123555  -3e-06  1.017609  0.0  0.108151  0.117156  -1.4e-05  1.022748  0.0
C  C36  1  0.64758015  0.30729907  0.00578813  1  0.373608  0.00552  3.75505  0.006  0.303492  0.00082  4.041532  0.002  0.334692  0.001008  4.043975  0.001  0.175507  0.282974  0.000423  4.038199  0.002
C  C37  1  0.35242848  0.69270700  0.99420670  1  0.373485  0.005492  3.755228  0.006  0.303473  0.00082  4.041683  0.002  0.334673  0.001006  4.044123  0.001  0.175477  0.282955  0.000423  4.038356  0.002
C  C38  1  0.60547505  0.46596389  0.87410966  1  -0.17357  -0.000365  3.622549  0.0  -0.272932  -0.000376  3.862173  0.0  -0.269069  -0.000234  3.87245  0.0  -0.134122  -0.275274  -0.000537  3.855271  0.0
C  C39  1  0.39452777  0.53404663  0.12589110  1  -0.173651  -0.000339  3.622636  0.0  -0.272944  -0.000376  3.862213  0.0  -0.26908  -0.000234  3.872487  0.0  -0.134157  -0.275288  -0.000537  3.855311  0.0
C  C40  1  0.80010735  0.55766358  0.03071586  1  -0.186118  -0.001102  3.620463  -0.001  -0.289038  -0.000847  3.871787  -0.001  -0.285752  -0.000593  3.881663  -0.001  -0.136231  -0.290956  -0.000999  3.86512  -0.001
C  C41  1  0.19989509  0.44234029  0.96928420  1  -0.186168  -0.001094  3.620318  -0.001  -0.289102  -0.000847  3.871674  -0.001  -0.285818  -0.000595  3.881551  -0.001  -0.136329  -0.291023  -0.000999  3.86501  -0.001
C  C42  1  0.84433854  0.09828018  0.83171431  1  0.390333  0.007758  3.770429  0.008  0.317253  0.001858  4.068619  0.003  0.348565  0.001922  4.071797  0.002  0.174661  0.295951  0.001438  4.066858  0.003
C  C43  1  0.15565428  0.90171594  0.16828548  1  0.390378  0.0078  3.770261  0.008  0.31729  0.001858  4.068508  0.003  0.348602  0.001921  4.071684  0.002  0.174634  0.295988  0.001438  4.066749  0.003
C  C44  1  0.67340515  0.12073971  0.68355570  1  -0.176592  -0.000783  3.661794  -0.001  -0.276086  -0.000624  3.909151  -0.001  -0.273326  -0.00042  3.921002  -0.001  -0.127743  -0.277578  -0.000803  3.901275  -0.001
C  C45  1  0.32659280  0.87925419  0.31644240  1  -0.176711  -0.00078  3.661801  -0.001  -0.276185  -0.000624  3.909156  -0.001  -0.273419  -0.000419  3.92101  -0.001  -0.127832  -0.277676  -0.000803  3.901277  -0.001
C  C46  1  0.93251930  0.28729905  0.71712520  1  -0.171706  -0.000515  3.622448  0.0  -0.269193  -0.000436  3.859945  0.0  -0.265262  -0.000251  3.870135  0.0  -0.135181  -0.271516  -0.000606  3.853484  0.0
C  C47  1  0.06748002  0.71269597  0.28287385  1  -0.171804  -0.000486  3.622334  0.0  -0.269244  -0.000436  3.859817  0.0  -0.265318  -0.00025  3.870008  0.0  -0.135243  -0.271577  -0.000606  3.853377  0.0
C  C48  1  0.73826258  0.04265907  0.14286405  1  0.666707  0.014186  3.838856  0.013  0.625626  0.003182  4.142251  0.004  0.66801  0.003288  4.130458  0.003  0.220185  0.596352  0.002597  4.149291  0.004
C  C49  1  0.26173310  0.95734481  0.85713743  1  0.666753  0.01419  3.838603  0.013  0.62573  0.003182  4.141866  0.004  0.66813  0.003287  4.130048  0.003  0.220278  0.596461  0.002597  4.148902  0.004
C  C50  1  0.81964010  0.03936372  0.24863336  1  -0.038241  -0.010348  3.730701  -0.011  -0.029054  -0.003486  3.963714  -0.004  -0.032768  -0.001759  3.981864  -0.003  -0.005946  -0.026315  -0.005249  3.951324  -0.006
C  C51  1  0.18035722  0.96064236  0.75136760  1  -0.038111  -0.010321  3.730629  -0.011  -0.02894  -0.003487  3.963642  -0.004  -0.032663  -0.001758  3.981792  -0.003  -0.005948  -0.026206  -0.005249  3.951251  -0.006
C  C52  1  0.75142462  0.92990359  0.30881964  1  -0.06781  -0.002312  3.738036  -0.002  -0.089915  -0.001326  3.989163  -0.001  -0.090202  -0.000837  4.006792  -0.001  -0.081751  -0.08958  -0.001874  3.977071  -0.002
C  C53  1  0.24857208  0.07009474  0.69117968  1  -0.067865  -0.002345  3.737621  -0.002  -0.090084  -0.001326  3.989246  -0.001  -0.090377  -0.000837  4.006866  -0.001  -0.081814  -0.089745  -0.001875  3.97715  -0.002
C  C54  1  0.82089424  0.91372845  0.40630873  1  -0.110507  0.000325  3.744405  0.0  -0.132883  0.000317  4.003744  0.0  -0.133565  0.000462  4.021684  0.0  -0.086516  -0.132309  -2e-05  3.991417  0.0
C  C55  1  0.17910887  0.08626324  0.59368686  1  -0.108686  0.000328  3.746155  0.0  -0.132786  0.000316  4.003537  0.0  -0.133417  0.000462  4.021456  0.0  -0.086459  -0.132209  -1.9e-05  3.991211  0.0
C  C56  1  0.96125749  0.00855203  0.44865712  1  0.055039  -0.004613  3.772364  -0.004  0.058729  -0.001452  4.030162  -0.001  0.059017  -0.000837  4.053115  -0.001  -0.007415  0.058634  -0.002255  4.014243  -0.002
C  C57  1  0.03874384  0.99144188  0.55134106  1  0.047054  -0.004614  3.780139  -0.004  0.058647  -0.001452  4.030097  -0.001  0.05883  -0.000838  4.053075  -0.001  -0.00744  0.058548  -0.002256  4.01418  -0.002
C  C58  1  0.02600194  0.12093813  0.38936237  1  -0.106665  -0.00166  3.709336  -0.001  -0.138764  -0.000221  3.963932  0.0  -0.139838  0.000105  3.983978  0.0  -0.082809  -0.137678  -0.000647  3.950113  -0.001
C  C59  1  0.97399648  0.87905800  0.61063838  1  -0.104938  -0.001654  3.711149  -0.001  -0.138805  -0.000223  3.963762  0.0  -0.13983  0.000105  3.983792  0.0  -0.082835  -0.13772  -0.000647  3.949946  -0.001
C  C60  1  0.95789320  0.13599821  0.29088314  1  -0.110201  -0.001249  3.715313  -0.001  -0.092576  -0.001209  3.958326  -0.001  -0.098306  -0.000728  3.980394  -0.001  -0.012484  -0.089049  -0.001799  3.943822  -0.002
C  C61  1  0.04210747  0.86399792  0.70911767  1  -0.110131  -0.001273  3.714663  -0.001  -0.092587  -0.001208  3.95814  -0.001  -0.098321  -0.000725  3.980194  -0.001  -0.01245  -0.089058  -0.001799  3.943637  -0.002
S  S62  1  0.05411024  0.27990921  0.22016821  1  1.282496  0.000553  5.733961  0.0  1.194043  0.000355  6.258868  0.0  1.242674  0.000302  6.233146  0.0  0.491585  1.160377  0.000344  6.275535  0.0
S  S63  1  0.94588955  0.72008804  0.77983350  1  1.282484  0.000543  5.734047  0.0  1.194028  0.000356  6.258902  0.0  1.242658  0.000301  6.233183  0.0  0.491608  1.160363  0.000344  6.275571  0.0
N  N64  1  0.68169749  0.43735154  0.97146253  1  -0.060741  -0.001526  3.4943  -0.003  0.044332  -0.001247  3.724469  -0.002  0.024393  -0.000418  3.749643  -0.001  -0.270803  0.057373  -0.001922  3.707282  -0.003
N  N65  1  0.31830686  0.56265565  0.02853472  1  -0.060716  -0.001519  3.494345  -0.003  0.044336  -0.001248  3.724455  -0.002  0.024398  -0.000418  3.749627  -0.001  -0.270793  0.05738  -0.001923  3.707268  -0.003
N  N66  1  0.81818471  0.16713974  0.74902939  1  -0.075159  -0.002236  3.503978  -0.004  0.029498  -0.001538  3.735547  -0.003  0.008911  -0.00062  3.76165  -0.002  -0.275532  0.043031  -0.002282  3.717791  -0.004
N  N67  1  0.18181437  0.83285417  0.25096873  1  -0.075164  -0.002255  3.503749  -0.004  0.029499  -0.001538  3.735322  -0.003  0.008913  -0.000619  3.761422  -0.002  -0.275477  0.043034  -0.002282  3.717566  -0.004
O  O68  1  0.79407544  0.01505807  0.05126615  1  -0.614394  -0.062303  2.136751  -0.09  -0.603246  -0.038771  2.440194  -0.062  -0.645011  -0.026548  2.426809  -0.047  -0.309275  -0.573954  -0.048014  2.448814  -0.071
O  O69  1  0.20591948  0.98494249  0.94873577  1  -0.614508  -0.062316  2.136765  -0.09  -0.603394  -0.038774  2.440194  -0.062  -0.645165  -0.026551  2.426797  -0.047  -0.30937  -0.574097  -0.048019  2.448801  -0.071
O  O70  1  0.60070576  0.06316165  0.14798180  1  -0.568017  -0.093554  2.008705  -0.128  -0.54343  -0.059138  2.273115  -0.088  -0.585873  -0.043492  2.262684  -0.071  -0.3088  -0.514215  -0.069411  2.28045  -0.098
O  O71  1  0.39928990  0.93684223  0.85202129  1  -0.568044  -0.093554  2.008475  -0.128  -0.543493  -0.059138  2.272874  -0.088  -0.585943  -0.043491  2.262438  -0.071  -0.308842  -0.514278  -0.069412  2.280203  -0.098
O  O72  1  0.54564519  0.19894582  0.95672560  1  -0.533267  -0.071319  2.147302  -0.099  -0.505434  -0.048673  2.444546  -0.075  -0.544966  -0.036436  2.43691  -0.061  -0.319208  -0.47794  -0.056643  2.449176  -0.082
O  O73  1  0.45435530  0.80105914  0.04327050  1  -0.533213  -0.071312  2.147415  -0.099  -0.505419  -0.04867  2.444653  -0.075  -0.544948  -0.036433  2.437018  -0.061  -0.319175  -0.477925  -0.056638  2.449283  -0.082
O  O74  1  0.96825206  0.13207760  0.89091188  1  -0.501791  -0.072761  2.122536  -0.1  -0.474447  -0.046284  2.406308  -0.07  -0.514122  -0.033069  2.405056  -0.055  -0.298206  -0.448896  -0.054564  2.408042  -0.078
O  O75  1  0.03174312  0.86792406  0.10908935  1  -0.501792  -0.072756  2.122705  -0.1  -0.47442  -0.046281  2.406436  -0.07  -0.514094  -0.033068  2.405184  -0.055  -0.298162  -0.448869  -0.05456  2.408172  -0.078
O  O76  1  0.13360246  0.20280316  0.13494706  1  -0.705659  0.001449  1.999674  0.0  -0.669173  0.001789  2.270719  0.0  -0.692615  0.002185  2.253852  0.001  -0.3558  -0.652329  0.0012  2.282127  0.0
O  O77  1  0.86639647  0.79719518  0.86505313  1  -0.705628  0.001474  1.999708  0.0  -0.669163  0.001788  2.270751  0.0  -0.692607  0.002182  2.253888  0.001  -0.355789  -0.652318  0.0012  2.282159  0.0
O  O78  1  0.16063002  0.38428309  0.30109681  1  -0.657678  -1e-05  1.901539  0.0  -0.61362  0.000141  2.123442  0.0  -0.631885  0.000175  2.108422  0.0  -0.359228  -0.60044  3.7e-05  2.133389  0.0
O  O79  1  0.83936976  0.61571416  0.69890569  1  -0.657673  -2.2e-05  1.901569  0.0  -0.613616  0.000142  2.12347  0.0  -0.631882  0.000176  2.108451  0.0  -0.359223  -0.600435  3.7e-05  2.133418  0.0
O  O80  1  0.93084101  0.34090740  0.17598851  1  -0.673137  -0.000309  1.95244  -0.001  -0.628179  -6.2e-05  2.195438  0.0  -0.648226  3.4e-05  2.180844  0.0  -0.353283  -0.613758  -0.000235  2.205083  0.0
O  O81  1  0.06916112  0.65909540  0.82401705  1  -0.673166  -0.000313  1.952478  -0.001  -0.628168  -6.2e-05  2.195446  0.0  -0.648216  3.5e-05  2.180852  0.0  -0.353308  -0.613747  -0.000235  2.205092  0.0
