# generated using pymatgen
data_HgH11C16I2BrN2
_symmetry_space_group_name_H-M   'P 1'
_cell_length_a   7.28445915
_cell_length_b   8.75750838
_cell_length_c   27.92357598
_cell_angle_alpha   90.00020258
_cell_angle_beta   89.99995185
_cell_angle_gamma   90.00009302
_symmetry_Int_Tables_number   1
_chemical_formula_structural   HgH11C16I2BrN2
_chemical_formula_sum   'Hg4 H44 C64 I8 Br4 N8'
_cell_volume   1781.34856573
_cell_formula_units_Z   4
loop_
 _symmetry_equiv_pos_site_id
 _symmetry_equiv_pos_as_xyz
  1  'x, y, z'
loop_
 _atom_site_type_symbol
 _atom_site_label
 _atom_site_symmetry_multiplicity
 _atom_site_fract_x
 _atom_site_fract_y
 _atom_site_fract_z
 _atom_site_occupancy
 _atom_site_hle17_bader_spin_density
 _atom_site_hle17_ddec_charge
 _atom_site_hle17_ddec_spin_density
 _atom_site_hle17_ddec_sum_bond_order
 _atom_site_hle17_magmom
 _atom_site_hse06_10hf_bader_spin_density
 _atom_site_hse06_10hf_ddec_charge
 _atom_site_hse06_10hf_ddec_spin_density
 _atom_site_hse06_10hf_ddec_sum_bond_order
 _atom_site_hse06_10hf_magmom
 _atom_site_hse06_bader_spin_density
 _atom_site_hse06_ddec_charge
 _atom_site_hse06_ddec_spin_density
 _atom_site_hse06_ddec_sum_bond_order
 _atom_site_hse06_magmom
 _atom_site_pbe_bader_spin_density
 _atom_site_pbe_cm5_charge
 _atom_site_pbe_ddec_charge
 _atom_site_pbe_ddec_spin_density
 _atom_site_pbe_ddec_sum_bond_order
 _atom_site_pbe_magmom
Hg  Hg0  1  0.70165430  0.66400354  0.25205862  1  0  0.465452  0  2.280313  0  0  0.343514  0  2.790564  0  0  0.385188  0  2.766329  0  0  0.337747  0.315846  0  2.806414  0
Hg  Hg1  1  0.70165656  0.16400400  0.24794175  1  0  0.465463  0  2.280289  0  0  0.343517  0  2.790539  0  0  0.38519  0  2.766304  0  0  0.337752  0.315853  0  2.80638  0
Hg  Hg2  1  0.20165595  0.33599376  0.74794161  1  0  0.465451  0  2.280299  0  0  0.34352  0  2.790546  0  0  0.385193  0  2.766309  0  0  0.337752  0.315853  0  2.8064  0
Hg  Hg3  1  0.20165506  0.83599673  0.75205777  1  0  0.465459  0  2.280307  0  0  0.343521  0  2.790558  0  0  0.385195  0  2.766321  0  0  0.337744  0.315852  0  2.806413  0
H  H4  1  0.52162695  0.72747705  0.47072622  1  0  0.101912  0  0.940927  0  0  0.107124  0  1.011712  0  0  0.110754  0  1.008084  0  0  0.108906  0.104524  0  1.014237  0
H  H5  1  0.52162573  0.22747047  0.02927353  1  0  0.10194  0  0.940939  0  0  0.107207  0  1.011657  0  0  0.11083  0  1.008051  0  0  0.108925  0.104606  0  1.014182  0
H  H6  1  0.02162637  0.27252801  0.52927298  1  0  0.101922  0  0.94094  0  0  0.107185  0  1.011655  0  0  0.110804  0  1.008061  0  0  0.108918  0.104586  0  1.014177  0
H  H7  1  0.02162622  0.77252546  0.97072638  1  0  0.101917  0  0.940923  0  0  0.10715  0  1.011681  0  0  0.110774  0  1.008076  0  0  0.108895  0.104553  0  1.014207  0
H  H8  1  0.54514170  0.96239975  0.41796950  1  0  0.100301  0  0.958322  0  0  0.109974  0  1.020987  0  0  0.112702  0  1.020769  0  0  0.102177  0.108023  0  1.02132  0
H  H9  1  0.54514307  0.46239376  0.08203087  1  0  0.100291  0  0.958255  0  0  0.109952  0  1.020942  0  0  0.11268  0  1.020724  0  0  0.102165  0.108005  0  1.021272  0
H  H10  1  0.04514462  0.03760420  0.58202970  1  0  0.100261  0  0.958302  0  0  0.109922  0  1.020988  0  0  0.112651  0  1.020769  0  0  0.102151  0.107976  0  1.021311  0
H  H11  1  0.04514325  0.53760447  0.91796832  1  0  0.100282  0  0.958253  0  0  0.109943  0  1.020954  0  0  0.112672  0  1.020732  0  0  0.102156  0.10798  0  1.021295  0
H  H12  1  0.62728104  0.92861346  0.33212624  1  0  0.053765  0  1.000269  0  0  0.058042  0  1.080504  0  0  0.060049  0  1.077942  0  0  0.08778  0.056488  0  1.082383  0
H  H13  1  0.62728628  0.42860844  0.16787372  1  0  0.053685  0  1.000273  0  0  0.057971  0  1.080514  0  0  0.059974  0  1.077956  0  0  0.087751  0.056416  0  1.08239  0
H  H14  1  0.12728652  0.07138946  0.66787294  1  0  0.053697  0  1.000308  0  0  0.057954  0  1.080586  0  0  0.059977  0  1.078014  0  0  0.087746  0.056399  0  1.082464  0
H  H15  1  0.12728540  0.57139219  0.83212546  1  0  0.053725  0  1.000272  0  0  0.058011  0  1.080506  0  0  0.060014  0  1.077948  0  0  0.087777  0.056458  0  1.082378  0
H  H16  1  0.66935369  0.45858833  0.34724116  1  0  0.062956  0  0.982654  0  0  0.065699  0  1.063398  0  0  0.068327  0  1.060926  0  0  0.093626  0.063746  0  1.065206  0
H  H17  1  0.66935721  0.95858447  0.15275810  1  0  0.062902  0  0.982786  0  0  0.065668  0  1.063493  0  0  0.068293  0  1.061023  0  0  0.093619  0.063714  0  1.065295  0
H  H18  1  0.16935465  0.54141350  0.65275836  1  0  0.062948  0  0.98274  0  0  0.065686  0  1.063475  0  0  0.068313  0  1.061003  0  0  0.093627  0.063734  0  1.065279  0
H  H19  1  0.16935387  0.04141622  0.84724213  1  0  0.062924  0  0.982739  0  0  0.065671  0  1.06345  0  0  0.068297  0  1.060982  0  0  0.093615  0.063717  0  1.065259  0
H  H20  1  0.61878827  0.32853346  0.42195323  1  0  0.042543  0  0.973832  0  0  0.046506  0  1.055094  0  0  0.049746  0  1.050943  0  0  0.094117  0.044127  0  1.058127  0
H  H21  1  0.61878926  0.82852989  0.07804555  1  0  0.042509  0  0.973849  0  0  0.046462  0  1.055122  0  0  0.049699  0  1.050973  0  0  0.094106  0.044083  0  1.058149  0
H  H22  1  0.11878421  0.67147059  0.57804702  1  0  0.042534  0  0.97385  0  0  0.04648  0  1.05514  0  0  0.049719  0  1.05099  0  0  0.094102  0.044104  0  1.058162  0
H  H23  1  0.11878871  0.17146958  0.92195470  1  0  0.042537  0  0.973815  0  0  0.046481  0  1.055089  0  0  0.049723  0  1.050941  0  0  0.094118  0.044105  0  1.058115  0
H  H24  1  0.36500671  0.17046681  0.45296961  1  0  0.099853  0  0.960433  0  0  0.108945  0  1.025661  0  0  0.112261  0  1.024156  0  0  0.098385  0.106602  0  1.026796  0
H  H25  1  0.36500367  0.67046404  0.04702940  1  0  0.099819  0  0.960457  0  0  0.108887  0  1.025711  0  0  0.112221  0  1.024188  0  0  0.098353  0.106542  0  1.026849  0
H  H26  1  0.86501002  0.82953528  0.54702986  1  0  0.099804  0  0.960501  0  0  0.108907  0  1.025714  0  0  0.112219  0  1.024214  0  0  0.098386  0.106562  0  1.026852  0
H  H27  1  0.86500345  0.32953577  0.95297186  1  0  0.099801  0  0.960518  0  0  0.108889  0  1.025747  0  0  0.112208  0  1.024239  0  0  0.098359  0.106545  0  1.026881  0
H  H28  1  0.33895192  0.93245892  0.50120956  1  0  0.104569  0  0.952391  0  0  0.116256  0  1.012527  0  0  0.118466  0  1.012507  0  0  0.100858  0.114699  0  1.012556  0
H  H29  1  0.33895071  0.43245421  0.99878954  1  0  0.104628  0  0.952254  0  0  0.116292  0  1.012422  0  0  0.118502  0  1.012401  0  0  0.100887  0.114733  0  1.012453  0
H  H30  1  0.83895525  0.06754314  0.49878920  1  0  0.104595  0  0.952374  0  0  0.116276  0  1.012512  0  0  0.118487  0  1.012491  0  0  0.100868  0.114717  0  1.012542  0
H  H31  1  0.83895234  0.56754442  0.00121281  1  0  0.104624  0  0.952321  0  0  0.116299  0  1.012468  0  0  0.11851  0  1.012446  0  0  0.100866  0.114739  0  1.012503  0
H  H32  1  0.60164570  0.05970373  0.65505252  1  0  0.077763  0  1.017727  0  0  0.082981  0  1.093936  0  0  0.086432  0  1.091472  0  0  0.073172  0.08048  0  1.09584  0
H  H33  1  0.60164729  0.55970319  0.84494646  1  0  0.077741  0  1.017734  0  0  0.082975  0  1.093939  0  0  0.086425  0  1.091475  0  0  0.073182  0.080471  0  1.095847  0
H  H34  1  0.10165245  0.94029344  0.34494630  1  0  0.07775  0  1.01787  0  0  0.082976  0  1.094066  0  0  0.086433  0  1.091579  0  0  0.073153  0.080475  0  1.095976  0
H  H35  1  0.10165498  0.44029627  0.15505487  1  0  0.077714  0  1.017787  0  0  0.082982  0  1.09396  0  0  0.086434  0  1.091485  0  0  0.073188  0.080476  0  1.095871  0
H  H36  1  0.71704910  0.29730128  0.69131161  1  0  0.084402  0  0.967789  0  0  0.092662  0  1.036125  0  0  0.095447  0  1.034635  0  0  0.08112  0.090604  0  1.037315  0
H  H37  1  0.71704393  0.79730146  0.80868868  1  0  0.084347  0  0.96785  0  0  0.092612  0  1.036185  0  0  0.0954  0  1.034687  0  0  0.081067  0.090551  0  1.037373  0
H  H38  1  0.21704724  0.70269491  0.30868755  1  0  0.084338  0  0.967862  0  0  0.0926  0  1.036205  0  0  0.095385  0  1.034714  0  0  0.08108  0.090544  0  1.037395  0
H  H39  1  0.21704829  0.20269587  0.19131226  1  0  0.084309  0  0.967896  0  0  0.092574  0  1.03624  0  0  0.095358  0  1.03475  0  0  0.081064  0.090515  0  1.037428  0
H  H40  1  0.72911893  0.53776096  0.64363196  1  0  0.079351  0  0.98542  0  0  0.088081  0  1.053646  0  0  0.091081  0  1.051946  0  0  0.077912  0.085867  0  1.055077  0
H  H41  1  0.72911539  0.03776036  0.85636876  1  0  0.079319  0  0.985461  0  0  0.088063  0  1.053677  0  0  0.091069  0  1.051958  0  0  0.077911  0.08585  0  1.055114  0
H  H42  1  0.22911784  0.46223524  0.35636755  1  0  0.07935  0  0.985458  0  0  0.088087  0  1.053676  0  0  0.091098  0  1.051941  0  0  0.077941  0.085872  0  1.055111  0
H  H43  1  0.22911452  0.96223698  0.14363218  1  0  0.079336  0  0.985456  0  0  0.088069  0  1.053672  0  0  0.091075  0  1.051951  0  0  0.07792  0.085858  0  1.055104  0
H  H44  1  0.62878628  0.53698279  0.55830873  1  0  0.090962  0  0.979107  0  0  0.093741  0  1.054768  0  0  0.09747  0  1.052202  0  0  0.092522  0.091119  0  1.056602  0
H  H45  1  0.62878249  0.03698087  0.94169201  1  0  0.090951  0  0.979096  0  0  0.09373  0  1.054749  0  0  0.097459  0  1.052183  0  0  0.092531  0.091107  0  1.056587  0
H  H46  1  0.12878494  0.46301784  0.44169116  1  0  0.090951  0  0.979133  0  0  0.093728  0  1.054781  0  0  0.097457  0  1.052216  0  0  0.092517  0.091102  0  1.056616  0
H  H47  1  0.12878324  0.96301976  0.05830859  1  0  0.090974  0  0.979083  0  0  0.093746  0  1.054748  0  0  0.097475  0  1.052183  0  0  0.092545  0.091124  0  1.056582  0
C  C48  1  0.55814996  0.71996331  0.43298427  1  0  -0.01062  0  3.650869  0  0  -0.040092  0  3.901111  0  0  -0.034982  0  3.917894  0  0  -0.052067  -0.043151  0  3.889743  0
C  C49  1  0.55815137  0.21995829  0.06701583  1  0  -0.01086  0  3.650872  0  0  -0.040401  0  3.901155  0  0  -0.035294  0  3.917936  0  0  -0.05221  -0.043459  0  3.889786  0
C  C50  1  0.05815202  0.28003951  0.56701528  1  0  -0.010728  0  3.650995  0  0  -0.040245  0  3.901234  0  0  -0.035142  0  3.918014  0  0  -0.052112  -0.043308  0  3.889867  0
C  C51  1  0.05815061  0.78003882  0.93298444  1  0  -0.010778  0  3.650885  0  0  -0.040279  0  3.901165  0  0  -0.035183  0  3.917953  0  0  -0.052122  -0.043339  0  3.889794  0
C  C52  1  0.57077976  0.84827134  0.40408153  1  0  -0.109875  0  3.73577  0  0  -0.119898  0  3.984927  0  0  -0.127901  0  4.00722  0  0  -0.080609  -0.114931  0  3.970141  0
C  C53  1  0.57078246  0.34826551  0.09591871  1  0  -0.109758  0  3.735668  0  0  -0.119743  0  3.984835  0  0  -0.127747  0  4.007129  0  0  -0.080559  -0.114788  0  3.970053  0
C  C54  1  0.07078285  0.15173264  0.59591730  1  0  -0.109723  0  3.735552  0  0  -0.119711  0  3.984705  0  0  -0.127713  0  4.007002  0  0  -0.08049  -0.114752  0  3.969915  0
C  C55  1  0.07078290  0.65173391  0.90408119  1  0  -0.109743  0  3.735699  0  0  -0.119742  0  3.984853  0  0  -0.127743  0  4.007149  0  0  -0.080578  -0.114766  0  3.970067  0
C  C56  1  0.61769887  0.83036874  0.35595802  1  0  0.139063  0  3.685489  0  0  0.105108  0  3.935574  0  0  0.11382  0  3.953827  0  0  0.046497  0.099542  0  3.923259  0
C  C57  1  0.61770280  0.33036460  0.14404183  1  0  0.139209  0  3.685426  0  0  0.105225  0  3.935512  0  0  0.113942  0  3.95377  0  0  0.046553  0.099662  0  3.923195  0
C  C58  1  0.11770324  0.16963302  0.64404116  1  0  0.139084  0  3.685274  0  0  0.105113  0  3.935402  0  0  0.113812  0  3.953649  0  0  0.046443  0.099554  0  3.923085  0
C  C59  1  0.11770205  0.66963488  0.85595806  1  0  0.139076  0  3.685483  0  0  0.105098  0  3.935579  0  0  0.113815  0  3.953837  0  0  0.046509  0.099535  0  3.923254  0
C  C60  1  0.64151917  0.56820292  0.36451659  1  0  0.094092  0  3.664177  0  0  0.057483  0  3.907738  0  0  0.064054  0  3.92774  0  0  0.049046  0.053313  0  3.894251  0
C  C61  1  0.64152039  0.06819868  0.13548297  1  0  0.094115  0  3.664306  0  0  0.057496  0  3.907844  0  0  0.064072  0  3.927848  0  0  0.049021  0.053316  0  3.894357  0
C  C62  1  0.14151996  0.43179888  0.63548330  1  0  0.09413  0  3.664239  0  0  0.057548  0  3.907771  0  0  0.064123  0  3.927772  0  0  0.049069  0.053371  0  3.894287  0
C  C63  1  0.14151738  0.93180083  0.86451692  1  0  0.09413  0  3.66426  0  0  0.057554  0  3.907793  0  0  0.064121  0  3.927801  0  0  0.049083  0.053381  0  3.89431  0
C  C64  1  0.59335493  0.57576810  0.41295559  1  0  -0.001639  0  3.788223  0  0  0.022298  0  4.017652  0  0  0.014972  0  4.041417  0  0  -0.003142  0.026816  0  4.001845  0
C  C65  1  0.59335766  0.07576102  0.08704398  1  0  -0.001619  0  3.787949  0  0  0.0223  0  4.017409  0  0  0.014974  0  4.041174  0  0  -0.003115  0.026822  0  4.0016  0
C  C66  1  0.09335722  0.42423592  0.58704395  1  0  -0.001604  0  3.788066  0  0  0.02232  0  4.01749  0  0  0.014997  0  4.041253  0  0  -0.003168  0.026841  0  4.001681  0
C  C67  1  0.09335587  0.92423728  0.91295592  1  0  -0.001591  0  3.787982  0  0  0.022312  0  4.017409  0  0  0.015004  0  4.041179  0  0  -0.003137  0.026828  0  4.001608  0
C  C68  1  0.57679484  0.43455798  0.44031233  1  0  0.137597  0  3.698479  0  0  0.104616  0  3.952322  0  0  0.116043  0  3.963918  0  0  0.081578  0.097024  0  3.944519  0
C  C69  1  0.57679314  0.93455307  0.05968621  1  0  0.137644  0  3.69853  0  0  0.104701  0  3.952328  0  0  0.116125  0  3.963931  0  0  0.081613  0.097114  0  3.94452  0
C  C70  1  0.07679337  0.56544486  0.55968686  1  0  0.13752  0  3.698566  0  0  0.104562  0  3.952376  0  0  0.115985  0  3.963975  0  0  0.081588  0.096972  0  3.944562  0
C  C71  1  0.07679095  0.06544407  0.94031584  1  0  0.137572  0  3.698646  0  0  0.104664  0  3.952407  0  0  0.116066  0  3.964029  0  0  0.081604  0.097068  0  3.944613  0
C  C72  1  0.49862408  0.29857101  0.50879991  1  0  0.175616  0  3.820907  0  0  0.172911  0  4.069263  0  0  0.179652  0  4.091131  0  0  0.095315  0.168506  0  4.054306  0
C  C73  1  0.49862250  0.79856983  0.99119972  1  0  0.175521  0  3.820891  0  0  0.172853  0  4.069242  0  0  0.179594  0  4.091114  0  0  0.095325  0.168454  0  4.054281  0
C  C74  1  0.99863143  0.70142898  0.49119953  1  0  0.175544  0  3.820884  0  0  0.172808  0  4.069242  0  0  0.179547  0  4.091108  0  0  0.095308  0.1684  0  4.054289  0
C  C75  1  0.99862614  0.20143244  0.00880116  1  0  0.175569  0  3.820873  0  0  0.172883  0  4.069255  0  0  0.17963  0  4.091119  0  0  0.095308  0.16848  0  4.054294  0
C  C76  1  0.42004437  0.16769001  0.48931094  1  0  -0.163975  0  3.750048  0  0  -0.181504  0  4.003156  0  0  -0.187647  0  4.024861  0  0  -0.100075  -0.177411  0  3.988369  0
C  C77  1  0.42004006  0.66768683  0.01068806  1  0  -0.163841  0  3.750087  0  0  -0.181348  0  4.003178  0  0  -0.187507  0  4.024867  0  0  -0.100016  -0.177263  0  3.988392  0
C  C78  1  0.92004917  0.83231216  0.51068852  1  0  -0.163805  0  3.74995  0  0  -0.181336  0  4.003028  0  0  -0.187478  0  4.024739  0  0  -0.100029  -0.177248  0  3.988243  0
C  C79  1  0.92004524  0.33231305  0.98931319  1  0  -0.163837  0  3.750147  0  0  -0.18134  0  4.003197  0  0  -0.187488  0  4.024902  0  0  -0.100004  -0.17725  0  3.988406  0
C  C80  1  0.40477745  0.03280247  0.51662972  1  0  -0.115247  0  3.809751  0  0  -0.138473  0  4.068312  0  0  -0.139374  0  4.090429  0  0  -0.104348  -0.137535  0  4.053093  0
C  C81  1  0.40477452  0.53280006  0.98336892  1  0  -0.115387  0  3.809828  0  0  -0.138601  0  4.068413  0  0  -0.139503  0  4.090537  0  0  -0.104401  -0.137656  0  4.053181  0
C  C82  1  0.90478396  0.96719853  0.48336903  1  0  -0.115317  0  3.809677  0  0  -0.138564  0  4.0683  0  0  -0.139463  0  4.090413  0  0  -0.104356  -0.137617  0  4.053071  0
C  C83  1  0.90478140  0.46720094  0.01663233  1  0  -0.115306  0  3.809787  0  0  -0.138542  0  4.068405  0  0  -0.139442  0  4.09052  0  0  -0.104364  -0.137598  0  4.053181  0
C  C84  1  0.47110351  0.02889528  0.56292607  1  0  0.034261  0  3.696174  0  0  0.045115  0  3.96304  0  0  0.046111  0  3.985819  0  0  -0.021428  0.04423  0  3.947619  0
C  C85  1  0.47110621  0.52889463  0.93707291  1  0  0.034218  0  3.696156  0  0  0.045071  0  3.963015  0  0  0.046066  0  3.985791  0  0  -0.021448  0.044197  0  3.947576  0
C  C86  1  0.97111566  0.97110468  0.43707266  1  0  0.034134  0  3.696242  0  0  0.044992  0  3.963131  0  0  0.045986  0  3.985913  0  0  -0.021498  0.044111  0  3.947702  0
C  C87  1  0.97111434  0.47110761  0.06292833  1  0  0.03411  0  3.696197  0  0  0.044968  0  3.963081  0  0  0.045963  0  3.98586  0  0  -0.021464  0.044087  0  3.947656  0
C  C88  1  0.54636108  0.16045913  0.58561162  1  0  0.016325  0  3.796464  0  0  0.028274  0  4.019652  0  0  0.02762  0  4.046005  0  0  -0.017087  0.028801  0  4.001836  0
C  C89  1  0.54635972  0.66045708  0.91438712  1  0  0.016432  0  3.796362  0  0  0.028415  0  4.019556  0  0  0.027764  0  4.045907  0  0  -0.017078  0.028934  0  4.001745  0
C  C90  1  0.04637017  0.83954025  0.41438757  1  0  0.016628  0  3.796464  0  0  0.028512  0  4.019667  0  0  0.027855  0  4.046023  0  0  -0.01704  0.029034  0  4.001854  0
C  C91  1  0.04636741  0.33954344  0.08561350  1  0  0.016611  0  3.796413  0  0  0.02856  0  4.019643  0  0  0.027909  0  4.046  0  0  -0.016993  0.029082  0  4.001826  0
C  C92  1  0.60762157  0.16379258  0.63377594  1  0  -0.118321  0  3.76218  0  0  -0.134721  0  4.006516  0  0  -0.138785  0  4.029398  0  0  -0.105549  -0.131901  0  3.990952  0
C  C93  1  0.60761898  0.66379114  0.86622352  1  0  -0.118355  0  3.76216  0  0  -0.134773  0  4.006492  0  0  -0.138838  0  4.029377  0  0  -0.105576  -0.131954  0  3.99093  0
C  C94  1  0.10762530  0.83620688  0.36622360  1  0  -0.118469  0  3.762293  0  0  -0.134864  0  4.006623  0  0  -0.138924  0  4.029511  0  0  -0.105552  -0.132044  0  3.991066  0
C  C95  1  0.10762927  0.33620947  0.13377709  1  0  -0.118324  0  3.762138  0  0  -0.134763  0  4.006481  0  0  -0.138822  0  4.029368  0  0  -0.105587  -0.13194  0  3.990914  0
C  C96  1  0.67187215  0.29710806  0.65405743  1  0  -0.053648  0  3.765201  0  0  -0.065637  0  4.009523  0  0  -0.06719  0  4.032125  0  0  -0.099802  -0.064374  0  3.993944  0
C  C97  1  0.67186687  0.79710981  0.84594251  1  0  -0.053631  0  3.765244  0  0  -0.065623  0  4.009579  0  0  -0.067177  0  4.032183  0  0  -0.099767  -0.064356  0  3.993993  0
C  C98  1  0.17187156  0.70288921  0.34594209  1  0  -0.053553  0  3.765176  0  0  -0.065559  0  4.009516  0  0  -0.067115  0  4.032119  0  0  -0.099799  -0.064304  0  3.993942  0
C  C99  1  0.17187272  0.20288860  0.15405844  1  0  -0.053575  0  3.765169  0  0  -0.065592  0  4.009517  0  0  -0.067147  0  4.032123  0  0  -0.099799  -0.06433  0  3.993932  0
C  C100  1  0.67843012  0.43315117  0.62706777  1  0  -0.07221  0  3.792814  0  0  -0.082303  0  4.037019  0  0  -0.08507  0  4.059796  0  0  -0.102393  -0.080359  0  4.021459  0
C  C101  1  0.67842476  0.93315094  0.87293268  1  0  -0.072182  0  3.792893  0  0  -0.082284  0  4.037087  0  0  -0.08505  0  4.05987  0  0  -0.102395  -0.080337  0  4.021521  0
C  C102  1  0.17842644  0.56684610  0.37293211  1  0  -0.072247  0  3.79282  0  0  -0.08236  0  4.03703  0  0  -0.085125  0  4.059815  0  0  -0.102446  -0.080414  0  4.021471  0
C  C103  1  0.17842768  0.06684862  0.12706827  1  0  -0.072217  0  3.792819  0  0  -0.082302  0  4.037009  0  0  -0.085064  0  4.059787  0  0  -0.102397  -0.080366  0  4.021458  0
C  C104  1  0.62302182  0.43349115  0.57985820  1  0  -0.10404  0  3.750062  0  0  -0.126153  0  4.00132  0  0  -0.128574  0  4.022715  0  0  -0.097156  -0.124373  0  3.986826  0
C  C105  1  0.62301770  0.93349145  0.92014190  1  0  -0.104007  0  3.750096  0  0  -0.126106  0  4.001395  0  0  -0.128524  0  4.022788  0  0  -0.09716  -0.124328  0  3.986907  0
C  C106  1  0.12302075  0.56650605  0.42014169  1  0  -0.104017  0  3.750142  0  0  -0.12613  0  4.001333  0  0  -0.128555  0  4.022732  0  0  -0.097109  -0.124345  0  3.986834  0
C  C107  1  0.12301938  0.06650804  0.07985906  1  0  -0.104013  0  3.750067  0  0  -0.1261  0  4.001361  0  0  -0.128515  0  4.022754  0  0  -0.097159  -0.124321  0  3.986867  0
C  C108  1  0.55600508  0.29877572  0.55795657  1  0  -0.002051  0  3.726291  0  0  0.014346  0  3.947684  0  0  0.011969  0  3.97192  0  0  -0.005134  0.015829  0  3.931373  0
C  C109  1  0.55600364  0.79877399  0.94204268  1  0  -0.002018  0  3.726283  0  0  0.0143  0  3.947772  0  0  0.011918  0  3.972013  0  0  -0.005103  0.015792  0  3.931454  0
C  C110  1  0.05600970  0.70122367  0.44204262  1  0  -0.002133  0  3.726319  0  0  0.014377  0  3.947566  0  0  0.012005  0  3.971791  0  0  -0.005151  0.015865  0  3.931252  0
C  C111  1  0.05600839  0.20122655  0.05795830  1  0  -0.002142  0  3.726341  0  0  0.01418  0  3.947852  0  0  0.011788  0  3.972112  0  0  -0.005146  0.015672  0  3.931532  0
I  I112  1  0.39237544  0.69213204  0.19884485  1  0  -0.345585  0  1.163501  0  0  -0.307761  0  1.51062  0  0  -0.323366  0  1.491105  0  0  -0.184928  -0.296829  0  1.524183  0
I  I113  1  0.39237617  0.19213424  0.30115490  1  0  -0.345571  0  1.163484  0  0  -0.307743  0  1.510596  0  0  -0.32335  0  1.491078  0  0  -0.184917  -0.296816  0  1.524163  0
I  I114  1  0.89237562  0.30786552  0.80115533  1  0  -0.345567  0  1.163484  0  0  -0.307737  0  1.510591  0  0  -0.323342  0  1.491076  0  0  -0.184921  -0.296804  0  1.524154  0
I  I115  1  0.89237626  0.80786789  0.69884493  1  0  -0.345578  0  1.163488  0  0  -0.307744  0  1.510589  0  0  -0.32335  0  1.491084  0  0  -0.184925  -0.296817  0  1.524158  0
I  I116  1  0.94879113  0.42011361  0.26110743  1  0  -0.22881  0  1.475044  0  0  -0.175826  0  1.886519  0  0  -0.195542  0  1.866238  0  0  -0.092919  -0.162911  0  1.900926  0
I  I117  1  0.94879166  0.92011073  0.23889387  1  0  -0.228806  0  1.475047  0  0  -0.175846  0  1.886554  0  0  -0.195558  0  1.866265  0  0  -0.092919  -0.16293  0  1.900963  0
I  I118  1  0.44879054  0.57988745  0.73889488  1  0  -0.228801  0  1.47504  0  0  -0.17584  0  1.886544  0  0  -0.195556  0  1.866266  0  0  -0.09291  -0.162921  0  1.900952  0
I  I119  1  0.44879139  0.07988805  0.76110451  1  0  -0.228793  0  1.475073  0  0  -0.175833  0  1.886579  0  0  -0.195538  0  1.866281  0  0  -0.092907  -0.162917  0  1.900993  0
Br  Br120  1  0.45493284  0.84132746  0.59779741  1  0  -0.060645  0  1.302154  0  0  -0.043872  0  1.567011  0  0  -0.0497  0  1.560096  0  0  0.056008  -0.039659  0  1.572091  0
Br  Br121  1  0.45495937  0.34132509  0.90220012  1  0  -0.060649  0  1.302132  0  0  -0.04388  0  1.566997  0  0  -0.049709  0  1.56008  0  0  0.055996  -0.039678  0  1.572095  0
Br  Br122  1  0.95495723  0.15867019  0.40219989  1  0  -0.060643  0  1.302228  0  0  -0.043872  0  1.567097  0  0  -0.049703  0  1.56018  0  0  0.056023  -0.039659  0  1.572184  0
Br  Br123  1  0.95496365  0.65867598  0.09780040  1  0  -0.060665  0  1.302174  0  0  -0.043895  0  1.56706  0  0  -0.049725  0  1.560144  0  0  0.055974  -0.039688  0  1.572158  0
N  N124  1  0.65189348  0.69279072  0.33678203  1  0  -0.265361  0  3.277681  0  0  -0.179781  0  3.531809  0  0  -0.201046  0  3.555343  0  0  -0.311373  -0.165547  0  3.515463  0
N  N125  1  0.65189598  0.19278565  0.16321802  1  0  -0.265431  0  3.277769  0  0  -0.17983  0  3.531905  0  0  -0.201084  0  3.555403  0  0  -0.31137  -0.165591  0  3.515549  0
N  N126  1  0.15189531  0.30721109  0.66321750  1  0  -0.265427  0  3.27777  0  0  -0.17986  0  3.531928  0  0  -0.201117  0  3.555437  0  0  -0.311379  -0.16563  0  3.515588  0
N  N127  1  0.15189418  0.80721502  0.83678222  1  0  -0.26538  0  3.277755  0  0  -0.179811  0  3.531903  0  0  -0.201065  0  3.555408  0  0  -0.311399  -0.165577  0  3.515557  0
N  N128  1  0.51791738  0.43487449  0.48366495  1  0  -0.308753  0  3.109598  0  0  -0.267625  0  3.375657  0  0  -0.282966  0  3.391634  0  0  -0.298757  -0.257167  0  3.364508  0
N  N129  1  0.51791580  0.93487251  0.01633575  1  0  -0.308659  0  3.109704  0  0  -0.267548  0  3.375736  0  0  -0.282885  0  3.391713  0  0  -0.298725  -0.257097  0  3.364591  0
N  N130  1  0.01792290  0.56512714  0.51633532  1  0  -0.308606  0  3.109729  0  0  -0.267493  0  3.375779  0  0  -0.28283  0  3.391757  0  0  -0.2987  -0.257041  0  3.364631  0
N  N131  1  0.01792036  0.06512683  0.98366416  1  0  -0.308692  0  3.109779  0  0  -0.267593  0  3.375814  0  0  -0.28292  0  3.39179  0  0  -0.29875  -0.257138  0  3.364666  0
