# generated using pymatgen
data_ZnH6C6(NO3)2
_symmetry_space_group_name_H-M   'P 1'
_cell_length_a   6.92860522
_cell_length_b   7.45713313
_cell_length_c   9.58119164
_cell_angle_alpha   70.53341193
_cell_angle_beta   68.89171402
_cell_angle_gamma   62.39365093
_symmetry_Int_Tables_number   1
_chemical_formula_structural   ZnH6C6(NO3)2
_chemical_formula_sum   'Zn2 H12 C12 N4 O12'
_cell_volume   400.86970999
_cell_formula_units_Z   2
loop_
 _symmetry_equiv_pos_site_id
 _symmetry_equiv_pos_as_xyz
  1  'x, y, z'
loop_
 _atom_site_type_symbol
 _atom_site_label
 _atom_site_symmetry_multiplicity
 _atom_site_fract_x
 _atom_site_fract_y
 _atom_site_fract_z
 _atom_site_occupancy
 _atom_site_hle17_bader_spin_density
 _atom_site_hle17_ddec_charge
 _atom_site_hle17_ddec_spin_density
 _atom_site_hle17_ddec_sum_bond_order
 _atom_site_hle17_magmom
 _atom_site_hse06_10hf_bader_spin_density
 _atom_site_hse06_10hf_ddec_charge
 _atom_site_hse06_10hf_ddec_spin_density
 _atom_site_hse06_10hf_ddec_sum_bond_order
 _atom_site_hse06_10hf_magmom
 _atom_site_hse06_bader_spin_density
 _atom_site_hse06_ddec_charge
 _atom_site_hse06_ddec_spin_density
 _atom_site_hse06_ddec_sum_bond_order
 _atom_site_hse06_magmom
 _atom_site_pbe_bader_spin_density
 _atom_site_pbe_cm5_charge
 _atom_site_pbe_ddec_charge
 _atom_site_pbe_ddec_spin_density
 _atom_site_pbe_ddec_sum_bond_order
 _atom_site_pbe_magmom
Zn  Zn0  1  0.08175774  0.24988685  0.75012852  1  0  1.052437  0  1.769467  0  0  0.877074  0  2.202199  0  0  0.923001  0  2.151109  0  0  0.691307  0.844805  0  2.237393  0
Zn  Zn1  1  0.91824195  0.75010908  0.24987166  1  0  1.052457  0  1.76943  0  0  0.877095  0  2.202152  0  0  0.923024  0  2.151065  0  0  0.691322  0.844829  0  2.237345  0
H  H2  1  0.63469214  0.57097635  0.67476164  1  0  0.121031  0  0.922923  0  0  0.125915  0  0.987742  0  0  0.129725  0  0.983969  0  0  0.133289  0.1231  0  0.990591  0
H  H3  1  0.11999594  0.07151643  0.17470407  1  0  0.120547  0  0.924278  0  0  0.125551  0  0.989154  0  0  0.129354  0  0.985386  0  0  0.133186  0.122685  0  0.992082  0
H  H4  1  0.36530603  0.42901803  0.32523940  1  0  0.121161  0  0.922724  0  0  0.126006  0  0.987589  0  0  0.129817  0  0.983814  0  0  0.13332  0.123183  0  0.990431  0
H  H5  1  0.88000648  0.92847797  0.82529424  1  0  0.120524  0  0.924333  0  0  0.125557  0  0.989177  0  0  0.129366  0  0.985394  0  0  0.133212  0.122694  0  0.992099  0
H  H6  1  0.24193032  0.02032383  0.54830136  1  0  0.442284  0  0.853611  0  0  0.411655  0  0.91718  0  0  0.422271  0  0.901688  0  0  0.294661  0.404135  0  0.928135  0
H  H7  1  0.18898154  0.52019660  0.04838429  1  0  0.442176  0  0.853634  0  0  0.41162  0  0.917123  0  0  0.4222  0  0.901677  0  0  0.294528  0.404102  0  0.928087  0
H  H8  1  0.75807101  0.97967365  0.45169939  1  0  0.44232  0  0.853582  0  0  0.411661  0  0.917178  0  0  0.42229  0  0.901672  0  0  0.294663  0.404141  0  0.928133  0
H  H9  1  0.81102054  0.47980398  0.95161392  1  0  0.442156  0  0.85366  0  0  0.411605  0  0.917137  0  0  0.422186  0  0.90169  0  0  0.294539  0.404088  0  0.928102  0
H  H10  1  0.11369842  0.25088281  0.46582384  1  0  0.418061  0  0.890876  0  0  0.383255  0  0.96141  0  0  0.394941  0  0.944557  0  0  0.284106  0.37495  0  0.973397  0
H  H11  1  0.16918419  0.75075230  0.96586836  1  0  0.41687  0  0.892597  0  0  0.382153  0  0.963152  0  0  0.393876  0  0.946255  0  0  0.283416  0.373805  0  0.975192  0
H  H12  1  0.88630842  0.74911467  0.53417601  1  0  0.418038  0  0.890923  0  0  0.383224  0  0.961469  0  0  0.394909  0  0.944616  0  0  0.284067  0.374918  0  0.973458  0
H  H13  1  0.83081516  0.24924981  0.03413171  1  0  0.416856  0  0.892624  0  0  0.382126  0  0.963192  0  0  0.393853  0  0.946291  0  0  0.283406  0.373775  0  0.975228  0
C  C14  1  0.40968216  0.42653793  0.70270382  1  0  0.080539  0  3.687007  0  0  0.08314  0  3.929798  0  0  0.080662  0  3.946997  0  0  0.134676  0.084162  0  3.918741  0
C  C15  1  0.46133924  0.92690228  0.20244866  1  0  0.083715  0  3.680097  0  0  0.084628  0  3.925689  0  0  0.082129  0  3.942871  0  0  0.135827  0.085477  0  3.915064  0
C  C16  1  0.59031366  0.57346569  0.29730206  1  0  0.080703  0  3.686621  0  0  0.083143  0  3.929594  0  0  0.080669  0  3.946792  0  0  0.134642  0.084167  0  3.91853  0
C  C17  1  0.53865813  0.07309831  0.79754649  1  0  0.08359  0  3.679921  0  0  0.084562  0  3.925471  0  0  0.082064  0  3.942652  0  0  0.135781  0.085415  0  3.914836  0
C  C18  1  0.22178958  0.61103729  0.63989765  1  0  0.621465  0  3.937912  0  0  0.564742  0  4.24183  0  0  0.597612  0  4.235998  0  0  0.213283  0.542401  0  4.24541  0
C  C19  1  0.52780611  0.11140315  0.13970154  1  0  0.62562  0  3.932764  0  0  0.569041  0  4.237056  0  0  0.601991  0  4.231084  0  0  0.215249  0.546865  0  4.240622  0
C  C20  1  0.77821898  0.38895401  0.36010560  1  0  0.621216  0  3.938107  0  0  0.564534  0  4.242034  0  0  0.597401  0  4.236211  0  0  0.213207  0.542191  0  4.245616  0
C  C21  1  0.47219283  0.88858968  0.86030118  1  0  0.62582  0  3.932518  0  0  0.569185  0  4.236864  0  0  0.602136  0  4.230888  0  0  0.215319  0.547011  0  4.240425  0
C  C22  1  0.60813666  0.42791551  0.70756842  1  0  0.122526  0  3.562249  0  0  0.079155  0  3.81792  0  0  0.087331  0  3.82904  0  0  0.080966  0.073702  0  3.810848  0
C  C23  1  0.25648140  0.92840756  0.20745612  1  0  0.121461  0  3.560562  0  0  0.078171  0  3.817253  0  0  0.086366  0  3.828365  0  0  0.080809  0.072547  0  3.810628  0
C  C24  1  0.39186002  0.57208505  0.29243212  1  0  0.122342  0  3.562026  0  0  0.079045  0  3.817691  0  0  0.087223  0  3.828809  0  0  0.080923  0.073607  0  3.810597  0
C  C25  1  0.74351669  0.07159456  0.79254211  1  0  0.12146  0  3.560525  0  0  0.078147  0  3.817203  0  0  0.086341  0  3.828315  0  0  0.080798  0.072523  0  3.810573  0
N  N26  1  0.38048081  0.24984896  0.75016225  1  0  -0.267939  0  3.35563  0  0  -0.204465  0  3.601159  0  0  -0.214779  0  3.617968  0  0  -0.296775  -0.19714  0  3.590019  0
N  N27  1  0.61951160  0.75015624  0.24983681  1  0  -0.267975  0  3.355543  0  0  -0.204436  0  3.60113  0  0  -0.214753  0  3.617944  0  0  -0.296753  -0.197111  0  3.589995  0
N  N28  1  0.77385115  0.24971712  0.75006246  1  0  -0.27492  0  3.235644  0  0  -0.199424  0  3.508314  0  0  -0.214166  0  3.519037  0  0  -0.295611  -0.189632  0  3.501428  0
N  N29  1  0.22614476  0.75028500  0.24993641  1  0  -0.275001  0  3.235689  0  0  -0.199452  0  3.508248  0  0  -0.214204  0  3.518982  0  0  -0.295599  -0.189656  0  3.501351  0
O  O30  1  0.24460873  0.77898698  0.58488334  1  0  -0.597298  0  1.994176  0  0  -0.554627  0  2.231031  0  0  -0.578296  0  2.22418  0  0  -0.30713  -0.537985  0  2.235465  0
O  O31  1  0.39221963  0.27949780  0.08489326  1  0  -0.59912  0  1.992841  0  0  -0.5564  0  2.230152  0  0  -0.580043  0  2.223193  0  0  -0.307241  -0.539894  0  2.23449  0
O  O32  1  0.75538668  0.22101353  0.41512941  1  0  -0.597199  0  1.994302  0  0  -0.554515  0  2.231118  0  0  -0.578187  0  2.224278  0  0  -0.307089  -0.537873  0  2.235548  0
O  O33  1  0.60777607  0.72049968  0.91510693  1  0  -0.599117  0  1.992912  0  0  -0.5564  0  2.230268  0  0  -0.580034  0  2.223289  0  0  -0.307229  -0.539903  0  2.23462  0
O  O34  1  0.05652964  0.57293173  0.64379408  1  0  -0.631896  0  2.039048  0  0  -0.554767  0  2.277696  0  0  -0.583853  0  2.267494  0  0  -0.302741  -0.534386  0  2.284333  0
O  O35  1  0.72730779  0.07308370  0.14347510  1  0  -0.634059  0  2.037602  0  0  -0.556683  0  2.276529  0  0  -0.585853  0  2.266248  0  0  -0.304203  -0.536396  0  2.28318  0
O  O36  1  0.94346871  0.42707810  0.35620566  1  0  -0.631833  0  2.039151  0  0  -0.554693  0  2.27777  0  0  -0.583777  0  2.267569  0  0  -0.302708  -0.534315  0  2.284408  0
O  O37  1  0.27268795  0.92692150  0.85652372  1  0  -0.634173  0  2.037521  0  0  -0.556769  0  2.276467  0  0  -0.58594  0  2.26618  0  0  -0.30424  -0.536479  0  2.283118  0
O  O38  1  0.22035344  0.16574558  0.53368346  1  0  -0.832624  0  1.881707  0  0  -0.775753  0  2.08897  0  0  -0.798118  0  2.054901  0  0  -0.581328  -0.759586  0  2.112626  0
O  O39  1  0.07989785  0.66552452  0.03361771  1  0  -0.830815  0  1.883083  0  0  -0.773977  0  2.089653  0  0  -0.796348  0  2.055681  0  0  -0.580291  -0.757719  0  2.113446  0
O  O40  1  0.77965509  0.83425036  0.46631558  1  0  -0.832634  0  1.8817  0  0  -0.775724  0  2.089051  0  0  -0.798103  0  2.05495  0  0  -0.581284  -0.75956  0  2.11272  0
O  O41  1  0.92010176  0.33447915  0.96637964  1  0  -0.830773  0  1.883139  0  0  -0.773906  0  2.089718  0  0  -0.796285  0  2.055733  0  0  -0.580284  -0.757643  0  2.113529  0
