# generated using pymatgen
data_PrH16C25N2O7
_symmetry_space_group_name_H-M   'P 1'
_cell_length_a   7.40393984
_cell_length_b   11.46525281
_cell_length_c   16.55803121
_cell_angle_alpha   99.31336697
_cell_angle_beta   90.76890807
_cell_angle_gamma   91.65830398
_symmetry_Int_Tables_number   1
_chemical_formula_structural   PrH16C25N2O7
_chemical_formula_sum   'Pr2 H32 C50 N4 O14'
_cell_volume   1386.23606685
_cell_formula_units_Z   2
loop_
 _symmetry_equiv_pos_site_id
 _symmetry_equiv_pos_as_xyz
  1  'x, y, z'
loop_
 _atom_site_type_symbol
 _atom_site_label
 _atom_site_symmetry_multiplicity
 _atom_site_fract_x
 _atom_site_fract_y
 _atom_site_fract_z
 _atom_site_occupancy
 _atom_site_pbe_bader_charge
 _atom_site_pbe_bader_spin_density
 _atom_site_pbe_cm5_charge
 _atom_site_pbe_ddec_charge
 _atom_site_pbe_ddec_spin_density
 _atom_site_pbe_ddec_sum_bond_order
 _atom_site_pbe_magmom
Pr  Pr0  1  0.75974828  0.57465587  0.00729411  1  2.260495  0  1.516927  2.124599  0  2.150024  0
Pr  Pr1  1  0.24025212  0.42534683  0.99270588  1  2.260524  0  1.51694  2.124617  0  2.150012  0
H  H2  1  0.31391174  0.39777953  0.40479584  1  0.124894  0  0.108221  0.129863  0  1.010788  0
H  H3  1  0.06312042  0.36370273  0.51603623  1  0.074859  0  0.105348  0.120245  0  1.025649  0
H  H4  1  0.93019543  0.01364547  0.69173866  1  0.075516  0  0.106184  0.127277  0  1.003384  0
H  H5  1  0.10400437  0.81832388  0.71324405  1  0.071277  0  0.105357  0.126923  0  1.010899  0
H  H6  1  0.40989305  0.07300113  0.48916593  1  0.526838  0  0.312006  0.264854  0  1.006212  0
H  H7  1  0.78823653  0.21373377  0.52223617  1  0.079548  0  0.09709  0.097277  0  1.060514  0
H  H8  1  0.55521103  0.33123158  0.60288074  1  0.0898  0  0.098901  0.101714  0  1.011641  0
H  H9  1  0.60016300  0.39451421  0.75314735  1  0.092041  0  0.103029  0.102839  0  1.038869  0
H  H10  1  0.11383227  0.22852124  0.74136141  1  0.089498  0  0.112599  0.120386  0  0.996505  0
H  H11  1  0.81584228  0.39186761  0.42143762  1  0.042472  0  0.098443  0.096892  0  1.017489  0
H  H12  1  0.90592377  0.54786884  0.33923871  1  0.076981  0  0.095694  0.091979  0  1.046351  0
H  H13  1  0.75926413  0.55083163  0.20427157  1  0.122631  0  0.111184  0.107095  0  1.056859  0
H  H14  1  0.42407111  0.24823769  0.23454094  1  0.105052  0  0.11044  0.123705  0  0.987973  0
H  H15  1  0.19419140  0.74696545  0.93425268  1  0.061664  0  0.119026  0.029907  0  0.944381  0
H  H16  1  0.51332874  0.79486739  0.07054588  1  0.601727  0  0.348238  0.432172  0  0.839307  0
H  H17  1  0.42199883  0.68008364  0.09832378  1  0.663047  0  0.303637  0.404262  0  0.931655  0
H  H18  1  0.68609139  0.60222406  0.59520548  1  0.124894  0  0.108251  0.129912  0  1.010763  0
H  H19  1  0.93688413  0.63630265  0.48396772  1  0.074708  0  0.105281  0.12007  0  1.02585  0
H  H20  1  0.06979806  0.98635367  0.30825848  1  0.075801  0  0.106191  0.127312  0  1.003368  0
H  H21  1  0.89599325  0.18167704  0.28675453  1  0.07079  0  0.105352  0.126926  0  1.01089  0
H  H22  1  0.59010596  0.92700069  0.51083456  1  0.526808  0  0.312002  0.264844  0  1.006207  0
H  H23  1  0.21176669  0.78627159  0.47776294  1  0.079537  0  0.097148  0.097354  0  1.060444  0
H  H24  1  0.44479484  0.66877291  0.39712070  1  0.089781  0  0.09891  0.101716  0  1.011664  0
H  H25  1  0.39984144  0.60548850  0.24685449  1  0.092085  0  0.103034  0.102839  0  1.038866  0
H  H26  1  0.88616654  0.77147616  0.25863920  1  0.08948  0  0.112604  0.120383  0  0.996498  0
H  H27  1  0.18415527  0.60813155  0.57856076  1  0.042459  0  0.098458  0.096895  0  1.0176  0
H  H28  1  0.09407520  0.45213209  0.66076169  1  0.076993  0  0.095725  0.092004  0  1.046328  0
H  H29  1  0.24073221  0.44917106  0.79572961  1  0.123067  0  0.1112  0.10705  0  1.056872  0
H  H30  1  0.57592779  0.75176147  0.76545684  1  0.105082  0  0.110454  0.123731  0  0.987962  0
H  H31  1  0.80581524  0.25302577  0.06574610  1  0.061684  0  0.11904  0.029899  0  0.944371  0
H  H32  1  0.48667015  0.20513177  0.92945372  1  0.601718  0  0.348237  0.432154  0  0.839327  0
H  H33  1  0.57800006  0.31991552  0.90167522  1  0.663048  0  0.303631  0.404253  0  0.931674  0
C  C34  1  0.41606141  0.22452672  0.42813742  1  0.367114  0  0.101668  0.184481  0  4.021956  0
C  C35  1  0.29866424  0.32308324  0.43712695  1  -0.084139  0  -0.095839  -0.179937  0  3.96814  0
C  C36  1  0.17063207  0.30556221  0.49366353  1  0.019176  0  -0.097996  -0.184263  0  3.993008  0
C  C37  1  0.20418241  0.19537837  0.52066191  1  0.356889  0  0.104147  0.187407  0  4.01254  0
C  C38  1  0.11365724  0.14477722  0.58114741  1  0.050386  0  0.005808  -0.066596  0  3.914162  0
C  C39  1  0.16228702  0.03832105  0.60715248  1  0.423097  0  0.093095  0.194559  0  4.047233  0
C  C40  1  0.05572069  0.98203598  0.66444076  1  -0.091667  0  -0.103056  -0.17362  0  3.96675  0
C  C41  1  0.14329086  0.88280906  0.67494964  1  -0.055514  0  -0.10635  -0.184556  0  3.972646  0
C  C42  1  0.30293138  0.87907136  0.62387777  1  0.492427  0  0.088329  0.185708  0  4.072828  0
C  C43  1  0.57231051  0.21230231  0.38093358  1  0.018159  0  0.000535  -0.080565  0  3.941225  0
C  C44  1  0.96757555  0.21269777  0.62599319  1  -0.033825  0  -0.005041  0.07533  0  4.010652  0
C  C45  1  0.80954263  0.24355401  0.58760458  1  0.018006  0  -0.085012  -0.12128  0  3.945899  0
C  C46  1  0.67792422  0.30844539  0.63323912  1  -0.046945  0  -0.093404  -0.081597  0  4.005822  0
C  C47  1  0.70181176  0.34339765  0.71749511  1  -0.053592  0  -0.081839  -0.086433  0  3.953123  0
C  C48  1  0.85963118  0.31427275  0.75641850  1  -0.081522  0  -0.019397  -0.04765  0  3.980666  0
C  C49  1  0.99075231  0.24913541  0.71050339  1  -0.013057  0  -0.075554  -0.136395  0  3.931777  0
C  C50  1  0.89762914  0.35765975  0.84532310  1  1.565803  0  0.241341  0.64663  0  4.126066  0
C  C51  1  0.61592011  0.30907733  0.33326089  1  0.050004  0  -0.00571  0.077019  0  4.036415  0
C  C52  1  0.75035985  0.39490146  0.36244685  1  -0.048606  0  -0.082493  -0.119384  0  3.962291  0
C  C53  1  0.80105230  0.48172040  0.31643382  1  -0.025105  0  -0.092602  -0.079119  0  4.00646  0
C  C54  1  0.71842670  0.48381947  0.24055557  1  -0.083267  0  -0.075601  -0.084191  0  3.934015  0
C  C55  1  0.58196430  0.39976399  0.21146181  1  0.008316  0  -0.015823  -0.037826  0  3.985974  0
C  C56  1  0.53013462  0.31317746  0.25824029  1  -0.13688  0  -0.075913  -0.138284  0  3.914331  0
C  C57  1  0.48671359  0.40111446  0.13189913  1  1.534049  0  0.214251  0.611563  0  4.202008  0
C  C58  1  0.07302813  0.70418518  0.95718552  1  1.52689  0  0.147261  0.524456  0  4.210488  0
C  C59  1  0.58393898  0.77547598  0.57186378  1  0.367024  0  0.101735  0.184643  0  4.021816  0
C  C60  1  0.70133892  0.67692124  0.56287568  1  -0.084125  0  -0.095912  -0.180127  0  3.968142  0
C  C61  1  0.82937244  0.69444227  0.50633972  1  0.019362  0  -0.097898  -0.183944  0  3.992998  0
C  C62  1  0.79582068  0.80462435  0.47933992  1  0.356828  0  0.104126  0.187351  0  4.012506  0
C  C63  1  0.88634308  0.85522371  0.41885300  1  0.050356  0  0.005811  -0.066676  0  3.914162  0
C  C64  1  0.83771056  0.96167900  0.39284720  1  0.423166  0  0.093102  0.194682  0  4.047273  0
C  C65  1  0.94427277  0.01796228  0.33555689  1  -0.091909  0  -0.102972  -0.173621  0  3.966686  0
C  C66  1  0.85670260  0.11718920  0.32504680  1  -0.054882  0  -0.106417  -0.184605  0  3.97255  0
C  C67  1  0.69706485  0.12092868  0.37612070  1  0.492234  0  0.088301  0.185654  0  4.072849  0
C  C68  1  0.42768850  0.78769950  0.61906691  1  0.018186  0  0.000489  -0.08069  0  3.941319  0
C  C69  1  0.03242334  0.78730139  0.37400701  1  -0.033876  0  -0.005069  0.075357  0  4.010696  0
C  C70  1  0.19045772  0.75644781  0.41239593  1  0.018018  0  -0.085056  -0.121362  0  3.945849  0
C  C71  1  0.32207891  0.69155820  0.36676099  1  -0.046976  0  -0.093422  -0.081605  0  4.005898  0
C  C72  1  0.29819130  0.65660418  0.28250663  1  -0.053565  0  -0.081849  -0.086444  0  3.953153  0
C  C73  1  0.14036763  0.68572465  0.24358271  1  -0.081408  0  -0.019461  -0.047684  0  3.980479  0
C  C74  1  0.00924506  0.75086022  0.28949822  1  -0.013151  0  -0.075476  -0.136305  0  3.93157  0
C  C75  1  0.10237094  0.64233588  0.15467732  1  1.565812  0  0.241353  0.646541  0  4.126151  0
C  C76  1  0.38407613  0.69092270  0.66673698  1  0.050082  0  -0.005765  0.077039  0  4.036389  0
C  C77  1  0.24963379  0.60510123  0.63755310  1  -0.048908  0  -0.082413  -0.119354  0  3.962473  0
C  C78  1  0.19894269  0.51828230  0.68356735  1  -0.024855  0  -0.09268  -0.079144  0  4.006515  0
C  C79  1  0.28156964  0.51618323  0.75944500  1  -0.083214  0  -0.075603  -0.084116  0  3.934036  0
C  C80  1  0.41803466  0.60023694  0.78853799  1  0.007841  0  -0.015853  -0.037912  0  3.985995  0
C  C81  1  0.46986559  0.68682082  0.74175801  1  -0.136983  0  -0.075902  -0.138316  0  3.914352  0
C  C82  1  0.51328793  0.59888294  0.86809969  1  1.534177  0  0.214301  0.611649  0  4.202084  0
C  C83  1  0.92697593  0.29580869  0.04281413  1  1.527109  0  0.147244  0.524582  0  4.210454  0
N  N84  1  0.35173335  0.14900813  0.47859815  1  -1.263616  0  -0.377157  -0.267898  0  3.604211  0
N  N85  1  0.31089103  0.97385254  0.58273692  1  -1.156773  0  -0.351834  -0.419735  0  3.192595  0
N  N86  1  0.64826839  0.85099457  0.52140306  1  -1.263461  0  -0.377204  -0.267981  0  3.604239  0
N  N87  1  0.68910929  0.02614839  0.41726288  1  -1.156772  0  -0.351833  -0.41976  0  3.192632  0
O  O88  1  0.76695244  0.39915283  0.89079947  1  -1.220545  0  -0.367649  -0.674621  0  2.314907  0
O  O89  1  0.05885628  0.35326892  0.87066936  1  -1.193466  0  -0.382304  -0.636182  0  2.321485  0
O  O90  1  0.54877884  0.46680870  0.08124965  1  -1.231595  0  -0.451736  -0.762879  0  2.404356  0
O  O91  1  0.34255245  0.33946983  0.11480784  1  -1.173444  0  -0.372069  -0.611216  0  2.174888  0
O  O92  1  0.94813446  0.76537417  0.98923587  1  -1.155278  0  -0.348253  -0.534897  0  2.153581  0
O  O93  1  0.06813936  0.58965228  0.94800477  1  -1.190192  0  -0.467223  -0.738517  0  2.447701  0
O  O94  1  0.53818292  0.71639961  0.08189754  1  -1.249719  0  -0.618883  -0.841452  0  1.969255  0
O  O95  1  0.23304919  0.60084723  0.10920146  1  -1.220564  0  -0.367666  -0.674595  0  2.315001  0
O  O96  1  0.94114388  0.64672848  0.12933187  1  -1.193436  0  -0.38232  -0.636155  0  2.321512  0
O  O97  1  0.45122012  0.53319223  0.91875075  1  -1.231562  0  -0.451737  -0.762859  0  2.404356  0
O  O98  1  0.65745428  0.66052315  0.88518932  1  -1.173525  0  -0.3721  -0.611267  0  2.17498  0
O  O99  1  0.05187647  0.23462236  0.01076473  1  -1.15532  0  -0.348223  -0.534965  0  2.153607  0
O  O100  1  0.93185934  0.41034246  0.05199373  1  -1.190347  0  -0.467218  -0.738583  0  2.447738  0
O  O101  1  0.46181459  0.28359865  0.91810014  1  -1.249723  0  -0.618889  -0.841437  0  1.969282  0
