# generated using pymatgen
data_AgH3C3N2
_symmetry_space_group_name_H-M   'P 1'
_cell_length_a   5.39144079
_cell_length_b   6.66547260
_cell_length_c   22.48373311
_cell_angle_alpha   89.99780246
_cell_angle_beta   89.99788757
_cell_angle_gamma   89.99839714
_symmetry_Int_Tables_number   1
_chemical_formula_structural   AgH3C3N2
_chemical_formula_sum   'Ag8 H24 C24 N16'
_cell_volume   807.98669349
_cell_formula_units_Z   8
loop_
 _symmetry_equiv_pos_site_id
 _symmetry_equiv_pos_as_xyz
  1  'x, y, z'
loop_
 _atom_site_type_symbol
 _atom_site_label
 _atom_site_symmetry_multiplicity
 _atom_site_fract_x
 _atom_site_fract_y
 _atom_site_fract_z
 _atom_site_occupancy
 _atom_site_hle17_bader_spin_density
 _atom_site_hle17_ddec_charge
 _atom_site_hle17_ddec_spin_density
 _atom_site_hle17_ddec_sum_bond_order
 _atom_site_hle17_magmom
 _atom_site_hse06_10hf_bader_spin_density
 _atom_site_hse06_10hf_ddec_charge
 _atom_site_hse06_10hf_ddec_spin_density
 _atom_site_hse06_10hf_ddec_sum_bond_order
 _atom_site_hse06_10hf_magmom
 _atom_site_hse06_bader_spin_density
 _atom_site_hse06_ddec_charge
 _atom_site_hse06_ddec_spin_density
 _atom_site_hse06_ddec_sum_bond_order
 _atom_site_hse06_magmom
 _atom_site_pbe_bader_spin_density
 _atom_site_pbe_cm5_charge
 _atom_site_pbe_ddec_charge
 _atom_site_pbe_ddec_spin_density
 _atom_site_pbe_ddec_sum_bond_order
 _atom_site_pbe_magmom
Ag  Ag0  1  0.63293307  0.43169469  0.38042882  1  0  0.424876  0  1.543801  0  0  0.289173  0  1.975103  0  0  0.319422  0  1.932372  0  0  0.446803  0.267638  0  2.00559  0
Ag  Ag1  1  0.36706303  0.93169275  0.11957540  1  0  0.424852  0  1.543704  0  0  0.289148  0  1.974986  0  0  0.319398  0  1.932256  0  0  0.446744  0.267613  0  2.005475  0
Ag  Ag2  1  0.13292169  0.06831424  0.61956436  1  0  0.424888  0  1.543667  0  0  0.289149  0  1.974988  0  0  0.319401  0  1.932264  0  0  0.446837  0.267615  0  2.005472  0
Ag  Ag3  1  0.86708514  0.56829909  0.88043307  1  0  0.424819  0  1.543928  0  0  0.289094  0  1.975241  0  0  0.319338  0  1.932514  0  0  0.446797  0.267559  0  2.005728  0
Ag  Ag4  1  0.41789667  0.38931663  0.11897421  1  0  0.414311  0  1.612623  0  0  0.276434  0  2.069124  0  0  0.303397  0  2.027851  0  0  0.445269  0.257279  0  2.098787  0
Ag  Ag5  1  0.58211033  0.88930713  0.38102781  1  0  0.414337  0  1.612642  0  0  0.276438  0  2.069109  0  0  0.303387  0  2.027867  0  0  0.445243  0.257275  0  2.098768  0
Ag  Ag6  1  0.91790221  0.11069858  0.88102560  1  0  0.414423  0  1.612475  0  0  0.276518  0  2.068954  0  0  0.303496  0  2.027665  0  0  0.445235  0.257354  0  2.098619  0
Ag  Ag7  1  0.08207332  0.61069343  0.61897269  1  0  0.414369  0  1.612359  0  0  0.276491  0  2.06876  0  0  0.303442  0  2.027519  0  0  0.445237  0.257337  0  2.098421  0
H  H8  1  0.86884432  0.34297457  0.50637721  1  0  0.093702  0  1.014905  0  0  0.102719  0  1.078253  0  0  0.103705  0  1.080092  0  0  0.103541  0.101937  0  1.07712  0
H  H9  1  0.13117049  0.84297265  0.99363008  1  0  0.093601  0  1.014958  0  0  0.102677  0  1.078212  0  0  0.103663  0  1.080052  0  0  0.103603  0.101938  0  1.077031  0
H  H10  1  0.36883979  0.15702963  0.49361321  1  0  0.093779  0  1.014953  0  0  0.102799  0  1.07825  0  0  0.103786  0  1.080088  0  0  0.103568  0.10203  0  1.07711  0
H  H11  1  0.63116132  0.65701942  0.00637403  1  0  0.093665  0  1.014815  0  0  0.102646  0  1.078199  0  0  0.10367  0  1.079994  0  0  0.103564  0.101861  0  1.07707  0
H  H12  1  0.19273485  0.63871671  0.47036154  1  0  0.082345  0  0.953296  0  0  0.094403  0  1.01588  0  0  0.09579  0  1.01448  0  0  0.121199  0.093385  0  1.016847  0
H  H13  1  0.80725027  0.13872128  0.02963613  1  0  0.082315  0  0.953389  0  0  0.094431  0  1.015906  0  0  0.095818  0  1.014506  0  0  0.121181  0.093414  0  1.01687  0
H  H14  1  0.69272917  0.86128462  0.52963363  1  0  0.082338  0  0.953216  0  0  0.09443  0  1.015766  0  0  0.095817  0  1.014363  0  0  0.121221  0.093412  0  1.016734  0
H  H15  1  0.30729421  0.36128265  0.97036545  1  0  0.082469  0  0.953197  0  0  0.094543  0  1.015731  0  0  0.095929  0  1.014334  0  0  0.121272  0.093525  0  1.016695  0
H  H16  1  0.97773707  0.20257072  0.16934856  1  0  0.074226  0  1.003059  0  0  0.082385  0  1.079907  0  0  0.085525  0  1.076036  0  0  0.094223  0.080162  0  1.082632  0
H  H17  1  0.02227527  0.70255064  0.33065731  1  0  0.074184  0  1.003259  0  0  0.082413  0  1.080041  0  0  0.085555  0  1.076171  0  0  0.094306  0.080189  0  1.082769  0
H  H18  1  0.47777194  0.29741329  0.83063299  1  0  0.074233  0  1.003388  0  0  0.082426  0  1.080175  0  0  0.085568  0  1.076301  0  0  0.094191  0.080198  0  1.082904  0
H  H19  1  0.52222979  0.79743761  0.66936501  1  0  0.074312  0  1.003202  0  0  0.082446  0  1.080053  0  0  0.085594  0  1.076177  0  0  0.094225  0.080217  0  1.082781  0
H  H20  1  0.37512478  0.48482113  0.25493081  1  0  0.065883  0  1.01419  0  0  0.075287  0  1.083093  0  0  0.075943  0  1.083481  0  0  0.112648  0.074755  0  1.082851  0
H  H21  1  0.62486371  0.98482134  0.24507193  1  0  0.065804  0  1.014179  0  0  0.075195  0  1.083083  0  0  0.075851  0  1.083471  0  0  0.112634  0.074657  0  1.082865  0
H  H22  1  0.87513481  0.01519644  0.74507423  1  0  0.065789  0  1.014311  0  0  0.0752  0  1.083152  0  0  0.075862  0  1.083535  0  0  0.112618  0.074652  0  1.082965  0
H  H23  1  0.12486665  0.51518736  0.75492645  1  0  0.06577  0  1.014145  0  0  0.075167  0  1.083055  0  0  0.075824  0  1.083443  0  0  0.112595  0.074625  0  1.082845  0
H  H24  1  0.61365191  0.40388250  0.61230024  1  0  0.085598  0  0.997004  0  0  0.095977  0  1.062211  0  0  0.098643  0  1.059952  0  0  0.100263  0.094077  0  1.063884  0
H  H25  1  0.38633830  0.90389404  0.88770771  1  0  0.085597  0  0.997296  0  0  0.096003  0  1.062431  0  0  0.098667  0  1.060175  0  0  0.100269  0.094101  0  1.064105  0
H  H26  1  0.11366769  0.09612982  0.38769531  1  0  0.085412  0  0.997278  0  0  0.095857  0  1.062382  0  0  0.098524  0  1.06012  0  0  0.100221  0.093952  0  1.064062  0
H  H27  1  0.88631906  0.59611692  0.11229750  1  0  0.085553  0  0.99724  0  0  0.096021  0  1.062302  0  0  0.098688  0  1.060042  0  0  0.100303  0.094118  0  1.063981  0
H  H28  1  0.06773794  0.21382684  0.29013498  1  0  0.093887  0  0.971302  0  0  0.107849  0  1.028861  0  0  0.10912  0  1.029296  0  0  0.108021  0.106931  0  1.028643  0
H  H29  1  0.93226655  0.71381805  0.20987076  1  0  0.093921  0  0.971263  0  0  0.107738  0  1.028998  0  0  0.109018  0  1.029408  0  0  0.107954  0.106822  0  1.028778  0
H  H30  1  0.56773609  0.28617740  0.70984493  1  0  0.094037  0  0.971162  0  0  0.108043  0  1.02872  0  0  0.109329  0  1.029121  0  0  0.108033  0.107115  0  1.028516  0
H  H31  1  0.43225308  0.78617547  0.79015276  1  0  0.094123  0  0.971307  0  0  0.108129  0  1.028821  0  0  0.109413  0  1.029227  0  0  0.108099  0.107206  0  1.028595  0
C  C32  1  0.69078969  0.41276531  0.51457145  1  0  -0.039644  0  3.79889  0  0  -0.066257  0  4.041141  0  0  -0.064878  0  4.065533  0  0  -0.030186  -0.067023  0  4.02444  0
C  C33  1  0.30920017  0.91276091  0.98543329  1  0  -0.039453  0  3.798197  0  0  -0.066115  0  4.040503  0  0  -0.064738  0  4.064902  0  0  -0.030279  -0.06691  0  4.023756  0
C  C34  1  0.19078552  0.08724546  0.48541904  1  0  -0.039755  0  3.798948  0  0  -0.066401  0  4.041254  0  0  -0.065019  0  4.065648  0  0  -0.030168  -0.067149  0  4.024468  0
C  C35  1  0.80922569  0.58722459  0.01457209  1  0  -0.039429  0  3.79887  0  0  -0.066039  0  4.041129  0  0  -0.064686  0  4.065494  0  0  -0.030117  -0.066801  0  4.024431  0
C  C36  1  0.34271635  0.56680873  0.49449657  1  0  0.172362  0  3.742571  0  0  0.124334  0  3.994206  0  0  0.136835  0  4.013417  0  0  0.107806  0.116161  0  3.980634  0
C  C37  1  0.65729008  0.06680300  0.00550367  1  0  0.172555  0  3.742456  0  0  0.124472  0  3.994079  0  0  0.136971  0  4.013296  0  0  0.107858  0.116299  0  3.980493  0
C  C38  1  0.84271386  0.93319710  0.50549964  1  0  0.172397  0  3.742417  0  0  0.124322  0  3.994057  0  0  0.136827  0  4.013267  0  0  0.10774  0.11614  0  3.980484  0
C  C39  1  0.15730119  0.43318743  0.99449642  1  0  0.172189  0  3.7423  0  0  0.124136  0  3.993943  0  0  0.136636  0  4.013152  0  0  0.107685  0.115967  0  3.980364  0
C  C40  1  0.86512288  0.26441356  0.20490859  1  0  -0.043317  0  3.797222  0  0  -0.067442  0  4.041741  0  0  -0.067622  0  4.065355  0  0  -0.027233  -0.067158  0  4.025414  0
C  C41  1  0.13488151  0.76439745  0.29509748  1  0  -0.043349  0  3.797276  0  0  -0.067543  0  4.04175  0  0  -0.067728  0  4.065377  0  0  -0.027361  -0.067262  0  4.025424  0
C  C42  1  0.36513649  0.23557720  0.79508052  1  0  -0.043661  0  3.79802  0  0  -0.067841  0  4.042532  0  0  -0.068033  0  4.066171  0  0  -0.02736  -0.067547  0  4.026191  0
C  C43  1  0.63485648  0.73559004  0.70491817  1  0  -0.043857  0  3.797866  0  0  -0.067993  0  4.042401  0  0  -0.068183  0  4.066022  0  0  -0.027459  -0.067714  0  4.026097  0
C  C44  1  0.55214439  0.41081455  0.24820966  1  0  0.171713  0  3.752951  0  0  0.121919  0  4.001856  0  0  0.134655  0  4.022115  0  0  0.100089  0.113569  0  3.987672  0
C  C45  1  0.44784323  0.91080391  0.25179212  1  0  0.1719  0  3.752834  0  0  0.122117  0  4.001765  0  0  0.134852  0  4.022027  0  0  0.100175  0.113764  0  3.987574  0
C  C46  1  0.05215986  0.08918850  0.75178771  1  0  0.171885  0  3.75267  0  0  0.122113  0  4.001578  0  0  0.134848  0  4.021841  0  0  0.100211  0.113758  0  3.987379  0
C  C47  1  0.94783690  0.58919081  0.74820726  1  0  0.171976  0  3.752606  0  0  0.122173  0  4.001501  0  0  0.134908  0  4.021764  0  0  0.100265  0.113824  0  3.98731  0
C  C48  1  0.56441397  0.44386666  0.56709197  1  0  -0.071413  0  3.83392  0  0  -0.090585  0  4.079303  0  0  -0.090628  0  4.10093  0  0  -0.037005  -0.090535  0  4.064556  0
C  C49  1  0.43559325  0.94386370  0.93290530  1  0  -0.07131  0  3.833526  0  0  -0.090495  0  4.078892  0  0  -0.090544  0  4.100529  0  0  -0.036935  -0.090445  0  4.064142  0
C  C50  1  0.06443289  0.05614965  0.43289774  1  0  -0.071041  0  3.833773  0  0  -0.090276  0  4.079127  0  0  -0.090315  0  4.100748  0  0  -0.037009  -0.090228  0  4.064386  0
C  C51  1  0.93555541  0.55613126  0.06709329  1  0  -0.071427  0  3.833843  0  0  -0.090663  0  4.079253  0  0  -0.090705  0  4.100875  0  0  -0.037115  -0.090615  0  4.064514  0
C  C52  1  0.90995909  0.27001860  0.26535431  1  0  -0.02833  0  3.773433  0  0  -0.05491  0  4.015501  0  0  -0.053458  0  4.040325  0  0  -0.020446  -0.055864  0  3.998664  0
C  C53  1  0.09003581  0.77000692  0.23465081  1  0  -0.028254  0  3.773305  0  0  -0.054716  0  4.015386  0  0  -0.053264  0  4.040215  0  0  -0.020321  -0.055667  0  3.998547  0
C  C54  1  0.40996834  0.22997877  0.73463267  1  0  -0.028191  0  3.77342  0  0  -0.054797  0  4.015357  0  0  -0.053346  0  4.040194  0  0  -0.020231  -0.055743  0  3.998495  0
C  C55  1  0.59001929  0.72998597  0.76536608  1  0  -0.02826  0  3.77357  0  0  -0.054878  0  4.015529  0  0  -0.053425  0  4.040365  0  0  -0.020329  -0.055815  0  3.998663  0
N  N56  1  0.54899511  0.48992709  0.46884208  1  0  -0.376249  0  3.442314  0  0  -0.273425  0  3.719037  0  0  -0.297608  0  3.739002  0  0  -0.409058  -0.256644  0  3.704768  0
N  N57  1  0.45100802  0.98992321  0.03116105  1  0  -0.376371  0  3.44212  0  0  -0.273526  0  3.718877  0  0  -0.297715  0  3.738856  0  0  -0.409009  -0.256741  0  3.704609  0
N  N58  1  0.04898986  0.01007452  0.53115176  1  0  -0.376252  0  3.441951  0  0  -0.27337  0  3.718635  0  0  -0.297557  0  3.738603  0  0  -0.409044  -0.256582  0  3.70437  0
N  N59  1  0.95102664  0.51006544  0.96884186  1  0  -0.376292  0  3.442525  0  0  -0.273393  0  3.719213  0  0  -0.297579  0  3.739182  0  0  -0.409052  -0.256612  0  3.704944  0
N  N60  1  0.34537525  0.54269242  0.55403530  1  0  -0.366362  0  3.429204  0  0  -0.268609  0  3.709705  0  0  -0.291578  0  3.730185  0  0  -0.403871  -0.252713  0  3.695444  0
N  N61  1  0.65462516  0.04269873  0.94596597  1  0  -0.366575  0  3.429236  0  0  -0.268828  0  3.709796  0  0  -0.291798  0  3.730277  0  0  -0.403959  -0.25292  0  3.695519  0
N  N62  1  0.84537266  0.95731185  0.44596000  1  0  -0.366558  0  3.429075  0  0  -0.268785  0  3.709632  0  0  -0.291756  0  3.730109  0  0  -0.403894  -0.252876  0  3.695363  0
N  N63  1  0.15463173  0.45729776  0.05403771  1  0  -0.366345  0  3.428516  0  0  -0.268648  0  3.709161  0  0  -0.291616  0  3.729636  0  0  -0.403922  -0.252755  0  3.694903  0
N  N64  1  0.71075964  0.36336552  0.29242882  1  0  -0.37334  0  3.43503  0  0  -0.270971  0  3.717375  0  0  -0.295317  0  3.737047  0  0  -0.405177  -0.254134  0  3.7036  0
N  N65  1  0.28923909  0.86335344  0.20757883  1  0  -0.373415  0  3.435108  0  0  -0.271048  0  3.717415  0  0  -0.295398  0  3.737092  0  0  -0.405227  -0.254211  0  3.703645  0
N  N66  1  0.21076594  0.13665685  0.70756240  1  0  -0.373338  0  3.434665  0  0  -0.270987  0  3.717026  0  0  -0.295346  0  3.73672  0  0  -0.405264  -0.254144  0  3.703243  0
N  N67  1  0.78924012  0.63664596  0.79243471  1  0  -0.373482  0  3.434787  0  0  -0.271109  0  3.717139  0  0  -0.295465  0  3.736826  0  0  -0.405267  -0.254266  0  3.703354  0
N  N68  1  0.63815859  0.35429313  0.19451303  1  0  -0.380289  0  3.439282  0  0  -0.278316  0  3.71616  0  0  -0.30198  0  3.736727  0  0  -0.406826  -0.261865  0  3.701581  0
N  N69  1  0.36184605  0.85427408  0.30549071  1  0  -0.380338  0  3.439053  0  0  -0.278348  0  3.715944  0  0  -0.302011  0  3.736508  0  0  -0.406855  -0.261896  0  3.701364  0
N  N70  1  0.13817389  0.14570219  0.80548321  1  0  -0.380357  0  3.439412  0  0  -0.278376  0  3.716286  0  0  -0.30204  0  3.736857  0  0  -0.406922  -0.261922  0  3.701695  0
N  N71  1  0.86181884  0.64571786  0.69451603  1  0  -0.380136  0  3.439439  0  0  -0.278125  0  3.716247  0  0  -0.301786  0  3.736818  0  0  -0.406845  -0.261674  0  3.701656  0
