# generated using pymatgen
data_Yb2Cu3H38C42(N3O17)2
_symmetry_space_group_name_H-M   'P 1'
_cell_length_a   11.38310808
_cell_length_b   13.08466295
_cell_length_c   19.00683846
_cell_angle_alpha   90.00043492
_cell_angle_beta   92.85860666
_cell_angle_gamma   89.99987542
_symmetry_Int_Tables_number   1
_chemical_formula_structural   Yb2Cu3H38C42(N3O17)2
_chemical_formula_sum   'Yb4 Cu6 H76 C84 N12 O68'
_cell_volume   2827.43435710
_cell_formula_units_Z   2
loop_
 _symmetry_equiv_pos_site_id
 _symmetry_equiv_pos_as_xyz
  1  'x, y, z'
loop_
 _atom_site_type_symbol
 _atom_site_label
 _atom_site_symmetry_multiplicity
 _atom_site_fract_x
 _atom_site_fract_y
 _atom_site_fract_z
 _atom_site_occupancy
 _atom_site_pbe_bader_charge
 _atom_site_pbe_bader_spin_density
 _atom_site_pbe_cm5_charge
 _atom_site_pbe_ddec_charge
 _atom_site_pbe_ddec_spin_density
 _atom_site_pbe_ddec_sum_bond_order
 _atom_site_pbe_magmom
Yb  Yb0  1  0.86382623  0.06680996  0.64759939  1  2.215245  0.000192  1.582021  2.257491  0.000135  1.898211  0.0
Yb  Yb1  1  0.63618952  0.56675237  0.85240802  1  2.215344  0.000192  1.581942  2.257377  0.000134  1.898758  0.0
Yb  Yb2  1  0.13619217  0.93324482  0.35240815  1  2.215315  0.000192  1.58198  2.257386  0.000134  1.898697  0.0
Yb  Yb3  1  0.36382358  0.43318548  0.14759978  1  2.215223  0.000192  1.582034  2.25752  0.000135  1.898115  0.0
Cu  Cu4  1  0.15553854  0.40731339  0.82843620  1  1.100385  0.588029  0.759026  0.803697  0.743916  2.243961  0.586
Cu  Cu5  1  0.34446259  0.90731679  0.67155436  1  1.100501  0.588051  0.759016  0.803705  0.743952  2.243963  0.586
Cu  Cu6  1  0.84446145  0.59268331  0.17155409  1  1.100524  0.588055  0.759065  0.803758  0.743956  2.243989  0.586
Cu  Cu7  1  0.65553912  0.09268678  0.32843655  1  1.100474  0.588034  0.75904  0.803716  0.743921  2.243894  0.586
Cu  Cu8  1  0.99999619  0.00000511  0.00000558  1  1.080953  0.579639  0.759573  0.766569  0.740369  2.319871  0.578
Cu  Cu9  1  0.50000319  0.49999453  0.50000873  1  1.081009  0.579634  0.75958  0.766486  0.740363  2.319946  0.578
H  H10  1  0.80196917  0.25283108  0.68489849  1  0.621971  -3e-06  0.314458  0.40068  -1.1e-05  0.909071  0.0
H  H11  1  0.69799999  0.75279893  0.81511650  1  0.621787  -3e-06  0.314308  0.40047  -1.1e-05  0.909429  0.0
H  H12  1  0.19800122  0.74719925  0.31511612  1  0.621855  -3e-06  0.314297  0.400442  -1.1e-05  0.909464  0.0
H  H13  1  0.30196594  0.24716720  0.18489894  1  0.621899  -3e-06  0.314458  0.400665  -1.1e-05  0.909094  0.0
H  H14  1  0.80382927  0.20477906  0.76162475  1  0.657598  -4.8e-05  0.300128  0.403592  -7.5e-05  0.932146  0.0
H  H15  1  0.69616217  0.70476364  0.73838742  1  0.65762  -4.8e-05  0.300054  0.403389  -7.5e-05  0.932402  0.0
H  H16  1  0.19616073  0.79523369  0.23838611  1  0.657592  -4.8e-05  0.30005  0.403365  -7.5e-05  0.932438  0.0
H  H17  1  0.30382862  0.29522083  0.26162505  1  0.657527  -4.8e-05  0.300095  0.403494  -7.5e-05  0.932257  0.0
H  H18  1  0.85214259  0.25808078  0.56476910  1  0.66676  2.9e-05  0.29859  0.415621  7e-06  0.918056  0.0
H  H19  1  0.64786014  0.75806077  0.93522917  1  0.66689  2.9e-05  0.298502  0.415579  8e-06  0.918136  0.0
H  H20  1  0.14786316  0.74193656  0.43522832  1  0.666873  2.9e-05  0.298522  0.415581  8e-06  0.918113  0.0
H  H21  1  0.35213867  0.24191453  0.06476633  1  0.666632  2.8e-05  0.298564  0.415562  7e-06  0.918118  0.0
H  H22  1  0.98630129  0.25293741  0.59890556  1  0.659964  2.1e-05  0.292211  0.413989  3.5e-05  0.919592  0.0
H  H23  1  0.51371236  0.75293105  0.90108691  1  0.659991  2.1e-05  0.292064  0.413883  3.5e-05  0.919722  0.0
H  H24  1  0.01371534  0.74706541  0.40108662  1  0.659995  2.1e-05  0.292101  0.413915  3.5e-05  0.919686  0.0
H  H25  1  0.48629806  0.24706031  0.09890601  1  0.659978  2.1e-05  0.292221  0.414039  3.5e-05  0.919541  0.0
H  H26  1  0.64917298  0.92115485  0.67640493  1  0.664961  0.000571  0.302773  0.414827  0.000682  0.912525  0.0
H  H27  1  0.85083498  0.42115253  0.82358972  1  0.665018  0.000571  0.302679  0.414607  0.000682  0.912856  0.0
H  H28  1  0.35083298  0.07884720  0.32358883  1  0.66506  0.000571  0.302706  0.414637  0.000682  0.912803  0.0
H  H29  1  0.14917165  0.57884417  0.17640775  1  0.664968  0.000571  0.302742  0.414764  0.000682  0.91259  0.0
H  H30  1  0.75656230  0.93052252  0.73430560  1  0.626375  -9e-06  0.331947  0.424568  -7e-06  0.865547  0.0
H  H31  1  0.74341922  0.43048156  0.76570408  1  0.626484  -9e-06  0.332052  0.424708  -7e-06  0.865363  0.0
H  H32  1  0.24341985  0.06951315  0.26570380  1  0.626216  -9e-06  0.332031  0.424608  -7e-06  0.865496  0.0
H  H33  1  0.25656008  0.56947311  0.23430886  1  0.626624  -9e-06  0.331978  0.424637  -7e-06  0.865471  0.0
H  H34  1  0.81420870  0.03226493  0.49879015  1  0.650686  1.9e-05  0.292422  0.398805  5.9e-05  0.942093  0.0
H  H35  1  0.68593668  0.53205200  0.00118270  1  0.651561  1.9e-05  0.292562  0.399289  5.9e-05  0.941314  0.0
H  H36  1  0.18593501  0.96793965  0.50118420  1  0.651715  1.9e-05  0.292512  0.399133  5.9e-05  0.941529  0.0
H  H37  1  0.31421685  0.46772078  0.99878951  1  0.650479  1.9e-05  0.292448  0.398833  5.9e-05  0.942032  0.0
H  H38  1  0.92840078  0.95671437  0.51175119  1  0.619708  2.2e-05  0.324145  0.422849  1.5e-05  0.87329  0.0
H  H39  1  0.57097348  0.45717911  0.98844083  1  0.61926  2.2e-05  0.324154  0.423344  1.5e-05  0.872923  0.0
H  H40  1  0.07100640  0.04284288  0.48843150  1  0.619493  2.2e-05  0.324063  0.423186  1.5e-05  0.873134  0.0
H  H41  1  0.42836909  0.54330289  0.01176178  1  0.620228  2.2e-05  0.32426  0.422994  1.5e-05  0.87307  0.0
H  H42  1  0.03774885  0.90131914  0.65345564  1  0.631087  0.000434  0.298221  0.395501  0.000552  0.943396  0.0
H  H43  1  0.46229171  0.40132602  0.84647738  1  0.631242  0.000432  0.298058  0.395149  0.000552  0.943888  0.0
H  H44  1  0.96229117  0.09867603  0.34648191  1  0.631256  0.000432  0.298048  0.395101  0.000552  0.943935  0.0
H  H45  1  0.53774699  0.59868291  0.15345221  1  0.631063  0.000434  0.298262  0.395563  0.000552  0.943277  0.0
H  H46  1  0.92301758  0.83434887  0.62915781  1  0.617108  6e-06  0.339234  0.432359  7e-06  0.843661  0.0
H  H47  1  0.57695191  0.33459448  0.87111241  1  0.617859  7e-06  0.338914  0.431452  8e-06  0.84489  0.0
H  H48  1  0.07695659  0.16541932  0.37110019  1  0.617832  7e-06  0.338949  0.431625  8e-06  0.844697  0.0
H  H49  1  0.42301115  0.66566437  0.12917031  1  0.616984  6e-06  0.339232  0.432326  7e-06  0.843665  0.0
H  H50  1  0.39077114  0.34866969  0.69305141  1  0.073408  2.6e-05  0.111373  0.114423  -1.4e-05  1.017269  0.0
H  H51  1  0.10922718  0.84866973  0.80695924  1  0.073379  2.6e-05  0.1114  0.11441  -1.4e-05  1.017348  0.0
H  H52  1  0.60923114  0.65133083  0.30696059  1  0.073398  2.6e-05  0.111395  0.114329  -1.4e-05  1.017371  0.0
H  H53  1  0.89076897  0.15133308  0.19305192  1  0.07346  2.6e-05  0.111393  0.114437  -1.4e-05  1.017234  0.0
H  H54  1  0.57095827  0.24031450  0.70903446  1  0.150146  0.000939  0.11423  0.133396  0.000504  1.006576  0.001
H  H55  1  0.92902917  0.74030837  0.79098506  1  0.149886  0.000939  0.114188  0.133275  0.000504  1.006729  0.001
H  H56  1  0.42903016  0.75969061  0.29098842  1  0.149911  0.000938  0.114195  0.133276  0.000504  1.006721  0.001
H  H57  1  0.07095696  0.25968757  0.20903191  1  0.150202  0.000939  0.114233  0.133433  0.000504  1.006554  0.001
H  H58  1  0.55066883  0.05136807  0.70097752  1  0.157591  0.002229  0.127445  0.104575  0.001011  1.018798  0.002
H  H59  1  0.94932550  0.55136734  0.79901926  1  0.157393  0.002229  0.127491  0.104716  0.00101  1.018776  0.002
H  H60  1  0.44932710  0.94863092  0.29902205  1  0.157658  0.002228  0.127473  0.104673  0.00101  1.01875  0.002
H  H61  1  0.05066712  0.44863318  0.20097646  1  0.15764  0.002229  0.127409  0.104478  0.001011  1.018849  0.002
H  H62  1  0.19902037  0.96744552  0.83905297  1  0.076631  1.4e-05  0.11291  0.115147  -2.8e-05  1.020884  0.0
H  H63  1  0.30098556  0.46744607  0.66094447  1  0.076635  1.4e-05  0.112899  0.115106  -2.8e-05  1.020891  0.0
H  H64  1  0.80098362  0.03255271  0.16094437  1  0.076675  1.4e-05  0.112905  0.11512  -2.8e-05  1.020865  0.0
H  H65  1  0.69901377  0.53255675  0.33905737  1  0.076586  1.4e-05  0.112901  0.115128  -2.8e-05  1.020826  0.0
H  H66  1  0.37935476  0.06964777  0.85820573  1  0.102156  0.001205  0.124034  0.135721  0.000625  0.957148  0.001
H  H67  1  0.12064912  0.56964671  0.64179269  1  0.102186  0.001205  0.124059  0.135718  0.000625  0.957234  0.001
H  H68  1  0.62064832  0.93035046  0.14179209  1  0.102202  0.001205  0.12406  0.135743  0.000625  0.957193  0.001
H  H69  1  0.87934930  0.43035458  0.35820963  1  0.102323  0.001205  0.124079  0.135719  0.000625  0.957208  0.001
H  H70  1  0.36214614  0.26283427  0.85798454  1  0.090016  0.002516  0.121337  0.086923  0.001133  1.003284  0.002
H  H71  1  0.13786169  0.76283318  0.64200087  1  0.090428  0.002515  0.121321  0.086873  0.001133  1.003339  0.002
H  H72  1  0.63786297  0.73716396  0.14200042  1  0.090464  0.002516  0.121311  0.08686  0.001133  1.003315  0.002
H  H73  1  0.86214196  0.23716887  0.35798698  1  0.090509  0.002516  0.121393  0.08697  0.001133  1.003292  0.002
H  H74  1  0.07620504  0.56335961  0.98204862  1  0.077872  -5.3e-05  0.10771  0.114849  -5.8e-05  1.025844  0.0
H  H75  1  0.42379103  0.06334914  0.51794779  1  0.077616  -5.3e-05  0.107712  0.114981  -5.7e-05  1.025742  0.0
H  H76  1  0.92378926  0.43665238  0.01794876  1  0.077601  -5.3e-05  0.107722  0.114975  -5.7e-05  1.025748  0.0
H  H77  1  0.57620244  0.93664374  0.48204849  1  0.077817  -5.3e-05  0.107704  0.114903  -5.8e-05  1.025811  0.0
H  H78  1  0.25166691  0.67822450  0.99181794  1  0.087099  0.000983  0.109091  0.111259  0.000505  1.011959  0.0
H  H79  1  0.24833089  0.17819823  0.50816021  1  0.087518  0.000982  0.109075  0.111457  0.000505  1.011772  0.0
H  H80  1  0.74832858  0.32180659  0.00815844  1  0.087473  0.000982  0.109082  0.111482  0.000505  1.011805  0.0
H  H81  1  0.75166618  0.82177936  0.49181941  1  0.087083  0.000983  0.109115  0.111288  0.000505  1.011993  0.0
H  H82  1  0.22111324  0.86765530  0.00161770  1  0.15295  0.002075  0.131549  0.117348  0.000935  0.966032  0.002
H  H83  1  0.27888208  0.36764514  0.49837939  1  0.153009  0.002075  0.131499  0.11729  0.000935  0.966042  0.002
H  H84  1  0.77887939  0.13235821  0.99837801  1  0.15324  0.002074  0.131501  0.117285  0.000935  0.966007  0.002
H  H85  1  0.72111924  0.63234698  0.50161835  1  0.152865  0.002075  0.13155  0.117383  0.000934  0.966  0.002
C  C86  1  0.16166861  0.04957912  0.66114338  1  1.557328  -0.000893  0.229136  0.586116  -0.000789  4.14833  -0.001
C  C87  1  0.33832752  0.54957600  0.83886771  1  1.557025  -0.000896  0.228997  0.585762  -0.000789  4.149083  -0.001
C  C88  1  0.83832851  0.95042522  0.33886625  1  1.557022  -0.000896  0.229043  0.585894  -0.000789  4.149071  -0.001
C  C89  1  0.66166596  0.45042299  0.16114384  1  1.557224  -0.000894  0.229166  0.586156  -0.000789  4.148238  -0.001
C  C90  1  0.27064538  0.11305644  0.67137244  1  0.417867  0.000111  0.106111  0.048475  -0.000688  3.939808  0.0
C  C91  1  0.22935117  0.61305648  0.82862952  1  0.418007  0.00011  0.106107  0.048548  -0.000689  3.93971  0.0
C  C92  1  0.72935222  0.88694485  0.32862879  1  0.417933  0.00011  0.106095  0.048485  -0.000689  3.93986  0.0
C  C93  1  0.77064374  0.38694633  0.17137262  1  0.417943  0.00011  0.106097  0.048466  -0.000688  3.939948  0.0
C  C94  1  0.27390457  0.22026899  0.67316827  1  0.111832  0.00324  0.008503  -0.045526  0.002331  3.870138  0.003
C  C95  1  0.22609096  0.72026825  0.82683314  1  0.111746  0.003239  0.008481  -0.045501  0.00233  3.870097  0.002
C  C96  1  0.72609476  0.77973230  0.32683357  1  0.111804  0.003239  0.008449  -0.045583  0.00233  3.87022  0.002
C  C97  1  0.77390022  0.27973380  0.17317250  1  0.111778  0.00324  0.008508  -0.045518  0.002331  3.870117  0.003
C  C98  1  0.16915176  0.29033959  0.65598058  1  1.657595  0.001094  0.200441  0.59115  0.000808  4.257628  0.001
C  C99  1  0.33084334  0.79033501  0.84402644  1  1.657725  0.001094  0.200476  0.59121  0.000808  4.257272  0.001
C  C100  1  0.83084651  0.70966399  0.34402437  1  1.657226  0.001094  0.200451  0.591154  0.000808  4.257384  0.001
C  C101  1  0.66914751  0.20966246  0.15598498  1  1.657676  0.001094  0.200383  0.590949  0.000808  4.257598  0.001
C  C102  1  0.38372703  0.26595146  0.68923101  1  -0.003234  -0.003599  -0.059438  -0.054156  -0.004146  3.916086  -0.002
C  C103  1  0.11626829  0.76595153  0.81077274  1  -0.003267  -0.003599  -0.059592  -0.054364  -0.004146  3.916217  -0.002
C  C104  1  0.61627121  0.73404906  0.31077446  1  -0.003304  -0.003599  -0.059548  -0.054137  -0.004146  3.916223  -0.002
C  C105  1  0.88372288  0.23404976  0.18923290  1  -0.003436  -0.003599  -0.05947  -0.054114  -0.004146  3.915969  -0.002
C  C106  1  0.48422583  0.20677985  0.69894516  1  -0.045434  0.006041  -0.067183  -0.092707  0.004051  3.91966  0.005
C  C107  1  0.01576948  0.70677772  0.80106038  1  -0.045437  0.006041  -0.067216  -0.092714  0.004051  3.919873  0.005
C  C108  1  0.51577223  0.79321915  0.30106346  1  -0.045412  0.006041  -0.067217  -0.09276  0.004051  3.919944  0.005
C  C109  1  0.98422267  0.29322204  0.19894373  1  -0.045154  0.006041  -0.067165  -0.092834  0.004051  3.919622  0.005
C  C110  1  0.47405893  0.10066323  0.69449361  1  0.458585  -0.001564  0.059247  0.107118  -0.002053  3.90061  -0.001
C  C111  1  0.02593792  0.60066036  0.80550356  1  0.458726  -0.001564  0.059199  0.107008  -0.002053  3.900674  -0.001
C  C112  1  0.52593876  0.89933806  0.30550604  1  0.458549  -0.001564  0.059226  0.107037  -0.002054  3.900463  -0.001
C  C113  1  0.97405638  0.39933863  0.19449382  1  0.457964  -0.001561  0.059301  0.107329  -0.002053  3.900481  -0.001
C  C114  1  0.97135347  0.26878477  0.83461349  1  1.568366  -0.001207  0.218794  0.543517  -0.001269  4.196774  -0.001
C  C115  1  0.52865188  0.76878721  0.66538497  1  1.568436  -0.001207  0.218826  0.543608  -0.001269  4.196918  -0.001
C  C116  1  0.02865137  0.73121193  0.16538442  1  1.568428  -0.001207  0.218762  0.543484  -0.001269  4.19702  -0.001
C  C117  1  0.47135036  0.23121637  0.33461228  1  1.568369  -0.001207  0.218753  0.543429  -0.001268  4.197076  -0.001
C  C118  1  0.08109104  0.20520970  0.83446975  1  0.491388  1.6e-05  0.109617  0.061809  -0.000792  3.943931  0.0
C  C119  1  0.41891173  0.70521137  0.66552879  1  0.491516  1.3e-05  0.109616  0.061829  -0.000795  3.943913  0.0
C  C120  1  0.91891290  0.79478776  0.16552864  1  0.491484  1.4e-05  0.109626  0.061879  -0.000794  3.943892  0.0
C  C121  1  0.58108690  0.29479145  0.33446986  1  0.491374  1.6e-05  0.109558  0.061726  -0.000792  3.944165  0.0
C  C122  1  0.08264291  0.09848626  0.83044070  1  -0.004158  0.003129  0.008229  -0.065456  0.002113  3.886384  0.002
C  C123  1  0.41736009  0.59848720  0.66955678  1  -0.004172  0.00313  0.00827  -0.065378  0.002114  3.886334  0.002
C  C124  1  0.91735933  0.90151121  0.16955655  1  -0.004143  0.003129  0.008243  -0.065432  0.002113  3.886437  0.002
C  C125  1  0.58263853  0.40151485  0.33044187  1  -0.004134  0.003129  0.008369  -0.065253  0.002113  3.886211  0.002
C  C126  1  0.97436862  0.03178583  0.81852702  1  1.654126  0.001151  0.216846  0.642051  0.000743  4.214252  0.001
C  C127  1  0.52563800  0.53179534  0.68147132  1  1.655252  0.00115  0.216881  0.641923  0.000743  4.21467  0.001
C  C128  1  0.02563525  0.96820399  0.18147241  1  1.655305  0.00115  0.216912  0.641892  0.000743  4.214632  0.001
C  C129  1  0.47436429  0.46821435  0.31852489  1  1.654159  0.001151  0.216811  0.641886  0.000744  4.214226  0.001
C  C130  1  0.19251537  0.05024957  0.83949470  1  0.027794  -0.003346  -0.05565  -0.037677  -0.003912  3.897133  -0.002
C  C131  1  0.30748842  0.55024911  0.66050572  1  0.027797  -0.003347  -0.05562  -0.037631  -0.003913  3.897036  -0.002
C  C132  1  0.80748674  0.94974866  0.16050465  1  0.027818  -0.003347  -0.055578  -0.037545  -0.003913  3.896963  -0.002
C  C133  1  0.69250997  0.44975218  0.33949713  1  0.028243  -0.003346  -0.055666  -0.037731  -0.003912  3.897008  -0.002
C  C134  1  0.29455903  0.10741034  0.84994527  1  0.093062  0.005807  -0.063184  -0.085679  0.004024  3.918426  0.005
C  C135  1  0.20544484  0.60740997  0.65005229  1  0.093088  0.005806  -0.063256  -0.085734  0.004023  3.918544  0.005
C  C136  1  0.70544409  0.89258712  0.15005202  1  0.09307  0.005805  -0.063285  -0.085845  0.004023  3.918574  0.005
C  C137  1  0.79455361  0.39259285  0.34994951  1  0.092546  0.005807  -0.06325  -0.085652  0.004024  3.918423  0.005
C  C138  1  0.28572678  0.21357893  0.85038496  1  0.436937  -0.000788  0.05723  0.108866  -0.001313  3.94254  -0.001
C  C139  1  0.21427791  0.71357777  0.64961056  1  0.43637  -0.000788  0.057195  0.108919  -0.001313  3.942649  -0.001
C  C140  1  0.71427909  0.78642007  0.14961036  1  0.436038  -0.000788  0.057213  0.108943  -0.001314  3.942761  -0.001
C  C141  1  0.78572251  0.28642428  0.35038765  1  0.436422  -0.000788  0.057229  0.108891  -0.001314  3.942423  -0.001
C  C142  1  0.82862814  0.85195330  0.99591426  1  1.603992  -0.001215  0.211205  0.549311  -0.000904  4.215253  -0.001
C  C143  1  0.67137048  0.35194166  0.50409166  1  1.603509  -0.001213  0.21102  0.549175  -0.000904  4.215437  -0.001
C  C144  1  0.17136401  0.14805563  0.00408985  1  1.603566  -0.001214  0.210998  0.549011  -0.000903  4.215423  -0.001
C  C145  1  0.32863034  0.64804740  0.49591500  1  1.604488  -0.001215  0.211198  0.549364  -0.000904  4.215304  -0.001
C  C146  1  0.94328335  0.79463568  0.99344632  1  0.531654  -0.000233  0.109951  0.060565  -0.001123  3.942843  0.0
C  C147  1  0.55671540  0.29462430  0.50655879  1  0.531369  -0.00023  0.109977  0.060625  -0.001121  3.942824  0.0
C  C148  1  0.05670959  0.20537478  0.00655942  1  0.531411  -0.000229  0.110038  0.060735  -0.001121  3.942907  0.0
C  C149  1  0.44328723  0.70536323  0.49344691  1  0.530523  -0.000233  0.109853  0.060404  -0.001123  3.943136  0.0
C  C150  1  0.95192546  0.68863367  0.98736533  1  -0.023914  0.002498  0.005505  -0.054056  0.00175  3.903016  0.001
C  C151  1  0.54807338  0.18861932  0.51264133  1  -0.024913  0.002498  0.005536  -0.053808  0.00175  3.902601  0.001
C  C152  1  0.04807179  0.31137908  0.01264220  1  -0.024859  0.002498  0.005546  -0.05391  0.00175  3.902762  0.001
C  C153  1  0.45192653  0.81136592  0.48736580  1  -0.023875  0.002498  0.005478  -0.054088  0.00175  3.903188  0.001
C  C154  1  0.84516781  0.62089488  0.97772198  1  1.617228  0.00153  0.228168  0.634496  0.001099  4.181815  0.001
C  C155  1  0.65484120  0.12088729  0.52229379  1  1.61727  0.001531  0.228032  0.634264  0.0011  4.182041  0.001
C  C156  1  0.15483953  0.37911176  0.02229396  1  1.61726  0.001531  0.228008  0.634235  0.0011  4.182144  0.001
C  C157  1  0.34516881  0.87910406  0.47772175  1  1.617221  0.00153  0.228102  0.634407  0.001099  4.18209  0.001
C  C158  1  0.06471977  0.64555283  0.98777413  1  -0.000198  -0.003152  -0.067075  -0.058111  -0.003675  3.903469  -0.002
C  C159  1  0.43527790  0.14554151  0.51222279  1  0.000678  -0.003151  -0.067066  -0.058405  -0.003674  3.90358  -0.002
C  C160  1  0.93527534  0.35445992  0.01222434  1  0.001174  -0.003151  -0.067117  -0.058404  -0.003675  3.903591  -0.002
C  C161  1  0.56472073  0.85444907  0.48777586  1  -0.000205  -0.003152  -0.067037  -0.05812  -0.003675  3.903494  -0.002
C  C162  1  0.16295798  0.70868010  0.99347953  1  0.047795  0.005691  -0.07253  -0.097613  0.00383  3.954407  0.005
C  C163  1  0.33703714  0.20866892  0.50651391  1  0.047396  0.005693  -0.072247  -0.097292  0.003831  3.953864  0.005
C  C164  1  0.83703477  0.29133265  0.00651409  1  0.046922  0.005693  -0.072287  -0.097346  0.003831  3.953992  0.005
C  C165  1  0.66295909  0.79132167  0.49348041  1  0.047824  0.005691  -0.072506  -0.09756  0.00383  3.954395  0.005
C  C166  1  0.14771367  0.81414714  0.99852207  1  0.454068  -0.001328  0.063464  0.115413  -0.001804  3.888258  -0.001
C  C167  1  0.35228294  0.31413663  0.50147305  1  0.454263  -0.001327  0.063419  0.11538  -0.001803  3.88794  -0.001
C  C168  1  0.85227810  0.18586638  0.00147308  1  0.454408  -0.001327  0.063422  0.115371  -0.001803  3.887913  -0.001
C  C169  1  0.64771841  0.68585396  0.49852416  1  0.454027  -0.001328  0.063389  0.11524  -0.001804  3.888173  -0.001
N  N170  1  0.36952523  0.05579317  0.68191341  1  -1.2113  0.080524  -0.347031  -0.257393  0.052748  3.660282  0.069
N  N171  1  0.13047261  0.55579177  0.81808305  1  -1.211293  0.080516  -0.347047  -0.257424  0.052743  3.660349  0.069
N  N172  1  0.63047437  0.94420888  0.31808371  1  -1.211303  0.080515  -0.34708  -0.257416  0.052741  3.66032  0.069
N  N173  1  0.86952350  0.44420952  0.18191336  1  -1.21077  0.08052  -0.347088  -0.257463  0.052746  3.660327  0.069
N  N174  1  0.18155642  0.26013502  0.84246215  1  -1.21053  0.085562  -0.350605  -0.248799  0.056074  3.674593  0.073
N  N175  1  0.31844627  0.76013680  0.65753615  1  -1.210617  0.085551  -0.35064  -0.24891  0.056067  3.674622  0.073
N  N176  1  0.81844669  0.73986168  0.15753515  1  -1.210385  0.08555  -0.350666  -0.248944  0.056066  3.674743  0.073
N  N177  1  0.68155412  0.23986678  0.34246259  1  -1.210534  0.085562  -0.350635  -0.248821  0.056074  3.674594  0.073
N  N178  1  0.03990377  0.85448608  0.99868779  1  -1.218242  0.079185  -0.3486  -0.234874  0.052118  3.660808  0.068
N  N179  1  0.46009423  0.35447459  0.50131287  1  -1.217362  0.079194  -0.348574  -0.234935  0.052123  3.660642  0.068
N  N180  1  0.96008856  0.14552515  0.00131318  1  -1.21772  0.079193  -0.348552  -0.234877  0.052122  3.660621  0.068
N  N181  1  0.53990865  0.64551447  0.49868862  1  -1.217528  0.079182  -0.34848  -0.234658  0.052116  3.660914  0.068
O  O182  1  0.17581221  0.95138989  0.66392992  1  -1.125931  0.082749  -0.308186  -0.530851  0.05256  2.354387  0.076
O  O183  1  0.32417483  0.45139005  0.83609017  1  -1.125872  0.082789  -0.308184  -0.530677  0.052579  2.354634  0.076
O  O184  1  0.82417559  0.04861063  0.33608872  1  -1.125897  0.082788  -0.308187  -0.530734  0.052579  2.354698  0.076
O  O185  1  0.67580836  0.54861276  0.16393192  1  -1.125795  0.082751  -0.308203  -0.530907  0.052562  2.354303  0.076
O  O186  1  0.06295280  0.09089930  0.65139129  1  -1.181182  0.013796  -0.376809  -0.626173  0.008612  2.381593  0.012
O  O187  1  0.43704475  0.59089379  0.84862482  1  -1.180969  0.013808  -0.376587  -0.626246  0.00862  2.382207  0.012
O  O188  1  0.93704663  0.90910657  0.34862424  1  -1.180959  0.013809  -0.376605  -0.626242  0.008621  2.382048  0.012
O  O189  1  0.56295281  0.40910061  0.15139273  1  -1.181279  0.013795  -0.376826  -0.626188  0.008612  2.381572  0.012
O  O190  1  0.12189791  0.28121563  0.59440694  1  -1.180162  0.002488  -0.333818  -0.56715  0.001541  2.141618  0.002
O  O191  1  0.37809180  0.78120935  0.90560187  1  -1.180028  0.002489  -0.333766  -0.567106  0.001541  2.141515  0.002
O  O192  1  0.87809581  0.71879177  0.40560041  1  -1.179936  0.002489  -0.333814  -0.567109  0.001541  2.141495  0.002
O  O193  1  0.62189538  0.21878658  0.09441199  1  -1.180103  0.002488  -0.333808  -0.567031  0.001541  2.141647  0.002
O  O194  1  0.14373014  0.35427579  0.70249385  1  -1.175392  0.003959  -0.338438  -0.601076  0.002019  2.19283  0.004
O  O195  1  0.35627617  0.85426835  0.79751565  1  -1.175543  0.00396  -0.33852  -0.601111  0.002018  2.192499  0.004
O  O196  1  0.85627601  0.64573161  0.29751203  1  -1.175188  0.003959  -0.338466  -0.601079  0.002019  2.192591  0.004
O  O197  1  0.64372957  0.14572453  0.20249757  1  -1.175569  0.003961  -0.338367  -0.601002  0.00202  2.192807  0.004
O  O198  1  0.98695625  0.36724123  0.83288757  1  -1.106516  0.094231  -0.313169  -0.536065  0.059397  2.357133  0.087
O  O199  1  0.51304958  0.86724526  0.66711511  1  -1.106644  0.09424  -0.313198  -0.536157  0.059403  2.357111  0.087
O  O200  1  0.01304920  0.63275470  0.16711511  1  -1.106653  0.094238  -0.313172  -0.536073  0.059402  2.357129  0.087
O  O201  1  0.48695415  0.13275985  0.33288695  1  -1.106493  0.094229  -0.313129  -0.536022  0.059395  2.357172  0.087
O  O202  1  0.87244491  0.22852401  0.83817337  1  -1.158414  0.023442  -0.295458  -0.502055  0.014621  2.18539  0.02
O  O203  1  0.62755724  0.72852851  0.66182051  1  -1.158545  0.02345  -0.29552  -0.502139  0.014626  2.185548  0.02
O  O204  1  0.12755923  0.77147116  0.16182135  1  -1.158545  0.02345  -0.29551  -0.502129  0.014626  2.185508  0.02
O  O205  1  0.37244081  0.27147736  0.33817285  1  -1.158518  0.023441  -0.295469  -0.502027  0.01462  2.185457  0.02
O  O206  1  0.91658191  0.04124549  0.75926842  1  -1.207465  0.001687  -0.449603  -0.731257  0.001085  2.366539  0.001
O  O207  1  0.58341426  0.54127388  0.74072734  1  -1.207912  0.001689  -0.449572  -0.730922  0.001086  2.366505  0.001
O  O208  1  0.08341420  0.95872752  0.24072800  1  -1.207912  0.001689  -0.449595  -0.730922  0.001086  2.366501  0.001
O  O209  1  0.41657930  0.45875339  0.25926737  1  -1.207593  0.001686  -0.449645  -0.731234  0.001085  2.366424  0.001
O  O210  1  0.95422172  0.96791340  0.86508732  1  -1.14897  0.001492  -0.312714  -0.552229  0.000469  2.144681  0.002
O  O211  1  0.54579664  0.46792639  0.63490914  1  -1.14948  0.001496  -0.312675  -0.552128  0.000472  2.144787  0.002
O  O212  1  0.04579197  0.03207413  0.13490998  1  -1.149482  0.001496  -0.312688  -0.552116  0.000472  2.14467  0.002
O  O213  1  0.45421808  0.53208941  0.36508558  1  -1.14894  0.001493  -0.312719  -0.552169  0.00047  2.144665  0.002
O  O214  1  0.83670069  0.94944434  0.00162639  1  -1.085186  0.105886  -0.315637  -0.510633  0.066849  2.329914  0.096
O  O215  1  0.66329766  0.44943363  0.49837758  1  -1.084874  0.105877  -0.315528  -0.510557  0.066845  2.329896  0.096
O  O216  1  0.16328976  0.05056536  0.99837659  1  -1.084877  0.105875  -0.315481  -0.510494  0.066843  2.329898  0.096
O  O217  1  0.33670503  0.55055542  0.50162707  1  -1.085178  0.105891  -0.315605  -0.510605  0.066852  2.329918  0.096
O  O218  1  0.73422224  0.80257191  0.99539554  1  -1.172148  0.017074  -0.301254  -0.515557  0.010469  2.209558  0.014
O  O219  1  0.76577383  0.30255856  0.50460999  1  -1.171974  0.017063  -0.301226  -0.515573  0.010462  2.20961  0.014
O  O220  1  0.26577079  0.19743702  0.00460862  1  -1.171999  0.017065  -0.301263  -0.515522  0.010463  2.209571  0.014
O  O221  1  0.23422444  0.69742592  0.49539495  1  -1.172099  0.017074  -0.301252  -0.515583  0.010469  2.209576  0.014
O  O222  1  0.80752993  0.57521632  0.03103082  1  -1.171192  0.001027  -0.306397  -0.573745  0.000149  2.237178  0.002
O  O223  1  0.69250907  0.07520065  0.46899746  1  -1.171356  0.001022  -0.306343  -0.573596  0.000145  2.237395  0.002
O  O224  1  0.19251010  0.42479949  0.96899939  1  -1.171252  0.001021  -0.306327  -0.573549  0.000144  2.237402  0.002
O  O225  1  0.30752932  0.92478153  0.53103056  1  -1.171118  0.001026  -0.306392  -0.573674  0.000148  2.237293  0.002
O  O226  1  0.80537378  0.60880789  0.91455767  1  -1.191789  0.001358  -0.408198  -0.664632  0.000833  2.281692  0.001
O  O227  1  0.69463074  0.10879788  0.58545992  1  -1.192003  0.001357  -0.408293  -0.66509  0.000833  2.282364  0.001
O  O228  1  0.19462635  0.39120256  0.08546106  1  -1.191948  0.001356  -0.408283  -0.665086  0.000832  2.282435  0.001
O  O229  1  0.30537567  0.89119118  0.41455702  1  -1.191797  0.001357  -0.408182  -0.664637  0.000833  2.281762  0.001
O  O230  1  0.76955920  0.19705680  0.71250656  1  -1.255744  -3.7e-05  -0.62979  -0.835438  -6.9e-05  2.051304  0.0
O  O231  1  0.73046354  0.69705791  0.78749819  1  -1.25568  -3.7e-05  -0.629662  -0.83518  -6.9e-05  2.051618  0.0
O  O232  1  0.23046296  0.80293990  0.28749696  1  -1.255744  -3.7e-05  -0.629661  -0.835141  -6.9e-05  2.051689  0.0
O  O233  1  0.26955589  0.30294261  0.21250677  1  -1.255628  -3.7e-05  -0.629759  -0.835327  -6.9e-05  2.051427  0.0
O  O234  1  0.90312812  0.22653103  0.60344391  1  -1.30882  0.000491  -0.663752  -0.916568  0.000306  2.062645  0.0
O  O235  1  0.59687933  0.72652139  0.89654970  1  -1.309287  0.000491  -0.663493  -0.916666  0.000306  2.062959  0.0
O  O236  1  0.09688045  0.77347867  0.39655050  1  -1.309283  0.000491  -0.663524  -0.916674  0.000306  2.062961  0.0
O  O237  1  0.40312414  0.27346767  0.10344130  1  -1.308735  0.000491  -0.663731  -0.91653  0.000306  2.062572  0.0
O  O238  1  0.72390215  0.95810498  0.68990724  1  -1.266974  0.001649  -0.648341  -0.875645  0.000967  2.094408  0.001
O  O239  1  0.77615322  0.45814928  0.81005892  1  -1.266887  0.001652  -0.64832  -0.87541  0.000969  2.09452  0.001
O  O240  1  0.27615117  0.04184892  0.31005994  1  -1.266628  0.001651  -0.648335  -0.875344  0.000969  2.09462  0.001
O  O241  1  0.22390183  0.54189404  0.18990887  1  -1.267324  0.001649  -0.648344  -0.875676  0.000967  2.094433  0.001
O  O242  1  0.88742349  0.01533681  0.53031339  1  -1.277096  0.000141  -0.645984  -0.908281  6.9e-05  2.078843  0.0
O  O243  1  0.61298683  0.51495500  0.96950088  1  -1.278106  0.000142  -0.647648  -0.910103  6.9e-05  2.079182  0.0
O  O244  1  0.11297490  0.98502826  0.46950792  1  -1.278495  0.000142  -0.64742  -0.909744  6.9e-05  2.079259  0.0
O  O245  1  0.38744956  0.48463435  0.03030339  1  -1.277407  0.000141  -0.64606  -0.908445  6.9e-05  2.078651  0.0
O  O246  1  0.95009512  0.89694898  0.65194519  1  -1.239764  0.001268  -0.627435  -0.869798  0.000762  2.067563  0.001
O  O247  1  0.54992629  0.39678550  0.84775205  1  -1.24021  0.00127  -0.626851  -0.868145  0.000762  2.068192  0.001
O  O248  1  0.04992698  0.10320974  0.34776511  1  -1.240215  0.00127  -0.62689  -0.868312  0.000762  2.068015  0.001
O  O249  1  0.45009297  0.60304535  0.15193073  1  -1.239645  0.001268  -0.627483  -0.869848  0.000762  2.067556  0.001
