# generated using pymatgen
data_CuH12C14(NO)4
_symmetry_space_group_name_H-M   'P 1'
_cell_length_a   10.28031301
_cell_length_b   12.08007065
_cell_length_c   13.89773824
_cell_angle_alpha   93.15794385
_cell_angle_beta   89.99904893
_cell_angle_gamma   89.99852954
_symmetry_Int_Tables_number   1
_chemical_formula_structural   CuH12C14(NO)4
_chemical_formula_sum   'Cu4 H48 C56 N16 O16'
_cell_volume   1723.29627323
_cell_formula_units_Z   4
loop_
 _symmetry_equiv_pos_site_id
 _symmetry_equiv_pos_as_xyz
  1  'x, y, z'
loop_
 _atom_site_type_symbol
 _atom_site_label
 _atom_site_symmetry_multiplicity
 _atom_site_fract_x
 _atom_site_fract_y
 _atom_site_fract_z
 _atom_site_occupancy
 _atom_site_pbe_bader_charge
 _atom_site_pbe_bader_spin_density
 _atom_site_pbe_cm5_charge
 _atom_site_pbe_ddec_charge
 _atom_site_pbe_ddec_spin_density
 _atom_site_pbe_ddec_sum_bond_order
 _atom_site_pbe_magmom
Cu  Cu0  1  0.86230054  0.05777606  0.10027177  1  1.098343  -0.588857  0.756529  0.784042  -0.752369  2.286961  -0.585
Cu  Cu1  1  0.36232045  0.94222575  0.39973920  1  1.097777  -0.584875  0.756178  0.783255  -0.747294  2.287501  -0.581
Cu  Cu2  1  0.13769912  0.94222787  0.89973057  1  1.098459  -0.588872  0.756515  0.783983  -0.752388  2.287051  -0.585
Cu  Cu3  1  0.63768699  0.05776493  0.60025745  1  1.09778  0.5848  0.756209  0.783271  0.78423  2.287511  0.581
H  H4  1  0.88057419  0.66622312  0.07201754  1  0.074099  -0.000446  0.104329  0.10738  -0.0002  0.994205  0.0
H  H5  1  0.38054959  0.33377334  0.42797424  1  0.073961  -0.000427  0.104328  0.107362  -0.000199  0.994234  0.0
H  H6  1  0.11941867  0.33377914  0.92798329  1  0.074148  1.8e-05  0.104381  0.107423  3.8e-05  0.994234  0.0
H  H7  1  0.61944035  0.66623225  0.57202531  1  0.074345  -4.1e-05  0.10435  0.10739  -3.5e-05  0.994182  0.0
H  H8  1  0.86685643  0.49171934  0.15862786  1  0.055791  -0.000151  0.102178  0.096533  -5.4e-05  1.006501  0.0
H  H9  1  0.36684503  0.50827992  0.34136782  1  0.055785  -0.000126  0.102182  0.09662  -4.3e-05  1.006479  0.0
H  H10  1  0.13314421  0.50827879  0.84137132  1  0.05604  -0.000171  0.102132  0.096485  -6.7e-05  1.006633  0.0
H  H11  1  0.63315269  0.49172650  0.65863321  1  0.055863  0.000145  0.102163  0.096566  5.8e-05  1.006544  0.0
H  H12  1  0.99876839  0.47024971  0.30695831  1  0.070143  -0.000101  0.101379  0.099478  -4.3e-05  1.000997  0.0
H  H13  1  0.49877329  0.52975399  0.19304605  1  0.070205  -9.5e-05  0.101417  0.099544  -3.9e-05  1.001009  0.0
H  H14  1  0.00122544  0.52975338  0.69304327  1  0.070086  -1.3e-05  0.101357  0.099461  -7e-06  1.000962  0.0
H  H15  1  0.50122540  0.47024911  0.80695554  1  0.070161  5e-06  0.101375  0.099489  8e-06  1.000919  0.0
H  H16  1  0.14462115  0.62504751  0.36734282  1  0.088853  -0.000587  0.104205  0.107256  -0.000419  1.003951  0.0
H  H17  1  0.64462400  0.37495095  0.13266202  1  0.088941  -0.000572  0.104191  0.10721  -0.000413  1.003954  0.0
H  H18  1  0.85536879  0.37495558  0.63266021  1  0.089077  0.000328  0.104196  0.107231  0.000332  1.003977  0.0
H  H19  1  0.35536691  0.62504965  0.86734016  1  0.08908  -0.000359  0.104219  0.107253  -0.000329  1.00391  0.0
H  H20  1  0.28666467  0.18057105  0.25554509  1  0.151583  -0.000943  0.120462  0.111577  -0.000612  1.05863  -0.001
H  H21  1  0.78667008  0.81943252  0.24445035  1  0.151981  -0.000979  0.120444  0.111548  -0.000651  1.058494  -0.001
H  H22  1  0.71333889  0.81941795  0.74445723  1  0.151716  -0.000698  0.120475  0.111617  -0.000175  1.058461  -0.001
H  H23  1  0.21334223  0.18057391  0.75554708  1  0.151707  0.000735  0.120493  0.111573  0.00024  1.058548  0.001
H  H24  1  0.18084274  0.37431481  0.19037217  1  0.107921  -0.001072  0.10497  0.127854  -0.000547  1.032056  -0.001
H  H25  1  0.68085448  0.62568617  0.30962516  1  0.108007  -0.001062  0.104988  0.127965  -0.000541  1.032048  0.0
H  H26  1  0.81916471  0.62567831  0.80963683  1  0.108361  -0.001074  0.104995  0.127918  -0.000549  1.031992  -0.001
H  H27  1  0.31916756  0.37431527  0.69037635  1  0.108  0.001062  0.104992  0.127889  0.000565  1.032049  0.001
H  H28  1  0.94326503  0.30388259  0.11321258  1  0.112094  -0.000295  0.123157  0.115556  -8.7e-05  1.005259  0.0
H  H29  1  0.44327419  0.69611327  0.38678343  1  0.111978  -0.000287  0.123166  0.115575  -7.7e-05  1.005118  0.0
H  H30  1  0.05673950  0.69611966  0.88679832  1  0.111942  -0.000307  0.123195  0.115704  -9.6e-05  1.005206  0.0
H  H31  1  0.55674007  0.30388072  0.61321050  1  0.112174  0.000297  0.123212  0.115679  9.7e-05  1.005241  0.0
H  H32  1  0.55346410  0.96842300  0.82899497  1  0.17045  -0.00084  0.125287  0.119031  -0.000394  1.0185  -0.001
H  H33  1  0.05346509  0.03157914  0.67100247  1  0.170539  -0.000875  0.125312  0.119041  -0.000472  1.018522  -0.001
H  H34  1  0.44653557  0.03158011  0.17100446  1  0.170535  -0.000869  0.12529  0.119042  -0.00046  1.018517  -0.001
H  H35  1  0.94653069  0.96841984  0.32898668  1  0.170781  0.000852  0.125335  0.119028  0.000433  1.018448  0.001
H  H36  1  0.50039586  0.80085480  0.95109766  1  0.096604  -0.000924  0.107789  0.13741  -0.000492  1.021423  -0.001
H  H37  1  0.00039647  0.19914275  0.54889731  1  0.096613  -0.000844  0.107816  0.137422  -0.000371  1.021474  -0.001
H  H38  1  0.49960477  0.19914913  0.04890253  1  0.096524  -0.000925  0.107785  0.137388  -0.000486  1.021396  -0.001
H  H39  1  0.99961584  0.80085623  0.45109183  1  0.096501  0.000845  0.107825  0.137447  0.000399  1.021374  0.001
H  H40  1  0.67685861  0.83876292  0.09942799  1  0.130659  -0.000324  0.116467  0.101381  -6.7e-05  1.036942  0.0
H  H41  1  0.17685929  0.16123402  0.40056630  1  0.130717  -0.000318  0.116529  0.101434  -6.4e-05  1.036966  0.0
H  H42  1  0.32314203  0.16124019  0.90057143  1  0.130627  -0.000396  0.116459  0.101391  -0.000149  1.036902  0.0
H  H43  1  0.82315983  0.83876246  0.59942919  1  0.13079  0.000395  0.116519  0.101441  0.000155  1.036912  0.0
H  H44  1  0.12306731  0.03020681  0.21568274  1  0.573749  -0.000162  0.323479  0.275359  -7.5e-05  1.001414  0.0
H  H45  1  0.62306631  0.96979134  0.28431588  1  0.573754  -0.000168  0.323491  0.275311  -9.3e-05  1.001524  0.0
H  H46  1  0.87693236  0.96978551  0.78431975  1  0.57386  -0.000197  0.323442  0.275312  -5.6e-05  1.001509  0.0
H  H47  1  0.37693141  0.03020763  0.71568047  1  0.573767  0.000185  0.323508  0.27534  4.5e-05  1.001538  0.0
H  H48  1  0.73999430  0.07865821  0.90941780  1  0.54359  -0.000224  0.333693  0.28613  -8.8e-05  0.947746  0.0
H  H49  1  0.23999648  0.92134384  0.59058166  1  0.54361  -0.00023  0.333748  0.286138  -0.000109  0.947799  0.0
H  H50  1  0.26000536  0.92134656  0.09058027  1  0.543664  -0.000186  0.333722  0.286127  -9e-05  0.947776  0.0
H  H51  1  0.76000027  0.07865015  0.40941444  1  0.543563  0.000268  0.333729  0.286173  0.000117  0.947744  0.0
C  C52  1  0.01506614  0.84866900  0.11814008  1  1.612279  0.000541  0.211726  0.59735  -0.00088  4.229596  0.002
C  C53  1  0.51504877  0.15130836  0.38186242  1  1.61256  0.000591  0.211745  0.597045  -0.000465  4.229699  0.002
C  C54  1  0.98492866  0.15133242  0.88186574  1  1.612747  0.000635  0.211791  0.597453  -0.000814  4.229583  0.002
C  C55  1  0.48493825  0.84868977  0.61813388  1  1.612492  -0.000701  0.211775  0.597163  0.000635  4.229717  -0.002
C  C56  1  0.01880340  0.74321253  0.17135598  1  -0.053416  -0.01161  -0.002999  -0.014921  -0.008073  3.911774  -0.009
C  C57  1  0.51879279  0.25678135  0.32864298  1  -0.053071  -0.009912  -0.002943  -0.014812  -0.006906  3.911653  -0.008
C  C58  1  0.98118848  0.25679140  0.82864637  1  -0.053369  -0.010111  -0.002936  -0.014803  -0.007126  3.911776  -0.008
C  C59  1  0.48119423  0.74321677  0.67135836  1  -0.053033  0.008382  -0.00291  -0.014714  0.006259  3.911712  0.007
C  C60  1  0.93833742  0.65615829  0.13688700  1  -0.041503  -0.004491  -0.089795  -0.117993  -0.002894  3.978531  -0.003
C  C61  1  0.43832078  0.34383603  0.36310828  1  -0.041706  -0.004024  -0.089771  -0.117948  -0.002596  3.978491  -0.002
C  C62  1  0.06165544  0.34384481  0.86311459  1  -0.041626  -0.002783  -0.089949  -0.118121  -0.001752  3.978698  -0.001
C  C63  1  0.56167208  0.65616790  0.63689191  1  -0.041748  0.002278  -0.08974  -0.117956  0.00152  3.978419  0.001
C  C64  1  0.93097184  0.55842815  0.18545740  1  -0.022088  0.000791  -0.086255  -0.068206  0.000547  4.011795  0.001
C  C65  1  0.43096015  0.44156799  0.31453950  1  -0.021777  0.000771  -0.086156  -0.068114  0.000538  4.011634  0.001
C  C66  1  0.06902296  0.44157412  0.81454343  1  -0.022292  -0.000114  -0.086194  -0.068197  -7.5e-05  4.011983  0.0
C  C67  1  0.56903465  0.55843428  0.68546348  1  -0.022029  0.000124  -0.086196  -0.068141  0.000104  4.011792  0.0
C  C68  1  0.00460143  0.54661349  0.26891990  1  -0.109565  -0.003835  -0.095968  -0.096186  -0.002416  4.034488  -0.002
C  C69  1  0.50459582  0.45338899  0.23108111  1  -0.109637  -0.003437  -0.096076  -0.096458  -0.002155  4.034511  -0.002
C  C70  1  0.99539337  0.45339043  0.73108389  1  -0.10962  -0.003511  -0.095944  -0.096179  -0.002305  4.03453  -0.002
C  C71  1  0.49539898  0.54661659  0.76891988  1  -0.108855  0.003112  -0.095957  -0.096265  0.002145  4.034588  0.002
C  C72  1  0.08605740  0.63240726  0.30259456  1  -0.02426  0.000448  -0.086415  -0.096857  0.000217  3.993459  0.0
C  C73  1  0.58605124  0.36759337  0.19740607  1  -0.024131  0.000416  -0.08627  -0.096597  0.000198  3.993291  0.0
C  C74  1  0.91393741  0.36759915  0.69740791  1  -0.024462  0.000301  -0.08633  -0.096707  0.000261  3.993299  0.0
C  C75  1  0.41393772  0.63240641  0.80259535  1  -0.025086  -0.000318  -0.086334  -0.096716  -0.000239  3.993318  0.0
C  C76  1  0.09421475  0.73143591  0.25463507  1  0.015432  -0.012348  -0.018089  -0.063958  -0.008458  3.94198  -0.009
C  C77  1  0.59420565  0.26856289  0.24536321  1  0.015394  -0.012137  -0.018087  -0.063933  -0.008328  3.94199  -0.009
C  C78  1  0.90578297  0.26856967  0.74536664  1  0.015444  0.005654  -0.018185  -0.064144  0.004356  3.941961  0.005
C  C79  1  0.40578526  0.73143773  0.75463538  1  0.015389  -0.006111  -0.018227  -0.064172  -0.004411  3.942047  -0.005
C  C80  1  0.18277834  0.82295776  0.29227594  1  1.545503  0.001239  0.200529  0.562234  8.4e-05  4.214258  0.003
C  C81  1  0.68277188  0.17703985  0.20772695  1  1.545002  0.001162  0.200618  0.562173  -3.3e-05  4.213872  0.003
C  C82  1  0.81722424  0.17704368  0.70772412  1  1.545169  -0.001594  0.200631  0.562407  -3.3e-05  4.214042  -0.003
C  C83  1  0.31722098  0.82296408  0.79227396  1  1.545269  0.001493  0.200725  0.562562  0.000165  4.213646  0.003
C  C84  1  0.19432327  0.19637778  0.22105002  1  0.352162  0.00081  0.020089  0.001174  0.000182  3.944412  0.0
C  C85  1  0.69432838  0.80362372  0.27894933  1  0.351603  0.000833  0.020207  0.001411  0.000196  3.944221  0.0
C  C86  1  0.80567931  0.80361287  0.77895598  1  0.352099  0.001092  0.020075  0.001254  0.000297  3.94433  0.0
C  C87  1  0.30568393  0.19638021  0.72105158  1  0.352366  -0.001116  0.020033  0.001318  -0.000187  3.944247  0.0
C  C88  1  0.13895619  0.29194880  0.18734167  1  -0.000404  -0.003208  -0.120952  -0.229931  -0.002176  4.037701  -0.003
C  C89  1  0.63896246  0.70805148  0.31265398  1  -0.000445  -0.003159  -0.120906  -0.230111  -0.002138  4.037779  -0.003
C  C90  1  0.86104931  0.70804516  0.81266594  1  -0.000668  -0.00309  -0.121  -0.230093  -0.002099  4.037558  -0.003
C  C91  1  0.36105374  0.29194997  0.68734536  1  -0.000465  0.003024  -0.120832  -0.229799  0.002168  4.037473  0.003
C  C92  1  0.01840244  0.25806246  0.14849310  1  0.408276  0.000228  0.016798  0.014065  -0.000345  3.972601  -0.001
C  C93  1  0.51840584  0.74193722  0.35150687  1  0.408198  0.000265  0.016791  0.01409  -0.00031  3.97233  -0.001
C  C94  1  0.98160209  0.74193646  0.85151691  1  0.408185  0.000223  0.016726  0.013917  -0.000348  3.972458  -0.001
C  C95  1  0.48160744  0.25806008  0.64849011  1  0.407953  -0.000261  0.016623  0.013671  0.000497  3.972619  0.001
C  C96  1  0.59448957  0.95104875  0.89837116  1  0.379234  -0.000591  0.027615  0.018483  -0.000783  3.921647  -0.001
C  C97  1  0.09448672  0.04894749  0.60162547  1  0.378914  -0.000697  0.02768  0.018597  -0.000907  3.92141  -0.001
C  C98  1  0.40551009  0.04895435  0.10162899  1  0.379376  -0.000681  0.027572  0.018416  -0.000868  3.921483  -0.001
C  C99  1  0.90551002  0.95104569  0.39836554  1  0.378779  0.000597  0.027571  0.018572  0.000944  3.921744  0.001
C  C100  1  0.57228559  0.86606597  0.95990773  1  -0.016808  -0.002819  -0.116955  -0.217041  -0.001909  4.013702  -0.002
C  C101  1  0.07228350  0.13393078  0.54008488  1  -0.016899  -0.002835  -0.116901  -0.216928  -0.001976  4.013507  -0.002
C  C102  1  0.42771700  0.13393795  0.04009246  1  -0.016822  -0.002833  -0.116956  -0.216974  -0.001915  4.013343  -0.002
C  C103  1  0.92772006  0.86606655  0.45990418  1  -0.016711  0.002825  -0.116869  -0.216976  0.002085  4.013789  0.002
C  C104  1  0.66125210  0.88468126  0.03565917  1  0.393033  -0.000159  0.015019  0.008746  -0.000516  3.983829  -0.001
C  C105  1  0.16125857  0.11531520  0.46433385  1  0.392682  -0.000215  0.015054  0.008743  -0.00055  3.983545  -0.001
C  C106  1  0.33874757  0.11532516  0.96433898  1  0.392912  -0.000208  0.015073  0.008719  -0.000544  3.983487  -0.001
C  C107  1  0.83875665  0.88468211  0.53565953  1  0.392667  0.000259  0.014987  0.008644  0.000748  3.983792  0.001
N  N108  1  0.00172161  0.14883010  0.15818192  1  -0.701431  -0.074177  -0.283238  -0.176427  -0.050798  3.561442  -0.064
N  N109  1  0.50171512  0.85117162  0.34181764  1  -0.701056  -0.073893  -0.283058  -0.176012  -0.050619  3.561171  -0.064
N  N110  1  0.99827903  0.85116800  0.84182517  1  -0.701542  -0.074057  -0.283251  -0.17635  -0.050726  3.561348  -0.064
N  N111  1  0.49828941  0.14882403  0.65817566  1  -0.701286  0.073747  -0.283022  -0.175894  0.053043  3.561183  0.064
N  N112  1  0.10914737  0.11289918  0.20259123  1  -0.856297  -0.004293  -0.279122  -0.077757  -0.002375  3.691991  -0.002
N  N113  1  0.60914857  0.88710176  0.29741058  1  -0.856138  -0.004355  -0.279212  -0.07787  -0.002426  3.692227  -0.003
N  N114  1  0.89085327  0.88709561  0.79741498  1  -0.856367  -0.004241  -0.279024  -0.077774  -0.002348  3.692337  -0.002
N  N115  1  0.39085693  0.11289803  0.70258725  1  -0.856239  0.004239  -0.279096  -0.077821  0.002495  3.692249  0.002
N  N116  1  0.73301233  0.97525528  0.02114711  1  -0.722068  -0.070677  -0.280317  -0.179171  -0.04827  3.566362  -0.061
N  N117  1  0.23302705  0.02473872  0.47884779  1  -0.720934  -0.07037  -0.280328  -0.178959  -0.048062  3.566247  -0.061
N  N118  1  0.26698637  0.02475031  0.97885100  1  -0.721863  -0.070705  -0.28033  -0.179143  -0.048284  3.566382  -0.061
N  N119  1  0.76698234  0.97525528  0.52114759  1  -0.721353  0.070304  -0.280307  -0.178941  0.050417  3.566263  0.061
N  N120  1  0.69020852  0.01477990  0.93800401  1  -0.813125  -0.004235  -0.280467  -0.075225  -0.002372  3.704868  -0.002
N  N121  1  0.19021039  0.98521499  0.56199283  1  -0.813264  -0.004224  -0.280554  -0.075362  -0.002372  3.704793  -0.002
N  N122  1  0.30979017  0.98522072  0.06199386  1  -0.813413  -0.004242  -0.280491  -0.075222  -0.002384  3.70476  -0.002
N  N123  1  0.80979025  0.01477403  0.43799942  1  -0.813162  0.004214  -0.280477  -0.07529  0.002501  3.704908  0.002
O  O124  1  0.92959911  0.91822103  0.15256144  1  -1.124064  -0.101733  -0.323506  -0.563993  -0.065546  2.395443  -0.093
O  O125  1  0.42958588  0.08178180  0.34742429  1  -1.12453  -0.100956  -0.323102  -0.563288  -0.065115  2.395695  -0.093
O  O126  1  0.07039180  0.08177709  0.84744205  1  -1.124379  -0.101801  -0.323454  -0.563986  -0.06558  2.39558  -0.094
O  O127  1  0.57041087  0.91821301  0.65257400  1  -1.124249  0.10084  -0.323279  -0.563572  0.068365  2.395594  0.093
O  O128  1  0.08527967  0.85698108  0.04552860  1  -1.183009  -0.010383  -0.314757  -0.581126  -0.006582  2.321453  -0.011
O  O129  1  0.58526384  0.14302287  0.45448012  1  -1.182539  0.003847  -0.314674  -0.580907  0.003172  2.321243  0.004
O  O130  1  0.91471805  0.14302615  0.95447823  1  -1.183139  -0.010308  -0.314877  -0.581264  -0.006534  2.321493  -0.01
O  O131  1  0.41473096  0.85697442  0.54552118  1  -1.182674  -0.003948  -0.314557  -0.580765  -0.003007  2.321516  -0.004
O  O132  1  0.23654348  0.81056607  0.37433723  1  -1.109362  -0.101854  -0.315303  -0.526086  -0.065402  2.287709  -0.092
O  O133  1  0.73654723  0.18942038  0.12565941  1  -1.10864  -0.102912  -0.314979  -0.525538  -0.066084  2.287365  -0.093
O  O134  1  0.76346202  0.18942709  0.62566026  1  -1.109283  0.101507  -0.315262  -0.52605  0.068497  2.287745  0.092
O  O135  1  0.26344854  0.81058437  0.87434226  1  -1.108959  -0.102567  -0.314984  -0.525646  -0.065889  2.287372  -0.093
O  O136  1  0.20159613  0.90637183  0.24253503  1  -1.20307  -0.000907  -0.322222  -0.58691  -0.000185  2.251862  -0.002
O  O137  1  0.70159107  0.09362783  0.25746845  1  -1.202775  -0.00102  -0.322168  -0.586854  -0.000257  2.251873  -0.002
O  O138  1  0.79840353  0.09362960  0.75746791  1  -1.202807  0.000526  -0.322319  -0.587048  0.0001  2.251711  0.001
O  O139  1  0.29839692  0.90637030  0.74252857  1  -1.202902  -0.000594  -0.322202  -0.587034  -9e-06  2.251902  -0.001
