# generated using pymatgen
data_AlH9(C5O2)3
_symmetry_space_group_name_H-M   'P 1'
_cell_length_a   3.98690261
_cell_length_b   17.23449968
_cell_length_c   17.23449871
_cell_angle_alpha   119.99993612
_cell_angle_beta   89.99984704
_cell_angle_gamma   89.99996101
_symmetry_Int_Tables_number   1
_chemical_formula_structural   AlH9(C5O2)3
_chemical_formula_sum   'Al2 H18 C30 O12'
_cell_volume   1025.56661299
_cell_formula_units_Z   2
loop_
 _symmetry_equiv_pos_site_id
 _symmetry_equiv_pos_as_xyz
  1  'x, y, z'
loop_
 _atom_site_type_symbol
 _atom_site_label
 _atom_site_symmetry_multiplicity
 _atom_site_fract_x
 _atom_site_fract_y
 _atom_site_fract_z
 _atom_site_occupancy
 _atom_site_pbe_bader_charge
 _atom_site_pbe_bader_spin_density
 _atom_site_pbe_cm5_charge
 _atom_site_pbe_ddec_charge
 _atom_site_pbe_ddec_spin_density
 _atom_site_pbe_ddec_sum_bond_order
 _atom_site_pbe_magmom
Al  Al0  1  0.99984526  0.50000039  0.50000023  1  2.503957  0  0.426907  1.594198  0  2.575947  0
Al  Al1  1  0.00000772  0.16666678  0.83333350  1  2.502338  0  0.427366  1.594402  0  2.574531  0
H  H2  1  0.48788756  0.50161708  0.75222689  1  0.105492  0  0.105179  0.106923  0  0.989579  0
H  H3  1  0.51200122  0.41878486  0.83482353  1  0.027377  0  0.105185  0.106289  0  0.99016  0
H  H4  1  0.27277510  0.11141200  0.52822052  1  0.04142  0  0.092588  0.097267  0  1.0123  0
H  H5  1  0.71941003  0.11170585  0.53011959  1  0.053695  0  0.093671  0.098308  0  1.008304  0
H  H6  1  0.72757207  0.19487146  0.44473284  1  0.055093  0  0.092628  0.097084  0  1.012314  0
H  H7  1  0.28059351  0.19671506  0.44505965  1  0.0459  0  0.093486  0.098062  0  1.009115  0
H  H8  1  0.48789102  0.75061025  0.49838295  1  0.036693  0  0.105174  0.10693  0  0.989578  0
H  H9  1  0.51200173  0.91603980  0.58121565  1  0.075913  0  0.105175  0.106274  0  0.990099  0
H  H10  1  0.27277927  0.91680713  0.88858831  1  0.041621  0  0.092587  0.097253  0  1.012342  0
H  H11  1  0.71941170  0.91841246  0.88829279  1  0.050872  0  0.093673  0.098305  0  1.008323  0
H  H12  1  0.72757166  0.74986005  0.80512708  1  0.057785  0  0.092634  0.097089  0  1.012296  0
H  H13  1  0.28059812  0.74834356  0.80328438  1  0.053945  0  0.093481  0.09805  0  1.009134  0
H  H14  1  0.48789074  0.24777415  0.24938943  1  0.047303  0  0.105171  0.106949  0  0.989577  0
H  H15  1  0.51200574  0.16517646  0.08396039  1  0.080772  0  0.10517  0.106268  0  0.990121  0
H  H16  1  0.27277690  0.47178121  0.08319208  1  0.035771  0  0.09259  0.097283  0  1.012352  0
H  H17  1  0.71940934  0.46988097  0.08158389  1  0.044184  0  0.093656  0.098295  0  1.00828  0
H  H18  1  0.72758003  0.55526742  0.25013669  1  0.056456  0  0.092643  0.097115  0  1.012315  0
H  H19  1  0.28059895  0.55494063  0.25165446  1  0.066836  0  0.093493  0.098102  0  1.00912  0
C  C20  1  0.49982640  0.42907931  0.36254683  1  1.636708  0  0.281743  0.672508  0  4.05625  0
C  C21  1  0.49982275  0.43346868  0.57092121  1  1.556459  0  0.28169  0.67235  0  4.056397  0
C  C22  1  0.49982492  0.63745223  0.56653130  1  1.559909  0  0.281741  0.672479  0  4.056261  0
C  C23  1  0.50008037  0.23758882  0.76671173  1  1.600923  0  0.282316  0.673277  0  4.05457  0
C  C24  1  0.50007824  0.02912251  0.76241199  1  1.599783  0  0.282346  0.673297  0  4.054459  0
C  C25  1  0.50007675  0.23328914  0.97087663  1  1.552181  0  0.282336  0.673344  0  4.054553  0
C  C26  1  0.50005296  0.28742597  0.71702196  1  -0.094723  0  -0.004842  -0.071818  0  3.967683  0
C  C27  1  0.49974230  0.38379932  0.62076000  1  0.071086  0  -0.004554  -0.069982  0  3.968401  0
C  C28  1  0.49448029  0.24396498  0.62391978  1  0.027973  0  -0.005133  0.056653  0  3.886699  0
C  C29  1  0.49427882  0.42855216  0.71505488  1  -0.00823  0  -0.082786  -0.103733  0  3.993798  0
C  C30  1  0.50541878  0.29067896  0.57725337  1  -0.150719  0  -0.004829  0.055076  0  3.88496  0
C  C31  1  0.50554554  0.38172096  0.76178163  1  0.111244  0  -0.082445  -0.101174  0  3.992376  0
C  C32  1  0.49639217  0.15288224  0.53923548  1  -0.023254  0  -0.150301  -0.19321  0  3.869859  0
C  C33  1  0.50383674  0.20588014  0.48616329  1  -0.062137  0  -0.150143  -0.19228  0  3.868473  0
C  C34  1  0.50004936  0.92959614  0.71257434  1  0.009352  0  -0.004845  -0.071812  0  3.967655  0
C  C35  1  0.49974171  0.73696067  0.61620024  1  0.020149  0  -0.004552  -0.069968  0  3.968406  0
C  C36  1  0.49447847  0.87995465  0.75603521  1  0.031575  0  -0.005115  0.056695  0  3.886648  0
C  C37  1  0.49428149  0.78650333  0.57144796  1  0.018685  0  -0.082755  -0.103715  0  3.993869  0
C  C38  1  0.50541720  0.78657364  0.70932061  1  -0.068458  0  -0.004859  0.054989  0  3.884969  0
C  C39  1  0.50554295  0.88006095  0.61827954  1  -0.037024  0  -0.082444  -0.101184  0  3.992329  0
C  C40  1  0.49639173  0.88635294  0.84711805  1  -0.021415  0  -0.150287  -0.193165  0  3.869841  0
C  C41  1  0.50383658  0.78028167  0.79411900  1  -0.06813  0  -0.150172  -0.192297  0  3.86847  0
C  C42  1  0.50005398  0.28297903  0.07040329  1  -0.025484  0  -0.004786  -0.071751  0  3.967595  0
C  C43  1  0.49974425  0.37923965  0.26303851  1  -0.063087  0  -0.004552  -0.070038  0  3.968401  0
C  C44  1  0.49448281  0.37608116  0.12004493  1  0.187601  0  -0.005129  0.056716  0  3.886601  0
C  C45  1  0.49427929  0.28494482  0.21349525  1  -0.073044  0  -0.082798  -0.103765  0  3.993868  0
C  C46  1  0.50542555  0.42274678  0.21342386  1  -0.144642  0  -0.004854  0.055084  0  3.884933  0
C  C47  1  0.50554677  0.23821863  0.11993783  1  0.045584  0  -0.082442  -0.101197  0  3.992337  0
C  C48  1  0.49639144  0.46076513  0.11364457  1  -0.012371  0  -0.150301  -0.193237  0  3.869869  0
C  C49  1  0.50384017  0.51383816  0.21971613  1  -0.074077  0  -0.150177  -0.19241  0  3.868554  0
O  O50  1  0.73478925  0.59896371  0.58497614  1  -1.253671  0  -0.235595  -0.596424  0  2.343626  0
O  O51  1  0.73478793  0.48601226  0.40103616  1  -1.255736  0  -0.235592  -0.596413  0  2.343628  0
O  O52  1  0.73478744  0.41502427  0.51398762  1  -1.25173  0  -0.235579  -0.596359  0  2.34364  0
O  O53  1  0.26569618  0.59749172  0.50984176  1  -1.260791  0  -0.237375  -0.599332  0  2.344976  0
O  O54  1  0.26569344  0.49015878  0.58765023  1  -1.256828  0  -0.237335  -0.59926  0  2.345033  0
O  O55  1  0.26569709  0.41234993  0.40250769  1  -1.256367  0  -0.237369  -0.599335  0  2.344944  0
O  O56  1  0.73445199  0.17665922  0.93096637  1  -1.258373  0  -0.237499  -0.599446  0  2.344434  0
O  O57  1  0.73445997  0.25430831  0.82334138  1  -1.258583  0  -0.237508  -0.599411  0  2.344348  0
O  O58  1  0.73445821  0.06903297  0.74569318  1  -1.260322  0  -0.237511  -0.599412  0  2.344375  0
O  O59  1  0.26519033  0.25167985  0.93230450  1  -1.259257  0  -0.236079  -0.596961  0  2.342737  0
O  O60  1  0.26519377  0.06769627  0.81937578  1  -1.254868  0  -0.236063  -0.596922  0  2.342732  0
O  O61  1  0.26519898  0.18062573  0.74832157  1  -1.259314  0  -0.236024  -0.596904  0  2.342849  0
