# generated using pymatgen
data_Zn3H6C27(ClO6)2
_symmetry_space_group_name_H-M   'P 1'
_cell_length_a   21.68464663
_cell_length_b   23.10855240
_cell_length_c   23.10854689
_cell_angle_alpha   77.27765733
_cell_angle_beta   62.01178409
_cell_angle_gamma   62.01159816
_symmetry_Int_Tables_number   1
_chemical_formula_structural   Zn3H6C27(ClO6)2
_chemical_formula_sum   'Zn6 H12 C54 Cl4 O24'
_cell_volume   9029.46033901
_cell_formula_units_Z   2
loop_
 _symmetry_equiv_pos_site_id
 _symmetry_equiv_pos_as_xyz
  1  'x, y, z'
loop_
 _atom_site_type_symbol
 _atom_site_label
 _atom_site_symmetry_multiplicity
 _atom_site_fract_x
 _atom_site_fract_y
 _atom_site_fract_z
 _atom_site_occupancy
 _atom_site_pbe_bader_charge
 _atom_site_pbe_bader_spin_density
 _atom_site_pbe_cm5_charge
 _atom_site_pbe_ddec_charge
 _atom_site_pbe_ddec_spin_density
 _atom_site_pbe_ddec_sum_bond_order
 _atom_site_pbe_magmom
Zn  Zn0  1  0.99999854  0.95477400  0.04522743  1  1.305815  0  0.742772  0.978147  0  2.06241  0
Zn  Zn1  1  0.43986098  0.50011714  0.49981955  1  1.299381  0  0.749273  0.98655  0  2.04747  0
Zn  Zn2  1  0.56013909  0.50018089  0.49988292  1  1.300103  0  0.749255  0.986513  0  2.047453  0
Zn  Zn3  1  0.99999944  0.04463609  0.95536514  1  1.295902  0  0.737947  0.976602  0  2.049512  0
Zn  Zn4  1  0.54507991  0.95497078  0.95489896  1  1.308148  0  0.742842  0.983367  0  2.049279  0
Zn  Zn5  1  0.45492101  0.04509887  0.04502813  1  1.297973  0  0.742855  0.983408  0  2.049184  0
H  H6  1  0.14339189  0.10828564  0.03024314  1  0.108124  0  0.111801  0.120832  0  0.96379  0
H  H7  1  0.78958768  0.91853111  0.08136651  1  0.100987  0  0.113766  0.132199  0  0.957687  0
H  H8  1  0.21045563  0.91859073  0.08142676  1  0.101119  0  0.113752  0.132119  0  0.95788  0
H  H9  1  0.26067331  0.11642723  0.88358444  1  0.03303  0  0.099373  0.13825  0  0.986744  0
H  H10  1  0.29578137  0.12730148  0.93442885  1  0.063463  0  0.097671  0.139481  0  0.984526  0
H  H11  1  0.35751468  0.06557097  0.87269470  1  0.044616  0  0.097344  0.139381  0  0.985401  0
H  H12  1  0.73926016  0.11648297  0.88363759  1  0.033683  0  0.099318  0.138191  0  0.986856  0
H  H13  1  0.70416497  0.06564011  0.87273620  1  0.064542  0  0.097745  0.139685  0  0.984695  0
H  H14  1  0.64242708  0.12733974  0.93450008  1  0.041773  0  0.097343  0.139416  0  0.985134  0
H  H15  1  0.85658568  0.96981673  0.89169851  1  0.107944  0  0.111934  0.121011  0  0.96375  0
H  H16  1  0.71807558  0.10823804  0.03028402  1  0.107237  0  0.1116  0.120865  0  0.965356  0
H  H17  1  0.28190075  0.96977415  0.89174658  1  0.107497  0  0.111587  0.120893  0  0.965165  0
C  C18  1  0.90963347  0.09047411  0.09024737  1  1.637994  0  0.22237  0.649126  0  4.264976  0
C  C19  1  0.22907637  0.77101405  0.77089040  1  -0.133232  0  0.006731  0.005845  0  4.180103  0
C  C20  1  0.81280170  0.99860856  0.00135497  1  0.028486  0  -0.004129  -0.003862  0  3.656077  0
C  C21  1  0.85985980  0.14046627  0.13980424  1  0.17241  0  -0.002486  -0.119085  0  3.829321  0
C  C22  1  0.14013548  0.86019737  0.85953612  1  0.172262  0  -0.002528  -0.119122  0  3.829318  0
C  C23  1  0.29791548  0.09054165  0.90946064  1  -0.040523  0  -0.234153  -0.422079  0  3.972013  0
C  C24  1  0.70203420  0.09058819  0.90950878  1  -0.040654  0  -0.234104  -0.42228  0  3.972253  0
C  C25  1  0.77092400  0.22911147  0.22898742  1  -0.133119  0  0.006719  0.00582  0  4.17992  0
C  C26  1  0.72818809  0.27184985  0.27184396  1  0.144912  0  0.003966  0.001387  0  4.180122  0
C  C27  1  0.27181121  0.72815707  0.72815176  1  0.145071  0  0.00397  0.001356  0  4.180021  0
C  C28  1  0.68191634  0.31817516  0.31824237  1  -0.323551  0  -0.00301  0.028515  0  4.248196  0
C  C29  1  0.31808573  0.68175628  0.68182503  1  -0.326119  0  -0.002928  0.028567  0  4.248064  0
C  C30  1  0.09036445  0.90975334  0.90952718  1  1.63778  0  0.222395  0.649221  0  4.264991  0
C  C31  1  0.63930545  0.36069745  0.36080779  1  0.248068  0  -0.000482  -0.116193  0  3.829413  0
C  C32  1  0.36069533  0.63919331  0.63930411  1  0.250662  0  -0.000499  -0.116153  0  3.829417  0
C  C33  1  0.49999972  0.09049362  0.90950508  1  1.651203  0  0.222206  0.646311  0  4.277904  0
C  C34  1  0.38156087  0.99888760  0.00114518  1  1.570364  0  0.221577  0.623911  0  4.145106  0
C  C35  1  0.61844407  0.99884923  0.00110938  1  1.570994  0  0.221534  0.62394  0  4.144837  0
C  C36  1  0.50000140  0.90979412  0.09020417  1  1.64204  0  0.226403  0.653771  0  4.25619  0
C  C37  1  0.49999924  0.58965606  0.41034400  1  1.649517  0  0.226521  0.655477  0  4.255814  0
C  C38  1  0.58956733  0.41039900  0.41048154  1  1.651639  0  0.225485  0.651351  0  4.257791  0
C  C39  1  0.41043520  0.58951871  0.58960232  1  1.651672  0  0.225517  0.651346  0  4.257659  0
C  C40  1  0.11873661  0.99943579  0.00060916  1  1.54463  0  0.22582  0.609907  0  4.147887  0
C  C41  1  0.88126092  0.99939346  0.00056579  1  1.54474  0  0.225849  0.609974  0  4.14765  0
C  C42  1  0.50000154  0.41058316  0.58941434  1  1.640209  0  0.227177  0.654996  0  4.256938  0
C  C43  1  0.49999959  0.14029596  0.85970475  1  0.171386  0  -0.001904  -0.118363  0  3.834045  0
C  C44  1  0.50000087  0.18284443  0.81715611  1  -0.264837  0  -0.010502  0.017992  0  4.254503  0
C  C45  1  0.50000037  0.22919505  0.77080517  1  0.000638  0  0.005116  0.00616  0  4.184869  0
C  C46  1  0.81729080  0.18289446  0.18248687  1  -0.246762  0  -0.006343  0.025509  0  4.249911  0
C  C47  1  0.49999977  0.27198807  0.72801213  1  0.022165  0  0.001984  -0.002427  0  4.185507  0
C  C48  1  0.49999996  0.31834016  0.68165923  1  -0.287613  0  -0.002799  0.031217  0  4.247487  0
C  C49  1  0.50000084  0.36088373  0.63911452  1  0.20665  0  -0.00219  -0.120131  0  3.824914  0
C  C50  1  0.50000188  0.85997854  0.14002031  1  0.162192  0  0.002897  -0.109806  0  3.819844  0
C  C51  1  0.50000289  0.81742615  0.18257072  1  -0.144355  0  -0.006108  0.022188  0  4.246496  0
C  C52  1  0.18270794  0.81751188  0.81710798  1  -0.246688  0  -0.006325  0.025524  0  4.249831  0
C  C53  1  0.50000197  0.77106083  0.22893632  1  -0.103519  0  0.009059  0.012412  0  4.178633  0
C  C54  1  0.19107703  0.05944566  0.01747671  1  -0.04269  0  -0.07059  -0.142795  0  3.583191  0
C  C55  1  0.80890957  0.98255886  0.94054410  1  -0.041693  0  -0.070712  -0.14322  0  3.583357  0
C  C56  1  0.73200418  0.05940696  0.01750911  1  -0.043072  0  -0.069613  -0.142943  0  3.586884  0
C  C57  1  0.26798616  0.98252502  0.94058143  1  -0.042795  0  -0.06966  -0.143  0  3.586663  0
C  C58  1  0.50000167  0.72825212  0.27174556  1  0.025095  0  0.002148  -0.005725  0  4.181309  0
C  C59  1  0.50000028  0.68188828  0.31810984  1  -0.288482  0  -0.001112  0.03696  0  4.243141  0
C  C60  1  0.49999955  0.63932559  0.36067406  1  0.211263  0  -0.004905  -0.127134  0  3.829146  0
C  C61  1  0.27175067  0.04258511  0.95741568  1  0.026555  0  0.012  0.185495  0  3.644692  0
C  C62  1  0.72822527  0.04261084  0.95743831  1  0.027211  0  0.011967  0.185745  0  3.644696  0
C  C63  1  0.31329673  0.99688040  0.00311793  1  -0.00978  0  -0.006571  -0.135477  0  3.599732  0
C  C64  1  0.68670696  0.99687736  0.00311619  1  -0.009442  0  -0.006646  -0.135747  0  3.599856  0
C  C65  1  0.23146863  0.01425268  0.06232255  1  0.148404  0  0.024612  0.154239  0  3.720326  0
C  C66  1  0.76854576  0.93768780  0.98571167  1  0.150289  0  0.024713  0.154364  0  3.720524  0
C  C67  1  0.69197462  0.01420515  0.06232277  1  0.138405  0  0.024605  0.154983  0  3.720376  0
C  C68  1  0.30804094  0.93768388  0.98575524  1  0.138573  0  0.024689  0.154907  0  3.720737  0
C  C69  1  0.22783108  0.95409403  0.04592599  1  -0.012233  0  -0.076913  -0.148391  0  3.626444  0
C  C70  1  0.77219758  0.95404583  0.04587731  1  -0.012803  0  -0.076984  -0.148587  0  3.626314  0
C  C71  1  0.18719877  0.99864455  0.00139029  1  0.029064  0  -0.00417  -0.003954  0  3.65607  0
Cl  Cl72  1  0.20603503  0.03407131  0.14132706  1  -0.217055  0  -0.052438  -0.124717  0  1.357557  0
Cl  Cl73  1  0.79400142  0.85868692  0.96585447  1  -0.217807  0  -0.052497  -0.124736  0  1.357496  0
Cl  Cl74  1  0.61858281  0.03401198  0.14133863  1  -0.21583  0  -0.051794  -0.124232  0  1.357773  0
Cl  Cl75  1  0.38144187  0.85867764  0.96590689  1  -0.215614  0  -0.051807  -0.124229  0  1.358205  0
O  O76  1  0.92905310  0.03127428  0.11056247  1  -1.127823  0  -0.306097  -0.537008  0  2.212992  0
O  O77  1  0.07052436  0.96925892  0.88976370  1  -1.126951  0  -0.309629  -0.542015  0  2.219467  0
O  O78  1  0.92947341  0.11023630  0.03074219  1  -1.126994  0  -0.309601  -0.541925  0  2.219596  0
O  O79  1  0.09149948  0.96008340  0.03993910  1  -1.141441  0  -0.309902  -0.539013  0  2.280194  0
O  O80  1  0.90849731  0.96006374  0.03991823  1  -1.141474  0  -0.309862  -0.538956  0  2.280171  0
O  O81  1  0.09266232  0.03918443  0.96086540  1  -1.154944  0  -0.317442  -0.551111  0  2.257871  0
O  O82  1  0.90733581  0.03913600  0.96081638  1  -1.154962  0  -0.317453  -0.551139  0  2.257695  0
O  O83  1  0.07094453  0.88943938  0.96872664  1  -1.12772  0  -0.306101  -0.537007  0  2.212988  0
O  O84  1  0.53972787  0.03124007  0.88933704  1  -1.131073  0  -0.308979  -0.54089  0  2.219943  0
O  O85  1  0.46027099  0.11066219  0.96876031  1  -1.131012  0  -0.309014  -0.540875  0  2.219835  0
O  O86  1  0.44759968  0.96073851  0.96019786  1  -1.140511  0  -0.3106  -0.545314  0  2.302906  0
O  O87  1  0.55240401  0.03979917  0.03925871  1  -1.14053  0  -0.310575  -0.545269  0  2.302581  0
O  O88  1  0.63154177  0.96072883  0.96013189  1  -1.139388  0  -0.310742  -0.545865  0  2.302082  0
O  O89  1  0.36845908  0.03986668  0.03926833  1  -1.139193  0  -0.31076  -0.545879  0  2.302107  0
O  O90  1  0.53973630  0.88975640  0.03088226  1  -1.126817  0  -0.306612  -0.537734  0  2.219039  0
O  O91  1  0.46026417  0.96911776  0.11024340  1  -1.126748  0  -0.306618  -0.537783  0  2.218947  0
O  O92  1  0.55281082  0.56986924  0.43013749  1  -1.110983  0  -0.305862  -0.535421  0  2.227274  0
O  O93  1  0.44718818  0.56986193  0.43013104  1  -1.110999  0  -0.30585  -0.535452  0  2.22735  0
O  O94  1  0.62263185  0.43013372  0.43022177  1  -1.118816  0  -0.30378  -0.532533  0  2.224697  0
O  O95  1  0.37737121  0.56977811  0.56986559  1  -1.118724  0  -0.303841  -0.532568  0  2.224656  0
O  O96  1  0.51703249  0.43007545  0.43015497  1  -1.108495  0  -0.304863  -0.534141  0  2.226129  0
O  O97  1  0.48296883  0.56984570  0.56992470  1  -1.108617  0  -0.304843  -0.534124  0  2.226138  0
O  O98  1  0.55282186  0.43029887  0.56970966  1  -1.109617  0  -0.305117  -0.534504  0  2.226948  0
O  O99  1  0.44718015  0.43028715  0.56969846  1  -1.109774  0  -0.305162  -0.534515  0  2.226797  0
