# generated using pymatgen
data_GdH6C9(ClO3)3
_symmetry_space_group_name_H-M   'P 1'
_cell_length_a   9.80824526
_cell_length_b   9.80821114
_cell_length_c   10.88863974
_cell_angle_alpha   94.67807711
_cell_angle_beta   94.67684321
_cell_angle_gamma   115.53955529
_symmetry_Int_Tables_number   1
_chemical_formula_structural   GdH6C9(ClO3)3
_chemical_formula_sum   'Gd2 H12 C18 Cl6 O18'
_cell_volume   934.03434483
_cell_formula_units_Z   2
loop_
 _symmetry_equiv_pos_site_id
 _symmetry_equiv_pos_as_xyz
  1  'x, y, z'
loop_
 _atom_site_type_symbol
 _atom_site_label
 _atom_site_symmetry_multiplicity
 _atom_site_fract_x
 _atom_site_fract_y
 _atom_site_fract_z
 _atom_site_occupancy
 _atom_site_hle17_bader_spin_density
 _atom_site_hle17_ddec_charge
 _atom_site_hle17_ddec_spin_density
 _atom_site_hle17_ddec_sum_bond_order
 _atom_site_hle17_magmom
 _atom_site_hse06_10hf_bader_spin_density
 _atom_site_hse06_10hf_ddec_charge
 _atom_site_hse06_10hf_ddec_spin_density
 _atom_site_hse06_10hf_ddec_sum_bond_order
 _atom_site_hse06_10hf_magmom
 _atom_site_hse06_bader_spin_density
 _atom_site_hse06_ddec_charge
 _atom_site_hse06_ddec_spin_density
 _atom_site_hse06_ddec_sum_bond_order
 _atom_site_hse06_magmom
 _atom_site_pbe_bader_spin_density
 _atom_site_pbe_cm5_charge
 _atom_site_pbe_ddec_charge
 _atom_site_pbe_ddec_spin_density
 _atom_site_pbe_ddec_sum_bond_order
 _atom_site_pbe_magmom
Gd  Gd0  1  0.78184575  0.78184923  0.12637747  1  0  2.112262  0  1.805546  0  0  2.024705  0  2.145617  0  0  2.075045  0  2.097634  0  0  1.427276  1.987164  0  2.181786  0
Gd  Gd1  1  0.21815602  0.21815069  0.87362432  1  0  2.112234  0  1.8056  0  0  2.02466  0  2.145699  0  0  2.075021  0  2.097692  0  0  1.427276  1.987127  0  2.181865  0
H  H2  1  0.57895113  0.67390993  0.31628136  1  0  0.454699  0  0.786207  0  0  0.43715  0  0.839179  0  0  0.445284  0  0.828124  0  0  0.343536  0.431343  0  0.845698  0
H  H3  1  0.32609411  0.42104845  0.68372422  1  0  0.454763  0  0.786154  0  0  0.437208  0  0.839133  0  0  0.445342  0  0.828058  0  0  0.343561  0.431403  0  0.845645  0
H  H4  1  0.42105097  0.32609331  0.68371790  1  0  0.45471  0  0.786213  0  0  0.437157  0  0.839192  0  0  0.445292  0  0.82812  0  0  0.343529  0.431355  0  0.845706  0
H  H5  1  0.67390656  0.57895371  0.31627856  1  0  0.454734  0  0.786179  0  0  0.437183  0  0.839155  0  0  0.445317  0  0.828087  0  0  0.343562  0.431379  0  0.845662  0
H  H6  1  0.51665228  0.60942713  0.90383195  1  0  0.455174  0  0.795697  0  0  0.433742  0  0.855358  0  0  0.442045  0  0.843153  0  0  0.332538  0.427764  0  0.863409  0
H  H7  1  0.39056854  0.48334542  0.09617112  1  0  0.45515  0  0.795714  0  0  0.433712  0  0.855398  0  0  0.442016  0  0.843192  0  0  0.332514  0.427735  0  0.863438  0
H  H8  1  0.48334423  0.39057488  0.09616964  1  0  0.455107  0  0.795825  0  0  0.433672  0  0.855461  0  0  0.441974  0  0.843258  0  0  0.332515  0.427693  0  0.863543  0
H  H9  1  0.60942605  0.51665436  0.90383296  1  0  0.4551  0  0.795825  0  0  0.433663  0  0.855474  0  0  0.441966  0  0.843269  0  0  0.332515  0.427687  0  0.863547  0
H  H10  1  0.10526014  0.01108999  0.11639058  1  0  0.437113  0  0.857689  0  0  0.405542  0  0.923135  0  0  0.416847  0  0.906404  0  0  0.302383  0.397472  0  0.935061  0
H  H11  1  0.98890853  0.89473800  0.88360998  1  0  0.437108  0  0.857693  0  0  0.405529  0  0.923154  0  0  0.416836  0  0.90642  0  0  0.302342  0.39746  0  0.93508  0
H  H12  1  0.89474316  0.98891111  0.88361229  1  0  0.43716  0  0.857621  0  0  0.405575  0  0.923092  0  0  0.416881  0  0.906359  0  0  0.302363  0.397508  0  0.935013  0
H  H13  1  0.01109272  0.10526073  0.11638986  1  0  0.437125  0  0.857675  0  0  0.405549  0  0.923131  0  0  0.416853  0  0.9064  0  0  0.302367  0.397482  0  0.935052  0
C  C14  1  0.88265188  0.97537325  0.40044847  1  0  0.30181  0  3.836566  0  0  0.279129  0  4.113282  0  0  0.300613  0  4.120036  0  0  0.112178  0.264846  0  4.108143  0
C  C15  1  0.02463826  0.11734723  0.59955753  1  0  0.301667  0  3.836645  0  0  0.279124  0  4.113251  0  0  0.300611  0  4.120003  0  0  0.112207  0.264844  0  4.108112  0
C  C16  1  0.11734902  0.02463446  0.59955100  1  0  0.301677  0  3.83657  0  0  0.279158  0  4.113205  0  0  0.300639  0  4.11995  0  0  0.112181  0.264874  0  4.108069  0
C  C17  1  0.97536028  0.88265714  0.40044617  1  0  0.301503  0  3.836557  0  0  0.279155  0  4.11297  0  0  0.300637  0  4.119717  0  0  0.112244  0.264874  0  4.107827  0
C  C18  1  0.91137113  0.08863594  0.50000743  1  0  -0.137979  0  3.795168  0  0  -0.139738  0  4.084371  0  0  -0.156597  0  4.10905  0  0  -0.040959  -0.128963  0  4.067776  0
C  C19  1  0.08863234  0.91137299  0.49999319  1  0  -0.137882  0  3.795053  0  0  -0.139792  0  4.084278  0  0  -0.156631  0  4.108929  0  0  -0.040987  -0.129015  0  4.067682  0
C  C20  1  0.62886309  0.97147915  0.98159402  1  0  0.299693  0  3.834937  0  0  0.27178  0  4.114591  0  0  0.293045  0  4.121876  0  0  0.116936  0.257679  0  4.109051  0
C  C21  1  0.02851427  0.37114113  0.01840345  1  0  0.299754  0  3.834895  0  0  0.271895  0  4.114445  0  0  0.29316  0  4.121737  0  0  0.116948  0.257775  0  4.108935  0
C  C22  1  0.37114030  0.02851737  0.01840489  1  0  0.299673  0  3.83475  0  0  0.271818  0  4.114298  0  0  0.293086  0  4.12159  0  0  0.116968  0.2577  0  4.108784  0
C  C23  1  0.97147605  0.62885607  0.98159101  1  0  0.299637  0  3.834896  0  0  0.271735  0  4.114485  0  0  0.292997  0  4.121775  0  0  0.116929  0.257626  0  4.108966  0
C  C24  1  0.51562692  0.88901315  0.07036501  1  0  0.311099  0  3.819586  0  0  0.288073  0  4.09777  0  0  0.31027  0  4.102952  0  0  0.120014  0.273068  0  4.093916  0
C  C25  1  0.11098701  0.48437752  0.92963412  1  0  0.311038  0  3.819684  0  0  0.287978  0  4.097901  0  0  0.310169  0  4.103094  0  0  0.119964  0.272981  0  4.09404  0
C  C26  1  0.48437756  0.11098346  0.92963674  1  0  0.311039  0  3.819802  0  0  0.288024  0  4.097929  0  0  0.310205  0  4.10314  0  0  0.119965  0.273038  0  4.094057  0
C  C27  1  0.88900889  0.51562090  0.07035802  1  0  0.31115  0  3.819778  0  0  0.288165  0  4.097838  0  0  0.31037  0  4.103003  0  0  0.119989  0.273159  0  4.093987  0
C  C28  1  0.39594458  0.92714515  0.09006185  1  0  -0.147165  0  3.814269  0  0  -0.151103  0  4.10899  0  0  -0.167524  0  4.132982  0  0  -0.039373  -0.140587  0  4.093154  0
C  C29  1  0.07284778  0.60405288  0.90993423  1  0  -0.147141  0  3.814475  0  0  -0.151063  0  4.109202  0  0  -0.167483  0  4.133196  0  0  -0.03933  -0.140552  0  4.093357  0
C  C30  1  0.60405669  0.07285127  0.90993509  1  0  -0.14709  0  3.814354  0  0  -0.151019  0  4.109082  0  0  -0.167433  0  4.133077  0  0  -0.039343  -0.140509  0  4.093228  0
C  C31  1  0.92714362  0.39594206  0.09005832  1  0  -0.147243  0  3.814564  0  0  -0.151127  0  4.109165  0  0  -0.16755  0  4.133152  0  0  -0.039349  -0.140607  0  4.09332  0
Cl  Cl32  1  0.80752383  0.19249435  0.50000822  1  0  -0.058168  0  1.378704  0  0  -0.052484  0  1.595428  0  0  -0.051084  0  1.590315  0  0  -0.031014  -0.052937  0  1.599138  0
Cl  Cl33  1  0.19248541  0.80751132  0.49999073  1  0  -0.058173  0  1.378443  0  0  -0.052467  0  1.595207  0  0  -0.051074  0  1.590084  0  0  -0.03101  -0.052933  0  1.598917  0
Cl  Cl34  1  0.27419408  0.84126515  0.19526414  1  0  -0.025056  0  1.43655  0  0  -0.017969  0  1.676085  0  0  -0.018459  0  1.671886  0  0  0.008147  -0.017453  0  1.679236  0
Cl  Cl35  1  0.15872860  0.72580481  0.80473151  1  0  -0.02504  0  1.43655  0  0  -0.017955  0  1.676073  0  0  -0.018447  0  1.671875  0  0  0.008147  -0.017448  0  1.679222  0
Cl  Cl36  1  0.72580389  0.15872565  0.80473683  1  0  -0.025056  0  1.43666  0  0  -0.01797  0  1.676204  0  0  -0.018464  0  1.672005  0  0  0.008158  -0.017458  0  1.679355  0
Cl  Cl37  1  0.84126571  0.27419469  0.19526060  1  0  -0.025014  0  1.43657  0  0  -0.017959  0  1.676072  0  0  -0.01845  0  1.671875  0  0  0.008147  -0.017446  0  1.679219  0
O  O38  1  0.78173847  0.93986267  0.30721086  1  0  -0.583973  0  2.094307  0  0  -0.54729  0  2.330707  0  0  -0.569454  0  2.326364  0  0  -0.361841  -0.531777  0  2.333344  0
O  O39  1  0.06014151  0.21826410  0.69279736  1  0  -0.584047  0  2.094331  0  0  -0.547391  0  2.330708  0  0  -0.569556  0  2.326356  0  0  -0.361924  -0.531875  0  2.333339  0
O  O40  1  0.21826185  0.06013614  0.69279352  1  0  -0.584038  0  2.094234  0  0  -0.547361  0  2.330569  0  0  -0.569529  0  2.326228  0  0  -0.36189  -0.53185  0  2.333209  0
O  O41  1  0.93985572  0.78173231  0.30720392  1  0  -0.584039  0  2.094132  0  0  -0.547437  0  2.330395  0  0  -0.569598  0  2.326038  0  0  -0.361968  -0.53192  0  2.333024  0
O  O42  1  0.74169189  0.93962207  0.98021264  1  0  -0.582132  0  2.134381  0  0  -0.529074  0  2.367092  0  0  -0.552391  0  2.361921  0  0  -0.337753  -0.512798  0  2.370314  0
O  O43  1  0.06038063  0.25831031  0.01978942  1  0  -0.582182  0  2.134159  0  0  -0.529153  0  2.366867  0  0  -0.552478  0  2.361699  0  0  -0.337779  -0.512873  0  2.370099  0
O  O44  1  0.25830939  0.06037902  0.01979195  1  0  -0.582117  0  2.134099  0  0  -0.529083  0  2.366797  0  0  -0.552404  0  2.361628  0  0  -0.337782  -0.512806  0  2.370032  0
O  O45  1  0.93961886  0.74169167  0.98020684  1  0  -0.582094  0  2.134135  0  0  -0.529061  0  2.366843  0  0  -0.552381  0  2.361676  0  0  -0.337747  -0.512782  0  2.370071  0
O  O46  1  0.53781479  0.78626544  0.11989227  1  0  -0.571418  0  2.077861  0  0  -0.53265  0  2.316482  0  0  -0.553691  0  2.309636  0  0  -0.355184  -0.517913  0  2.320938  0
O  O47  1  0.21373868  0.46219007  0.88011145  1  0  -0.571407  0  2.077789  0  0  -0.532611  0  2.316386  0  0  -0.55365  0  2.309542  0  0  -0.355174  -0.517876  0  2.320833  0
O  O48  1  0.46218926  0.21373007  0.88011122  1  0  -0.571453  0  2.077881  0  0  -0.532678  0  2.31647  0  0  -0.553716  0  2.309632  0  0  -0.355206  -0.517947  0  2.320922  0
O  O49  1  0.78626085  0.53780962  0.11988284  1  0  -0.571459  0  2.077887  0  0  -0.53271  0  2.316452  0  0  -0.553751  0  2.309599  0  0  -0.355189  -0.517975  0  2.32091  0
O  O50  1  0.60720689  0.60720786  0.26386356  1  0  -0.84772  0  1.859445  0  0  -0.810145  0  2.039941  0  0  -0.826715  0  2.011524  0  0  -0.588293  -0.798221  0  2.057176  0
O  O51  1  0.39279339  0.39279091  0.73613897  1  0  -0.847755  0  1.859437  0  0  -0.810183  0  2.039952  0  0  -0.826756  0  2.01151  0  0  -0.588278  -0.798259  0  2.05718  0
O  O52  1  0.61514717  0.61514980  0.93513236  1  0  -0.877013  0  1.87325  0  0  -0.843353  0  2.064491  0  0  -0.860182  0  2.03654  0  0  -0.609804  -0.831288  0  2.082748  0
O  O53  1  0.38485046  0.38485000  0.06486916  1  0  -0.877006  0  1.873277  0  0  -0.843345  0  2.064525  0  0  -0.860174  0  2.036573  0  0  -0.609782  -0.831275  0  2.082778  0
O  O54  1  0.01432630  0.01432557  0.14720917  1  0  -0.890648  0  1.899788  0  0  -0.853448  0  2.083042  0  0  -0.873441  0  2.052022  0  0  -0.64024  -0.838841  0  2.104762  0
O  O55  1  0.98567802  0.98567554  0.85279285  1  0  -0.890668  0  1.899724  0  0  -0.85346  0  2.082997  0  0  -0.873457  0  2.051977  0  0  -0.640199  -0.838852  0  2.104716  0
