# generated using pymatgen
data_Zn4H18C36O13
_symmetry_space_group_name_H-M   'P 1'
_cell_length_a   15.11314122
_cell_length_b   20.14422661
_cell_length_c   22.51591151
_cell_angle_alpha   90.56947795
_cell_angle_beta   89.56391768
_cell_angle_gamma   89.47317475
_symmetry_Int_Tables_number   1
_chemical_formula_structural   Zn4H18C36O13
_chemical_formula_sum   'Zn8 H36 C72 O26'
_cell_volume   6853.96962607
_cell_formula_units_Z   2
loop_
 _symmetry_equiv_pos_site_id
 _symmetry_equiv_pos_as_xyz
  1  'x, y, z'
loop_
 _atom_site_type_symbol
 _atom_site_label
 _atom_site_symmetry_multiplicity
 _atom_site_fract_x
 _atom_site_fract_y
 _atom_site_fract_z
 _atom_site_occupancy
 _atom_site_pbe_bader_charge
 _atom_site_pbe_bader_spin_density
 _atom_site_pbe_cm5_charge
 _atom_site_pbe_ddec_charge
 _atom_site_pbe_ddec_spin_density
 _atom_site_pbe_ddec_sum_bond_order
 _atom_site_pbe_magmom
Zn  Zn0  1  0.43443310  0.41631842  0.99729824  1  1.315757  0  0.671729  0.967595  0  2.358628  0
Zn  Zn1  1  0.43503174  0.91883321  0.50617179  1  1.31437  0  0.671394  0.966281  0  2.362797  0
Zn  Zn2  1  0.41630201  0.57562195  0.99966445  1  1.319823  0  0.673493  0.973388  0  2.357125  0
Zn  Zn3  1  0.41964114  0.07806446  0.50006568  1  1.316094  0  0.670759  0.965511  0  2.361273  0
Zn  Zn4  1  0.57838218  0.50730023  0.93209285  1  1.315951  0  0.671668  0.964634  0  2.380472  0
Zn  Zn5  1  0.57141125  0.49982425  0.07249135  1  1.317147  0  0.671091  0.966291  0  2.37006  0
Zn  Zn6  1  0.56795710  0.00668743  0.42520375  1  1.315935  0  0.671293  0.964917  0  2.377165  0
Zn  Zn7  1  0.58330691  0.00309317  0.56710338  1  1.316219  0  0.670903  0.966446  0  2.36501  0
H  H8  1  0.60489885  0.65798381  0.80784965  1  0.133333  0  0.10873  0.116025  0  0.994456  0
H  H9  1  0.55118839  0.65056928  0.33030245  1  0.07253  0  0.105547  0.10586  0  0.990895  0
H  H10  1  0.54228208  0.14972286  0.16894320  1  0.059648  0  0.106146  0.107098  0  0.988362  0
H  H11  1  0.68545199  0.23356405  0.76636417  1  0.070996  0  0.106359  0.107724  0  0.989445  0
H  H12  1  0.44687837  0.35222427  0.32829915  1  0.037224  0  0.105375  0.106237  0  0.991149  0
H  H13  1  0.32124804  0.26460326  0.73734326  1  0.085993  0  0.106031  0.107021  0  0.990055  0
H  H14  1  0.31451576  0.76680349  0.76555381  1  0.061213  0  0.105226  0.106284  0  0.992183  0
H  H15  1  0.44994098  0.84929996  0.17348921  1  0.067753  0  0.10517  0.106012  0  0.990659  0
H  H16  1  0.53814055  0.23690702  0.09106352  1  0.071968  0  0.108306  0.11398  0  0.989562  0
H  H17  1  0.67116589  0.32167463  0.84467855  1  0.083882  0  0.107748  0.113371  0  0.991275  0
H  H18  1  0.66669415  0.81836182  0.65658441  1  0.083073  0  0.106935  0.112198  0  0.989519  0
H  H19  1  0.53773583  0.61726113  0.22357604  1  0.0927  0  0.108593  0.115272  0  0.996478  0
H  H20  1  0.54312117  0.73845846  0.40894473  1  0.063605  0  0.107047  0.11202  0  0.988404  0
H  H21  1  0.47783160  0.38609880  0.22367894  1  0.094405  0  0.108617  0.115441  0  0.992979  0
H  H22  1  0.38925875  0.32873864  0.82045905  1  0.086944  0  0.108918  0.11564  0  0.992374  0
H  H23  1  0.38465730  0.82994695  0.68274488  1  0.073319  0  0.10848  0.114589  0  0.99169  0
H  H24  1  0.48162996  0.88520278  0.27758020  1  0.102535  0  0.10827  0.113954  0  0.99311  0
H  H25  1  0.14472223  0.57028441  0.97198418  1  0.084528  0  0.108819  0.116039  0  0.994039  0
H  H26  1  0.14679103  0.07676833  0.45080281  1  0.0978  0  0.109265  0.116305  0  0.994134  0
H  H27  1  0.16807852  0.38438167  0.06281848  1  0.107941  0  0.10775  0.11417  0  0.991046  0
H  H28  1  0.16837344  0.89433401  0.54720882  1  0.082308  0  0.107971  0.114969  0  0.992676  0
H  H29  1  0.00410217  0.37907191  0.07402086  1  0.049891  0  0.105137  0.105936  0  0.990399  0
H  H30  1  0.52457798  0.11787764  0.27498273  1  0.11325  0  0.109001  0.116475  0  0.998596  0
H  H31  1  0.00401994  0.88972150  0.55778118  1  0.063717  0  0.104623  0.105098  0  0.99239  0
H  H32  1  0.32837829  0.68562173  0.84785591  1  0.082249  0  0.106856  0.112651  0  0.995049  0
H  H33  1  0.44628411  0.75953186  0.09642265  1  0.097086  0  0.107778  0.113917  0  0.990853  0
H  H34  1  0.44185094  0.26374067  0.40491606  1  0.089196  0  0.10765  0.114232  0  0.993365  0
H  H35  1  0.33764256  0.18324384  0.65365384  1  0.082885  0  0.107385  0.114306  0  0.993266  0
H  H36  1  0.99640390  0.61414624  0.94557425  1  0.05547  0  0.105394  0.105936  0  0.989994  0
H  H37  1  0.99733575  0.11977265  0.42233068  1  0.097532  0  0.106351  0.107407  0  0.990282  0
H  H38  1  0.61528755  0.16179783  0.68947613  1  0.126548  0  0.109052  0.116199  0  0.99618  0
H  H39  1  0.83203494  0.60477373  0.94978214  1  0.104542  0  0.107349  0.11316  0  0.991299  0
H  H40  1  0.83317572  0.10946684  0.42525027  1  0.091463  0  0.108014  0.112511  0  0.988074  0
H  H41  1  0.85417522  0.43004914  0.05724478  1  0.101447  0  0.108794  0.114934  0  0.991771  0
H  H42  1  0.85573183  0.93943677  0.53856299  1  0.06635  0  0.108378  0.11448  0  0.993092  0
H  H43  1  0.67752697  0.72921825  0.73233218  1  0.053675  0  0.105041  0.105215  0  0.990907  0
C  C44  1  0.49464022  0.63008631  0.10938442  1  1.532866  0  0.226986  0.607647  0  4.158504  0
C  C45  1  0.51539589  0.71687689  0.25895197  1  -0.004171  0  -0.003648  0.076984  0  3.995329  0
C  C46  1  0.50715468  0.21757721  0.24089924  1  0.011191  0  -0.003509  0.076208  0  4.004372  0
C  C47  1  0.54546233  0.23336593  0.74594520  1  -0.068682  0  -0.002157  0.079642  0  3.999684  0
C  C48  1  0.54206190  0.68261640  0.79850060  1  -0.07478  0  -0.074838  -0.133832  0  3.925635  0
C  C49  1  0.51759586  0.66799627  0.21344069  1  -0.040174  0  -0.075142  -0.13396  0  3.92367  0
C  C50  1  0.50697199  0.16917798  0.28583814  1  -0.110522  0  -0.07379  -0.129132  0  3.925101  0
C  C51  1  0.55159750  0.18498022  0.70013728  1  -0.089649  0  -0.074011  -0.132405  0  3.926667  0
C  C52  1  0.38537273  0.69834229  0.82048754  1  -0.013156  0  -0.086729  -0.10044  0  4.003395  0
C  C53  1  0.46656974  0.74907294  0.14173422  1  -0.023768  0  -0.085989  -0.099089  0  3.996783  0
C  C54  1  0.46069203  0.25222058  0.35914639  1  0.014513  0  -0.085394  -0.096914  0  3.99741  0
C  C55  1  0.47646163  0.61819947  0.88107071  1  1.525779  0  0.227561  0.608226  0  4.161645  0
C  C56  1  0.39417710  0.19732998  0.68057596  1  0.030023  0  -0.08615  -0.099002  0  3.997724  0
C  C57  1  0.37812434  0.74339908  0.77520490  1  0.027039  0  -0.087982  -0.133891  0  3.999563  0
C  C58  1  0.46824109  0.79835838  0.18448902  1  -0.066371  0  -0.08776  -0.133274  0  3.996738  0
C  C59  1  0.46326527  0.30083558  0.31664107  1  -0.020175  0  -0.087622  -0.133205  0  3.995246  0
C  C60  1  0.38558984  0.24239991  0.72657967  1  -0.1147  0  -0.087253  -0.131462  0  3.998254  0
C  C61  1  0.16540456  0.47877145  0.01755428  1  -0.084417  0  -0.018535  -0.034144  0  3.993263  0
C  C62  1  0.16628621  0.98664298  0.49879169  1  0.024829  0  -0.019043  -0.037811  0  3.996934  0
C  C63  1  0.83435075  0.51704752  0.00470370  1  -0.028988  0  -0.015853  -0.026887  0  3.987722  0
C  C64  1  0.83559414  0.02368595  0.48275908  1  0.018246  0  -0.014824  -0.021499  0  3.988632  0
C  C65  1  0.96506684  0.57353124  0.96928599  1  0.002784  0  -0.086352  -0.128633  0  3.999516  0
C  C66  1  0.48642405  0.11866683  0.61766243  1  1.532382  0  0.228147  0.610752  0  4.15636  0
C  C67  1  0.96616380  0.07961768  0.44672578  1  -0.037576  0  -0.086311  -0.130069  0  3.995674  0
C  C68  1  0.87447323  0.56883431  0.97191495  1  -0.075484  0  -0.087044  -0.101657  0  4.000285  0
C  C69  1  0.87541412  0.07436517  0.44862736  1  -0.063164  0  -0.086116  -0.103266  0  3.999594  0
C  C70  1  0.88599414  0.46962868  0.03243560  1  0.01188  0  -0.075395  -0.139972  0  3.92037  0
C  C71  1  0.88741792  0.97789071  0.51234233  1  -0.082182  0  -0.07813  -0.144427  0  3.934906  0
C  C72  1  0.52028453  0.38003926  0.88549814  1  1.569484  0  0.228321  0.61074  0  4.149187  0
C  C73  1  0.50904424  0.36915838  0.10755081  1  1.542561  0  0.226954  0.606204  0  4.162504  0
C  C74  1  0.51265072  0.87058584  0.39350020  1  1.533079  0  0.229353  0.612263  0  4.152893  0
C  C75  1  0.51789513  0.87927867  0.61760064  1  1.57954  0  0.227154  0.607479  0  4.163522  0
C  C76  1  0.97950352  0.47104011  0.02741123  1  -0.103848  0  -0.002086  0.083952  0  3.990741  0
C  C77  1  0.48442738  0.13265083  0.38961841  1  1.519992  0  0.225339  0.603409  0  4.165915  0
C  C78  1  0.98070222  0.97947525  0.50780457  1  0.045028  0  -0.002274  0.082504  0  4.004321  0
C  C79  1  0.01988346  0.52508921  0.99649962  1  0.105042  0  -0.002757  0.077148  0  4.002542  0
C  C80  1  0.02122332  0.03251990  0.47561492  1  -0.052406  0  -0.003232  0.078198  0  3.999161  0
C  C81  1  0.11312563  0.52844767  0.99370616  1  0.023249  0  -0.075762  -0.134936  0  3.928194  0
C  C82  1  0.11466242  0.03571451  0.47334939  1  -0.035157  0  -0.074711  -0.132969  0  3.923247  0
C  C83  1  0.12556573  0.42358479  0.04558168  1  -0.103981  0  -0.085826  -0.099974  0  3.995911  0
C  C84  1  0.12600011  0.93268955  0.52844142  1  -0.050934  0  -0.08705  -0.099063  0  3.99989  0
C  C85  1  0.03488132  0.42067202  0.05134485  1  0.02353  0  -0.086645  -0.131609  0  3.991782  0
C  C86  1  0.03541399  0.93013917  0.53384490  1  -0.005621  0  -0.088222  -0.132978  0  4.001089  0
C  C87  1  0.26368620  0.48380563  0.01270137  1  1.546488  0  0.229153  0.610309  0  4.154981  0
C  C88  1  0.48657654  0.28523955  0.25677618  1  -0.066726  0  -0.002799  0.081869  0  4.000787  0
C  C89  1  0.26472951  0.99027187  0.49554372  1  1.512355  0  0.228336  0.609718  0  4.156866  0
C  C90  1  0.73584219  0.51308395  0.00618975  1  1.519785  0  0.228958  0.609506  0  4.152928  0
C  C91  1  0.73730396  0.01842719  0.48709220  1  1.559715  0  0.228873  0.61089  0  4.161136  0
C  C92  1  0.46795237  0.66686804  0.83183428  1  -0.086534  0  -0.018108  -0.033283  0  3.991275  0
C  C93  1  0.49325785  0.68338619  0.15597005  1  0.001122  0  -0.018712  -0.03392  0  3.989501  0
C  C94  1  0.48395914  0.18570972  0.34384595  1  0.033014  0  -0.019462  -0.038361  0  3.993419  0
C  C95  1  0.47782704  0.16754906  0.66762430  1  0.03444  0  -0.019433  -0.037038  0  3.994225  0
C  C96  1  0.50837302  0.31658393  0.15367246  1  -0.015352  0  -0.015774  -0.026255  0  3.99082  0
C  C97  1  0.52867457  0.32929979  0.83710217  1  -0.073348  0  -0.015219  -0.027157  0  3.99138  0
C  C98  1  0.52420260  0.82837664  0.66509761  1  -0.02807  0  -0.01486  -0.025204  0  3.988013  0
C  C99  1  0.46030574  0.26173826  0.76037620  1  0.022104  0  -0.002352  0.080576  0  4.000234  0
C  C100  1  0.51303289  0.81715090  0.34702493  1  0.043392  0  -0.015319  -0.024085  0  3.99024  0
C  C101  1  0.52665326  0.20127180  0.18059272  1  -0.055452  0  -0.085817  -0.129032  0  3.994673  0
C  C102  1  0.62097337  0.25523795  0.77761916  1  -0.01366  0  -0.086331  -0.130689  0  3.996502  0
C  C103  1  0.61381503  0.75212798  0.72203554  1  -0.007355  0  -0.085388  -0.127853  0  3.994782  0
C  C104  1  0.53445979  0.70172497  0.31908050  1  -0.034043  0  -0.085085  -0.127064  0  3.994018  0
C  C105  1  0.52515494  0.24928756  0.13756236  1  0.034707  0  -0.086047  -0.101308  0  3.999903  0
C  C106  1  0.61335759  0.30340008  0.82117057  1  -0.005529  0  -0.086435  -0.101259  0  3.99881  0
C  C107  1  0.60797384  0.80088425  0.67981947  1  -0.045791  0  -0.086946  -0.10261  0  3.9958  0
C  C108  1  0.53085401  0.75023213  0.36255503  1  0.024456  0  -0.085664  -0.103114  0  3.999422  0
C  C109  1  0.49034457  0.33408735  0.21218432  1  -0.016158  0  -0.075668  -0.139278  0  3.924455  0
C  C110  1  0.45339037  0.76139611  0.74089456  1  -0.068541  0  -0.00242  0.084187  0  3.994316  0
C  C111  1  0.45374229  0.30826653  0.80765130  1  -0.025338  0  -0.075627  -0.138059  0  3.924803  0
C  C112  1  0.44851801  0.80835250  0.69465994  1  0.003825  0  -0.076036  -0.14058  0  3.924696  0
C  C113  1  0.49521319  0.83356519  0.28875364  1  -0.092391  0  -0.076483  -0.141201  0  3.931247  0
C  C114  1  0.49266478  0.78400038  0.24386874  1  -0.030017  0  -0.00243  0.082914  0  3.997257  0
C  C115  1  0.53753085  0.73131296  0.75382711  1  0.014922  0  -0.003322  0.077147  0  4.001068  0
O  O116  1  0.49892203  0.50030612  0.00075589  1  -1.23618  0  -0.576624  -1.036846  0  2.554346  0
O  O117  1  0.44935082  0.87781294  0.58483850  1  -1.167709  0  -0.317264  -0.549209  0  2.312678  0
O  O118  1  0.29476804  0.54186498  0.00522786  1  -1.178076  0  -0.316778  -0.552341  0  2.33788  0
O  O119  1  0.29839487  0.04710254  0.48566738  1  -1.176168  0  -0.319354  -0.553606  0  2.323153  0
O  O120  1  0.69633868  0.53361563  0.95975403  1  -1.170284  0  -0.318164  -0.550596  0  2.3187  0
O  O121  1  0.69868183  0.48985108  0.05267852  1  -1.16524  0  -0.316275  -0.548117  0  2.292145  0
O  O122  1  0.69315952  0.02832716  0.43970087  1  -1.16356  0  -0.315706  -0.548605  0  2.299522  0
O  O123  1  0.70616416  0.00371392  0.53801689  1  -1.169164  0  -0.314452  -0.544995  0  2.332836  0
O  O124  1  0.41908510  0.62218415  0.92293410  1  -1.154285  0  -0.315212  -0.547583  0  2.31712  0
O  O125  1  0.44486062  0.63844322  0.06429510  1  -1.167448  0  -0.314943  -0.548277  0  2.31116  0
O  O126  1  0.44789772  0.14558942  0.43998025  1  -1.163445  0  -0.315158  -0.545244  0  2.300492  0
O  O127  1  0.50147578  0.00167077  0.49998012  1  -1.23629  0  -0.574848  -1.033989  0  2.544821  0
O  O128  1  0.42375367  0.11837986  0.57989401  1  -1.161334  0  -0.316  -0.547466  0  2.326999  0
O  O129  1  0.53439825  0.42667497  0.12414798  1  -1.169808  0  -0.316634  -0.547269  0  2.32074  0
O  O130  1  0.58526873  0.41961207  0.89229896  1  -1.168886  0  -0.316705  -0.549947  0  2.299491  0
O  O131  1  0.58170068  0.92018548  0.61343959  1  -1.176277  0  -0.314962  -0.546043  0  2.307233  0
O  O132  1  0.54622931  0.92586851  0.37832687  1  -1.166023  0  -0.314962  -0.545202  0  2.324608  0
O  O133  1  0.30827645  0.42969109  0.01622386  1  -1.168915  0  -0.317077  -0.547038  0  2.307284  0
O  O134  1  0.30714431  0.93587234  0.50318078  1  -1.164008  0  -0.314989  -0.544647  0  2.326989  0
O  O135  1  0.54568088  0.58052085  0.11890127  1  -1.177523  0  -0.316463  -0.548361  0  2.341838  0
O  O136  1  0.54118984  0.57701075  0.87742086  1  -1.158701  0  -0.317335  -0.549775  0  2.33361  0
O  O137  1  0.55562035  0.08156153  0.61659587  1  -1.171518  0  -0.318505  -0.553739  0  2.324833  0
O  O138  1  0.52150672  0.07767874  0.37476137  1  -1.181542  0  -0.318508  -0.551755  0  2.348766  0
O  O139  1  0.44873982  0.38004703  0.91617671  1  -1.176475  0  -0.318685  -0.551083  0  2.306592  0
O  O140  1  0.48379481  0.35285764  0.05533247  1  -1.168792  0  -0.317541  -0.550211  0  2.292187  0
O  O141  1  0.47874330  0.85654584  0.44398883  1  -1.171796  0  -0.316546  -0.550401  0  2.299856  0
