# generated using pymatgen
data_KZnPH4C8O7
_symmetry_space_group_name_H-M   'P 1'
_cell_length_a   5.03345487
_cell_length_b   9.42862758
_cell_length_c   25.01319642
_cell_angle_alpha   89.99996914
_cell_angle_beta   89.99998813
_cell_angle_gamma   104.63739428
_symmetry_Int_Tables_number   1
_chemical_formula_structural   KZnPH4C8O7
_chemical_formula_sum   'K4 Zn4 P4 H16 C32 O28'
_cell_volume   1148.56289104
_cell_formula_units_Z   4
loop_
 _symmetry_equiv_pos_site_id
 _symmetry_equiv_pos_as_xyz
  1  'x, y, z'
loop_
 _atom_site_type_symbol
 _atom_site_label
 _atom_site_symmetry_multiplicity
 _atom_site_fract_x
 _atom_site_fract_y
 _atom_site_fract_z
 _atom_site_occupancy
 _atom_site_hle17_bader_spin_density
 _atom_site_hle17_ddec_charge
 _atom_site_hle17_ddec_spin_density
 _atom_site_hle17_ddec_sum_bond_order
 _atom_site_hle17_magmom
 _atom_site_hse06_10hf_bader_spin_density
 _atom_site_hse06_10hf_ddec_charge
 _atom_site_hse06_10hf_ddec_spin_density
 _atom_site_hse06_10hf_ddec_sum_bond_order
 _atom_site_hse06_10hf_magmom
 _atom_site_hse06_bader_spin_density
 _atom_site_hse06_ddec_charge
 _atom_site_hse06_ddec_spin_density
 _atom_site_hse06_ddec_sum_bond_order
 _atom_site_hse06_magmom
 _atom_site_pbe_bader_spin_density
 _atom_site_pbe_cm5_charge
 _atom_site_pbe_ddec_charge
 _atom_site_pbe_ddec_spin_density
 _atom_site_pbe_ddec_sum_bond_order
 _atom_site_pbe_magmom
K  K0  1  0.29121587  0.09631349  0.61042857  1  0  0.94242  0  0.463289  0  0  0.902414  0  0.633225  0  0  0.91515  0  0.612155  0  0  0.811009  0.892587  0  0.648589  0
K  K1  1  0.70878153  0.40368519  0.11042845  1  0  0.942414  0  0.463294  0  0  0.902389  0  0.633255  0  0  0.915127  0  0.612183  0  0  0.811013  0.892566  0  0.648617  0
K  K2  1  0.70878229  0.90369068  0.38957146  1  0  0.942418  0  0.463301  0  0  0.902393  0  0.633264  0  0  0.915131  0  0.612192  0  0  0.81101  0.892568  0  0.648625  0
K  K3  1  0.29121344  0.59631240  0.88957157  1  0  0.942428  0  0.463288  0  0  0.902405  0  0.633245  0  0  0.915146  0  0.612171  0  0  0.811016  0.892582  0  0.648605  0
Zn  Zn4  1  0.78430141  0.18222206  0.51823161  1  0  1.204212  0  1.814944  0  0  1.04249  0  2.304004  0  0  1.088058  0  2.23856  0  0  0.710227  1.010146  0  2.34931  0
Zn  Zn5  1  0.21569669  0.31777787  0.01823154  1  0  1.204179  0  1.814959  0  0  1.042457  0  2.30401  0  0  1.088023  0  2.238568  0  0  0.710226  1.010113  0  2.349315  0
Zn  Zn6  1  0.21569912  0.81777880  0.48176841  1  0  1.204194  0  1.814946  0  0  1.042467  0  2.303993  0  0  1.088036  0  2.238552  0  0  0.710225  1.010124  0  2.349298  0
Zn  Zn7  1  0.78430079  0.68222081  0.98176808  1  0  1.204188  0  1.814952  0  0  1.04246  0  2.304001  0  0  1.088028  0  2.238559  0  0  0.710223  1.010116  0  2.349305  0
P  P8  1  0.25785013  0.14046834  0.44902696  1  0  1.46248  0  4.928619  0  0  1.310298  0  5.412784  0  0  1.360882  0  5.375682  0  0  0.298497  1.274925  0  5.437838  0
P  P9  1  0.74214917  0.35953086  0.94902700  1  0  1.462323  0  4.928696  0  0  1.310176  0  5.412896  0  0  1.360762  0  5.375795  0  0  0.29847  1.2748  0  5.437946  0
P  P10  1  0.74214987  0.85953143  0.55097346  1  0  1.462422  0  4.928595  0  0  1.310288  0  5.412783  0  0  1.360873  0  5.37568  0  0  0.298497  1.274911  0  5.437839  0
P  P11  1  0.25784831  0.64046782  0.05097342  1  0  1.462415  0  4.928557  0  0  1.310288  0  5.412747  0  0  1.360873  0  5.375644  0  0  0.298495  1.274912  0  5.4378  0
H  H12  1  0.29297456  0.17650439  0.19496946  1  0  0.406494  0  0.886268  0  0  0.374709  0  0.967286  0  0  0.387657  0  0.948918  0  0  0.305165  0.365609  0  0.979092  0
H  H13  1  0.70702375  0.32349634  0.69496911  1  0  0.406539  0  0.886269  0  0  0.374773  0  0.967212  0  0  0.387722  0  0.948841  0  0  0.305194  0.365672  0  0.979065  0
H  H14  1  0.70702597  0.82349648  0.80503136  1  0  0.406507  0  0.886307  0  0  0.374739  0  0.96726  0  0  0.387689  0  0.948889  0  0  0.305181  0.365638  0  0.979105  0
H  H15  1  0.29297281  0.67650454  0.30503091  1  0  0.406536  0  0.88626  0  0  0.37477  0  0.967211  0  0  0.38772  0  0.94884  0  0  0.305204  0.365669  0  0.979057  0
H  H16  1  0.25578768  0.13596494  0.33024046  1  0  0.105068  0  0.936663  0  0  0.115634  0  0.997981  0  0  0.119433  0  0.99438  0  0  0.12138  0.112863  0  1.000588  0
H  H17  1  0.74421778  0.36403443  0.83024090  1  0  0.104969  0  0.936691  0  0  0.115555  0  0.998002  0  0  0.119355  0  0.994396  0  0  0.12136  0.112784  0  1.000609  0
H  H18  1  0.74421826  0.86403481  0.66975916  1  0  0.104987  0  0.936694  0  0  0.115582  0  0.997987  0  0  0.119382  0  0.994382  0  0  0.121376  0.112811  0  1.000593  0
H  H19  1  0.25578077  0.63596644  0.16975912  1  0  0.104982  0  0.936705  0  0  0.115545  0  0.998034  0  0  0.119343  0  0.994431  0  0  0.121363  0.112775  0  1.000637  0
H  H20  1  0.90774153  0.51221553  0.29245915  1  0  0.11446  0  0.958663  0  0  0.121033  0  1.026093  0  0  0.125195  0  1.021766  0  0  0.114301  0.117977  0  1.029244  0
H  H21  1  0.09226269  0.98778439  0.79245839  1  0  0.114395  0  0.958744  0  0  0.121005  0  1.026135  0  0  0.125166  0  1.021809  0  0  0.114296  0.117947  0  1.029292  0
H  H22  1  0.09226243  0.48778422  0.70754167  1  0  0.114391  0  0.958747  0  0  0.121004  0  1.026142  0  0  0.125166  0  1.021815  0  0  0.114292  0.117946  0  1.029299  0
H  H23  1  0.90774272  0.01221426  0.20754083  1  0  0.114412  0  0.958714  0  0  0.12102  0  1.026106  0  0  0.125182  0  1.021781  0  0  0.114301  0.117962  0  1.029263  0
H  H24  1  0.67695898  0.41738482  0.45694274  1  0  0.110854  0  0.939917  0  0  0.12213  0  0.998887  0  0  0.125724  0  0.995456  0  0  0.114884  0.119451  0  1.001482  0
H  H25  1  0.32303687  0.08261547  0.95694246  1  0  0.110869  0  0.939936  0  0  0.122151  0  0.998897  0  0  0.125747  0  0.995467  0  0  0.114888  0.119472  0  1.001493  0
H  H26  1  0.32303758  0.58261606  0.54305728  1  0  0.110868  0  0.939926  0  0  0.122155  0  0.998881  0  0  0.125751  0  0.995449  0  0  0.11489  0.119475  0  1.001478  0
H  H27  1  0.67696114  0.91738430  0.04305716  1  0  0.11087  0  0.93992  0  0  0.122161  0  0.998875  0  0  0.125757  0  0.995443  0  0  0.114888  0.119481  0  1.001471  0
C  C28  1  0.44861546  0.26341894  0.39884063  1  0  -0.239431  0  3.750738  0  0  -0.19342  0  3.994329  0  0  -0.206883  0  4.017412  0  0  -0.018595  -0.184763  0  3.978934  0
C  C29  1  0.55138590  0.23658034  0.89884031  1  0  -0.239281  0  3.750558  0  0  -0.193431  0  3.994387  0  0  -0.206897  0  4.01747  0  0  -0.018577  -0.184764  0  3.978978  0
C  C30  1  0.55138652  0.73658082  0.60115979  1  0  -0.239321  0  3.750572  0  0  -0.193474  0  3.994412  0  0  -0.206943  0  4.017507  0  0  -0.018587  -0.184807  0  3.979002  0
C  C31  1  0.44861409  0.76341943  0.10115972  1  0  -0.23924  0  3.750522  0  0  -0.193412  0  3.994387  0  0  -0.20688  0  4.017478  0  0  -0.01857  -0.184745  0  3.978975  0
C  C32  1  0.40991439  0.23203144  0.34419948  1  0  -0.017991  0  3.685681  0  0  -0.059148  0  3.933238  0  0  -0.053555  0  3.951655  0  0  -0.055865  -0.062381  0  3.920629  0
C  C33  1  0.59008906  0.26796792  0.84419994  1  0  -0.017886  0  3.685609  0  0  -0.059012  0  3.933238  0  0  -0.053408  0  3.951659  0  0  -0.055849  -0.062253  0  3.920622  0
C  C34  1  0.59009102  0.76796721  0.65580054  1  0  -0.017895  0  3.6856  0  0  -0.059031  0  3.933228  0  0  -0.05343  0  3.95165  0  0  -0.055859  -0.062274  0  3.920612  0
C  C35  1  0.40990895  0.73203186  0.15580048  1  0  -0.017944  0  3.685623  0  0  -0.05904  0  3.933252  0  0  -0.053447  0  3.951664  0  0  -0.055874  -0.062277  0  3.920641  0
C  C36  1  0.57326300  0.32383864  0.30632786  1  0  -0.079459  0  3.752078  0  0  -0.053566  0  3.988629  0  0  -0.06565  0  4.013394  0  0  -0.011395  -0.045936  0  3.972035  0
C  C37  1  0.42674052  0.17616078  0.80632795  1  0  -0.07944  0  3.752056  0  0  -0.053582  0  3.988685  0  0  -0.065687  0  4.013476  0  0  -0.011392  -0.045936  0  3.97207  0
C  C38  1  0.42673989  0.67615892  0.69367216  1  0  -0.079433  0  3.752038  0  0  -0.053559  0  3.988629  0  0  -0.065663  0  4.013419  0  0  -0.011393  -0.045911  0  3.972013  0
C  C39  1  0.57326054  0.82384118  0.19367207  1  0  -0.079439  0  3.752047  0  0  -0.053578  0  3.988642  0  0  -0.06565  0  4.013389  0  0  -0.0114  -0.045949  0  3.972051  0
C  C40  1  0.78090178  0.44487443  0.32289310  1  0  -0.040246  0  3.657199  0  0  -0.079924  0  3.902636  0  0  -0.074768  0  3.920323  0  0  -0.059491  -0.082861  0  3.890609  0
C  C41  1  0.21910171  0.05512497  0.82289282  1  0  -0.040222  0  3.65734  0  0  -0.079935  0  3.902772  0  0  -0.074773  0  3.920461  0  0  -0.05953  -0.082878  0  3.89074  0
C  C42  1  0.21910363  0.55512422  0.67710732  1  0  -0.040241  0  3.657256  0  0  -0.079943  0  3.902717  0  0  -0.074782  0  3.920406  0  0  -0.059523  -0.082886  0  3.890686  0
C  C43  1  0.78089683  0.94487591  0.17710680  1  0  -0.040181  0  3.657179  0  0  -0.07991  0  3.902598  0  0  -0.07476  0  3.920278  0  0  -0.059492  -0.082847  0  3.890572  0
C  C44  1  0.81825352  0.47779625  0.37721762  1  0  -0.073896  0  3.734791  0  0  -0.047434  0  3.972765  0  0  -0.058659  0  3.996209  0  0  -0.010981  -0.04045  0  3.957156  0
C  C45  1  0.18174392  0.02220308  0.87721695  1  0  -0.073904  0  3.734837  0  0  -0.04739  0  3.972709  0  0  -0.058609  0  3.996144  0  0  -0.010961  -0.040406  0  3.957103  0
C  C46  1  0.18174792  0.52220241  0.62278240  1  0  -0.073814  0  3.734737  0  0  -0.047383  0  3.972731  0  0  -0.058601  0  3.996165  0  0  -0.010973  -0.0404  0  3.957127  0
C  C47  1  0.81825264  0.97779781  0.12278227  1  0  -0.073934  0  3.734837  0  0  -0.04737  0  3.972661  0  0  -0.058586  0  3.996093  0  0  -0.01098  -0.040387  0  3.957054  0
C  C48  1  0.64758768  0.38842626  0.41481299  1  0  0.006341  0  3.658672  0  0  -0.032871  0  3.900889  0  0  -0.026889  0  3.917916  0  0  -0.055925  -0.036461  0  3.8894  0
C  C49  1  0.35241366  0.11157299  0.91481269  1  0  0.006274  0  3.658633  0  0  -0.032909  0  3.90085  0  0  -0.026932  0  3.917879  0  0  -0.055922  -0.036502  0  3.889361  0
C  C50  1  0.35241628  0.61157350  0.58518704  1  0  0.006258  0  3.658653  0  0  -0.032901  0  3.900898  0  0  -0.026921  0  3.917924  0  0  -0.055909  -0.036493  0  3.88941  0
C  C51  1  0.64758382  0.88842569  0.08518693  1  0  0.006251  0  3.658685  0  0  -0.032958  0  3.900922  0  0  -0.02698  0  3.917949  0  0  -0.055924  -0.03655  0  3.889432  0
C  C52  1  0.53318070  0.29687966  0.24780955  1  0  0.674087  0  3.819081  0  0  0.629338  0  4.108691  0  0  0.663035  0  4.099691  0  0  0.238411  0.606424  0  4.114409  0
C  C53  1  0.46682292  0.20311986  0.74781003  1  0  0.67407  0  3.819066  0  0  0.629305  0  4.10872  0  0  0.663009  0  4.099723  0  0  0.238395  0.606387  0  4.114437  0
C  C54  1  0.46682578  0.70312118  0.75219007  1  0  0.673977  0  3.819117  0  0  0.629231  0  4.108746  0  0  0.662935  0  4.099751  0  0  0.238379  0.606312  0  4.114461  0
C  C55  1  0.53317204  0.79687773  0.25218919  1  0  0.673955  0  3.8191  0  0  0.629216  0  4.108727  0  0  0.66291  0  4.099731  0  0  0.238373  0.606302  0  4.114443  0
C  C56  1  0.03667364  0.60677507  0.39693161  1  0  0.665186  0  3.897055  0  0  0.61596  0  4.188069  0  0  0.65051  0  4.181191  0  0  0.221804  0.592586  0  4.191954  0
C  C57  1  0.96332642  0.89322469  0.89693124  1  0  0.665144  0  3.897154  0  0  0.615944  0  4.188101  0  0  0.650494  0  4.181222  0  0  0.221778  0.592571  0  4.191985  0
C  C58  1  0.96332490  0.39322581  0.60306881  1  0  0.665113  0  3.897163  0  0  0.615926  0  4.188139  0  0  0.650476  0  4.181261  0  0  0.221755  0.592553  0  4.192023  0
C  C59  1  0.03667502  0.10677397  0.10306878  1  0  0.665169  0  3.89708  0  0  0.615957  0  4.188027  0  0  0.650506  0  4.181149  0  0  0.221787  0.592584  0  4.191912  0
O  O60  1  0.40023546  0.18034556  0.50346342  1  0  -0.902971  0  2.052614  0  0  -0.816185  0  2.355398  0  0  -0.843003  0  2.326883  0  0  -0.42756  -0.797106  0  2.374626  0
O  O61  1  0.59976213  0.31965329  0.00346333  1  0  -0.902909  0  2.05261  0  0  -0.816108  0  2.355364  0  0  -0.842927  0  2.326853  0  0  -0.427566  -0.797029  0  2.374589  0
O  O62  1  0.59976454  0.81965421  0.49653660  1  0  -0.902943  0  2.052589  0  0  -0.816149  0  2.355353  0  0  -0.842968  0  2.326838  0  0  -0.427553  -0.79707  0  2.37458  0
O  O63  1  0.40023535  0.68034539  0.99653669  1  0  -0.902943  0  2.052576  0  0  -0.816149  0  2.355336  0  0  -0.84297  0  2.326823  0  0  -0.42755  -0.79707  0  2.374562  0
O  O64  1  0.96098820  0.15704219  0.45065088  1  0  -0.8895  0  2.036734  0  0  -0.798724  0  2.329345  0  0  -0.82903  0  2.306945  0  0  -0.421981  -0.777089  0  2.344109  0
O  O65  1  0.03901162  0.34295810  0.95065096  1  0  -0.889466  0  2.036745  0  0  -0.798686  0  2.329345  0  0  -0.82899  0  2.30694  0  0  -0.421979  -0.777057  0  2.344121  0
O  O66  1  0.03901233  0.84295868  0.54934914  1  0  -0.889492  0  2.036731  0  0  -0.798719  0  2.329334  0  0  -0.829022  0  2.306927  0  0  -0.421976  -0.777083  0  2.344097  0
O  O67  1  0.96098585  0.65704058  0.04934906  1  0  -0.889504  0  2.03673  0  0  -0.798727  0  2.32933  0  0  -0.829028  0  2.306918  0  0  -0.421987  -0.777097  0  2.344106  0
O  O68  1  0.25678932  0.98380982  0.42991096  1  0  -0.955351  0  2.066216  0  0  -0.870846  0  2.36891  0  0  -0.898393  0  2.342082  0  0  -0.485947  -0.851092  0  2.386851  0
O  O69  1  0.74320816  0.51618880  0.92991107  1  0  -0.955344  0  2.066291  0  0  -0.870831  0  2.368967  0  0  -0.89838  0  2.342141  0  0  -0.485939  -0.851075  0  2.386906  0
O  O70  1  0.74320869  0.01618996  0.57008906  1  0  -0.95538  0  2.066231  0  0  -0.870879  0  2.368913  0  0  -0.898425  0  2.342084  0  0  -0.48597  -0.851125  0  2.386855  0
O  O71  1  0.25678931  0.48380988  0.07008935  1  0  -0.955345  0  2.066228  0  0  -0.870836  0  2.368899  0  0  -0.898383  0  2.342072  0  0  -0.485946  -0.851082  0  2.386841  0
O  O72  1  0.32396258  0.18368235  0.23551965  1  0  -0.556289  0  2.081039  0  0  -0.507622  0  2.291386  0  0  -0.530169  0  2.272215  0  0  -0.326884  -0.491863  0  2.303391  0
O  O73  1  0.67603763  0.31631831  0.73551930  1  0  -0.556316  0  2.081115  0  0  -0.507644  0  2.291413  0  0  -0.530193  0  2.272238  0  0  -0.326891  -0.491886  0  2.303457  0
O  O74  1  0.67603848  0.81631961  0.76448117  1  0  -0.556286  0  2.081175  0  0  -0.507621  0  2.291475  0  0  -0.530169  0  2.272301  0  0  -0.326901  -0.491862  0  2.303513  0
O  O75  1  0.32396038  0.68368147  0.26448072  1  0  -0.556285  0  2.081185  0  0  -0.507624  0  2.291479  0  0  -0.530172  0  2.272307  0  0  -0.326897  -0.491865  0  2.303515  0
O  O76  1  0.68172401  0.37488844  0.21420208  1  0  -0.622364  0  1.915885  0  0  -0.582927  0  2.125736  0  0  -0.603271  0  2.115242  0  0  -0.39316  -0.568942  0  2.132744  0
O  O77  1  0.31827426  0.12511225  0.71420218  1  0  -0.622359  0  1.915802  0  0  -0.582915  0  2.125662  0  0  -0.603259  0  2.115167  0  0  -0.393153  -0.568929  0  2.132673  0
O  O78  1  0.31827797  0.62511132  0.78579874  1  0  -0.622301  0  1.915789  0  0  -0.582864  0  2.125645  0  0  -0.60321  0  2.115153  0  0  -0.39312  -0.568879  0  2.132653  0
O  O79  1  0.68172284  0.87488973  0.28579904  1  0  -0.6223  0  1.91569  0  0  -0.582861  0  2.125539  0  0  -0.603208  0  2.115051  0  0  -0.393133  -0.568873  0  2.132544  0
O  O80  1  0.22803372  0.67590482  0.36689346  1  0  -0.663065  0  2.002899  0  0  -0.612754  0  2.229179  0  0  -0.637605  0  2.217955  0  0  -0.350409  -0.595443  0  2.236172  0
O  O81  1  0.77196297  0.82409610  0.86689310  1  0  -0.663057  0  2.00294  0  0  -0.612763  0  2.229211  0  0  -0.637618  0  2.217992  0  0  -0.350406  -0.595449  0  2.236196  0
O  O82  1  0.77196338  0.32409716  0.63310696  1  0  -0.663066  0  2.002905  0  0  -0.612764  0  2.229166  0  0  -0.637617  0  2.217947  0  0  -0.350397  -0.595449  0  2.236152  0
O  O83  1  0.22803649  0.17590257  0.13310692  1  0  -0.663056  0  2.002905  0  0  -0.612747  0  2.229186  0  0  -0.637601  0  2.217969  0  0  -0.350394  -0.595433  0  2.236163  0
O  O84  1  0.00859761  0.64075876  0.44611605  1  0  -0.651036  0  2.063428  0  0  -0.578569  0  2.336447  0  0  -0.607756  0  2.319437  0  0  -0.317491  -0.558168  0  2.347456  0
O  O85  1  0.99140038  0.85924093  0.94611568  1  0  -0.651006  0  2.063433  0  0  -0.578556  0  2.336445  0  0  -0.607743  0  2.319432  0  0  -0.317471  -0.558156  0  2.347453  0
O  O86  1  0.99139842  0.35924103  0.55388437  1  0  -0.650982  0  2.063483  0  0  -0.578539  0  2.336496  0  0  -0.607725  0  2.319486  0  0  -0.317447  -0.558138  0  2.347504  0
O  O87  1  0.00859961  0.14075884  0.05388394  1  0  -0.651007  0  2.063395  0  0  -0.578576  0  2.336433  0  0  -0.607763  0  2.319423  0  0  -0.31748  -0.558174  0  2.34744  0
