# generated using pymatgen
data_Al2H14C27O17
_symmetry_space_group_name_H-M   'P 1'
_cell_length_a   6.89622637
_cell_length_b   17.69333600
_cell_length_c   20.80554447
_cell_angle_alpha   107.79304039
_cell_angle_beta   90.00021880
_cell_angle_gamma   90.00069922
_symmetry_Int_Tables_number   1
_chemical_formula_structural   Al2H14C27O17
_chemical_formula_sum   'Al4 H28 C54 O34'
_cell_volume   2417.20356081
_cell_formula_units_Z   2
loop_
 _symmetry_equiv_pos_site_id
 _symmetry_equiv_pos_as_xyz
  1  'x, y, z'
loop_
 _atom_site_type_symbol
 _atom_site_label
 _atom_site_symmetry_multiplicity
 _atom_site_fract_x
 _atom_site_fract_y
 _atom_site_fract_z
 _atom_site_occupancy
 _atom_site_pbe_bader_charge
 _atom_site_pbe_bader_spin_density
 _atom_site_pbe_cm5_charge
 _atom_site_pbe_ddec_charge
 _atom_site_pbe_ddec_spin_density
 _atom_site_pbe_ddec_sum_bond_order
 _atom_site_pbe_magmom
Al  Al0  1  0.81948053  0.50044603  0.50176842  1  2.506623  0  0.412889  1.641322  0  2.556349  0
Al  Al1  1  0.31947517  0.49955058  0.49822767  1  2.506669  0  0.41282  1.641175  0  2.556601  0
Al  Al2  1  0.41611688  0.99947070  0.99831513  1  2.504945  0  0.416566  1.637956  0  2.560712  0
Al  Al3  1  0.91611409  0.00052442  0.00168571  1  2.504928  0  0.416566  1.637945  0  2.56071  0
H  H4  1  0.08541584  0.88826830  0.30001429  1  0.120876  0  0.121128  0.111606  0  1.008087  0
H  H5  1  0.58542588  0.11172416  0.69998917  1  0.120786  0  0.121092  0.111636  0  1.008125  0
H  H6  1  0.12968954  0.60600423  0.20610004  1  0.049458  0  0.100094  0.104727  0  0.987195  0
H  H7  1  0.62971075  0.39399356  0.79389457  1  0.049709  0  0.100066  0.104698  0  0.987101  0
H  H8  1  0.38367046  0.68007291  0.27139866  1  0.133456  0  0.123502  0.124918  0  0.970119  0
H  H9  1  0.88367720  0.31992620  0.72860366  1  0.13341  0  0.123506  0.124936  0  0.97012  0
H  H10  1  0.88630324  0.63954082  0.21702419  1  0.088921  0  0.105746  0.127627  0  0.990186  0
H  H11  1  0.38631686  0.36045792  0.78297211  1  0.089068  0  0.105751  0.127597  0  0.990164  0
H  H12  1  0.32704314  0.74180765  0.40307610  1  0.114607  0  0.114588  0.055689  0  0.963529  0
H  H13  1  0.82702662  0.25818112  0.59692693  1  0.114725  0  0.114553  0.055623  0  0.963592  0
H  H14  1  0.53122381  0.78346309  0.16117583  1  0.163337  0  0.126193  0.083647  0  0.999111  0
H  H15  1  0.03124704  0.21654385  0.83882820  1  0.163333  0  0.126246  0.08372  0  0.999217  0
H  H16  1  0.37144196  0.89401166  0.34351577  1  0.094361  0  0.120037  0.077476  0  0.991878  0
H  H17  1  0.87145320  0.10598534  0.65649352  1  0.094613  0  0.120084  0.077541  0  0.991975  0
H  H18  1  0.69689338  0.84039085  0.23623232  1  0.064613  0  0.094604  0.004458  0  1.103025  0
H  H19  1  0.19690941  0.15960446  0.76377549  1  0.065037  0  0.094619  0.004461  0  1.103051  0
H  H20  1  0.88283067  0.80128453  0.41981143  1  0.104317  0  0.114912  0.056127  0  0.958114  0
H  H21  1  0.38284506  0.19870617  0.58019278  1  0.104286  0  0.114868  0.056151  0  0.958124  0
H  H22  1  0.79996956  0.76229166  0.30164473  1  0.094938  0  0.10634  0.101943  0  1.016094  0
H  H23  1  0.29997930  0.23769363  0.69835115  1  0.095127  0  0.106348  0.101921  0  1.016154  0
H  H24  1  0.28163521  0.60678085  0.12288721  1  0.087303  0  0.106419  0.043681  0  0.960929  0
H  H25  1  0.78162402  0.39322859  0.87711801  1  0.087164  0  0.106414  0.043647  0  0.960895  0
H  H26  1  0.83457257  0.64496433  0.10148437  1  0.06818  0  0.110329  0.049056  0  0.948868  0
H  H27  1  0.33458660  0.35503428  0.89850777  1  0.068136  0  0.110309  0.049055  0  0.948848  0
H  H28  1  0.56733950  0.60262707  0.53662100  1  0.616951  0  0.351654  0.43203  0  0.851131  0
H  H29  1  0.06734475  0.39736208  0.46338087  1  0.616741  0  0.351645  0.432022  0  0.851137  0
H  H30  1  0.66472831  0.90534490  0.00900736  1  0.60698  0  0.351808  0.432222  0  0.849859  0
H  H31  1  0.16473348  0.09465070  0.99099937  1  0.60695  0  0.351829  0.432281  0  0.850022  0
C  C32  1  0.56476972  0.42263864  0.57640094  1  1.696537  0  0.277224  0.718904  0  4.157439  0
C  C33  1  0.06475809  0.57736020  0.42359453  1  1.696423  0  0.277188  0.719047  0  4.157497  0
C  C34  1  0.57330989  0.39369629  0.39667957  1  1.646954  0  0.281864  0.723634  0  4.14527  0
C  C35  1  0.07328958  0.60632370  0.60331171  1  1.647117  0  0.28188  0.723882  0  4.145036  0
C  C36  1  0.08288417  0.66817099  0.66665555  1  -0.028578  0  -0.014107  -0.179315  0  3.867325  0
C  C37  1  0.58294176  0.33187558  0.33332257  1  -0.030734  0  -0.013834  -0.179152  0  3.867243  0
C  C38  1  0.10563776  0.72057279  0.72027106  1  -0.006572  0  0.005379  0.060064  0  4.228465  0
C  C39  1  0.60574207  0.27945818  0.27972448  1  -0.005163  0  0.005057  0.059985  0  4.227811  0
C  C40  1  0.12957916  0.77815267  0.77953228  1  -0.453776  0  -0.004875  0.016861  0  4.218735  0
C  C41  1  0.62969208  0.22187070  0.22046773  1  -0.45246  0  -0.004724  0.016912  0  4.218352  0
C  C42  1  0.15212973  0.83028836  0.83323433  1  0.331266  0  0.017099  -0.104404  0  3.805053  0
C  C43  1  0.65217628  0.16972251  0.16675903  1  0.330692  0  0.017068  -0.104573  0  3.805064  0
C  C44  1  0.33901866  0.78822341  0.24873625  1  -0.049661  0  -0.015325  -0.058347  0  3.743057  0
C  C45  1  0.83902798  0.21177727  0.75126698  1  -0.049785  0  -0.015315  -0.058316  0  3.743131  0
C  C46  1  0.00407948  0.83730677  0.26769486  1  -0.048968  0  -0.07904  -0.132167  0  3.786829  0
C  C47  1  0.50409356  0.16268643  0.73230841  1  -0.048366  0  -0.078923  -0.132117  0  3.786836  0
C  C48  1  0.94971754  0.78396749  0.31093074  1  -0.050457  0  -0.086885  -0.145415  0  3.800025  0
C  C49  1  0.44973715  0.21602556  0.68906765  1  -0.051676  0  -0.086866  -0.145389  0  3.80039  0
C  C50  1  0.05991243  0.62072757  0.37484508  1  0.250017  0  -0.03161  -0.180056  0  3.936555  0
C  C51  1  0.55991443  0.37927051  0.62515639  1  0.250096  0  -0.031709  -0.180167  0  3.936777  0
C  C52  1  0.14542616  0.79369786  0.20847255  1  0.119937  0  0.034616  0.115601  0  3.756311  0
C  C53  1  0.64543772  0.20629907  0.79152962  1  0.119854  0  0.034571  0.11548  0  3.756671  0
C  C54  1  0.30089844  0.73575427  0.29453729  1  -0.087166  0  -0.083783  -0.172486  0  3.817607  0
C  C55  1  0.80090506  0.26424484  0.70546432  1  -0.086956  0  -0.083797  -0.172626  0  3.817655  0
C  C56  1  0.08535195  0.70978286  0.29251943  1  0.142575  0  0.013652  0.161777  0  3.874369  0
C  C57  1  0.58535925  0.29020964  0.70747750  1  0.142521  0  0.013622  0.161898  0  3.874117  0
C  C58  1  0.03752246  0.65946085  0.21926035  1  -0.045534  0  -0.149306  -0.250465  0  3.838798  0
C  C59  1  0.53753643  0.34053639  0.78073352  1  -0.045952  0  -0.149333  -0.25051  0  3.838486  0
C  C60  1  0.07318029  0.70723034  0.16939702  1  -0.04382  0  -0.013656  -0.044879  0  3.716003  0
C  C61  1  0.57319007  0.29276667  0.83060146  1  -0.043634  0  -0.013605  -0.044802  0  3.715962  0
C  C62  1  0.05952993  0.66135835  0.33717425  1  -0.540755  0  -0.026006  -0.056764  0  4.030658  0
C  C63  1  0.55953129  0.33863789  0.66282016  1  -0.541041  0  -0.026003  -0.056685  0  4.030609  0
C  C64  1  0.17144676  0.84009218  0.16257042  1  -0.388049  0  -0.027558  -0.049474  0  4.054553  0
C  C65  1  0.67145572  0.15991040  0.83743693  1  -0.3859  0  -0.027486  -0.049387  0  4.054714  0
C  C66  1  0.17325818  0.87976195  0.12432268  1  0.258683  0  -0.008448  -0.123462  0  3.865242  0
C  C67  1  0.67326367  0.12024108  0.87568770  1  0.256666  0  -0.008432  -0.123464  0  3.865632  0
C  C68  1  0.66268836  0.10829945  0.10236869  1  1.721679  0  0.28341  0.706032  0  4.163019  0
C  C69  1  0.16266829  0.89170687  0.89762965  1  1.721637  0  0.283535  0.705872  0  4.163321  0
C  C70  1  0.66942047  0.07528008  0.92279588  1  1.672526  0  0.291066  0.731794  0  4.114726  0
C  C71  1  0.16943197  0.92471827  0.07720237  1  1.674612  0  0.291073  0.731766  0  4.114486  0
C  C72  1  0.39517123  0.76300391  0.36338105  1  0.937101  0  0.116164  0.320092  0  3.874433  0
C  C73  1  0.89517451  0.23699062  0.63662124  1  0.936646  0  0.116284  0.320269  0  3.874325  0
C  C74  1  0.49903529  0.75294370  0.19922113  1  0.852371  0  0.088061  0.231103  0  3.927076  0
C  C75  1  0.99904725  0.24706017  0.80078457  1  0.851908  0  0.088065  0.231081  0  3.927059  0
C  C76  1  0.38728776  0.87749230  0.28807835  1  0.983525  0  0.100236  0.231001  0  3.891019  0
C  C77  1  0.88729428  0.12250841  0.71193204  1  0.983664  0  0.099892  0.23054  0  3.890773  0
C  C78  1  0.83240952  0.87626497  0.24572404  1  0.973991  0  0.107367  0.316715  0  3.90691  0
C  C79  1  0.33242120  0.12372874  0.75427858  1  0.97446  0  0.107366  0.316657  0  3.907025  0
C  C80  1  0.96912102  0.82667741  0.38634001  1  0.947205  0  0.115736  0.31809  0  3.8553  0
C  C81  1  0.46912735  0.17331078  0.61366087  1  0.947145  0  0.115651  0.317952  0  3.855541  0
C  C82  1  0.22180767  0.66178627  0.11455566  1  0.944903  0  0.112012  0.273491  0  3.868779  0
C  C83  1  0.72181656  0.33822028  0.88544886  1  0.945613  0  0.112038  0.273449  0  3.868598  0
C  C84  1  0.89107693  0.70595536  0.12581907  1  0.987715  0  0.112295  0.283899  0  3.890487  0
C  C85  1  0.39109767  0.29404621  0.87417728  1  0.987889  0  0.112235  0.283814  0  3.890568  0
O  O86  1  0.40555677  0.41802990  0.41983397  1  -1.237245  0  -0.225857  -0.585207  0  2.272564  0
O  O87  1  0.90554235  0.58196414  0.58016030  1  -1.236727  0  -0.225899  -0.585435  0  2.272771  0
O  O88  1  0.73316689  0.43929761  0.55944633  1  -1.229323  0  -0.227794  -0.581391  0  2.269632  0
O  O89  1  0.23317846  0.56069343  0.44054595  1  -1.229021  0  -0.227934  -0.581698  0  2.269257  0
O  O90  1  0.73667843  0.41803002  0.42407017  1  -1.240081  0  -0.224801  -0.586879  0  2.292168  0
O  O91  1  0.23665625  0.58198272  0.57592444  1  -1.240648  0  -0.224755  -0.58691  0  2.292026  0
O  O92  1  0.90072186  0.56247712  0.44481395  1  -1.234824  0  -0.225614  -0.578364  0  2.290594  0
O  O93  1  0.40070095  0.43753121  0.55518906  1  -1.234505  0  -0.225715  -0.578451  0  2.290167  0
O  O94  1  0.56930071  0.54766381  0.50832678  1  -1.419767  0  -0.448555  -0.985354  0  2.118149  0
O  O95  1  0.06930599  0.45232916  0.49166309  1  -1.419663  0  -0.44851  -0.985324  0  2.11828  0
O  O96  1  0.83348920  0.05937211  0.94363596  1  -1.232518  0  -0.221334  -0.582536  0  2.28236  0
O  O97  1  0.33347312  0.94061657  0.05635855  1  -1.234528  0  -0.221292  -0.582484  0  2.282862  0
O  O98  1  0.49858034  0.08520913  0.07564548  1  -1.220315  0  -0.219116  -0.570944  0  2.289607  0
O  O99  1  0.99856691  0.91479076  0.92435514  1  -1.220454  0  -0.219133  -0.570883  0  2.289775  0
O  O100  1  0.50228044  0.05702586  0.93949333  1  -1.233739  0  -0.217494  -0.572978  0  2.267777  0
O  O101  1  0.00226308  0.94297273  0.06050749  1  -1.233663  0  -0.217538  -0.573003  0  2.267356  0
O  O102  1  0.33117002  0.91442508  0.92020913  1  -1.223722  0  -0.219812  -0.569688  0  2.270521  0
O  O103  1  0.83118978  0.08558000  0.07978209  1  -1.223825  0  -0.219815  -0.569767  0  2.270413  0
O  O104  1  0.66629818  0.95314151  0.99534650  1  -1.407481  0  -0.446898  -0.983943  0  2.117117  0
O  O105  1  0.16630446  0.04685072  0.00465366  1  -1.407353  0  -0.446915  -0.983997  0  2.117353  0
O  O106  1  0.54690936  0.80054275  0.37425844  1  -1.104369  0  -0.24376  -0.353471  0  2.212685  0
O  O107  1  0.04691342  0.19945320  0.62574498  1  -1.104202  0  -0.24379  -0.353493  0  2.212549  0
O  O108  1  0.58333972  0.69108143  0.19821643  1  -1.103805  0  -0.249935  -0.358405  0  2.238142  0
O  O109  1  0.08335770  0.30892268  0.80178469  1  -1.103562  0  -0.249996  -0.358453  0  2.237895  0
O  O110  1  0.42635756  0.92548230  0.25913038  1  -1.041197  0  -0.217198  -0.276905  0  2.215211  0
O  O111  1  0.92634547  0.07452046  0.74088466  1  -1.04145  0  -0.216912  -0.276518  0  2.21458  0
O  O112  1  0.83578803  0.94281247  0.24131244  1  -1.024232  0  -0.213689  -0.275657  0  2.105869  0
O  O113  1  0.33580436  0.05718487  0.75869425  1  -1.024479  0  -0.213743  -0.275665  0  2.105988  0
O  O114  1  0.07771258  0.88298015  0.40941428  1  -1.074628  0  -0.241686  -0.334112  0  2.121176  0
O  O115  1  0.57771926  0.11701028  0.59058813  1  -1.074501  0  -0.241549  -0.334014  0  2.121232  0
O  O116  1  0.26406503  0.68108760  0.06522605  1  -1.047617  0  -0.225802  -0.295146  0  2.126747  0
O  O117  1  0.76408804  0.31891294  0.93477448  1  -1.048143  0  -0.225828  -0.295052  0  2.126883  0
O  O118  1  0.82000423  0.76354893  0.11472260  1  -1.068926  0  -0.222982  -0.305022  0  2.223981  0
O  O119  1  0.32001872  0.23645365  0.88527609  1  -1.068961  0  -0.22295  -0.30499  0  2.224034  0
