# generated using pymatgen
data_MgH2(C3O2)2
_symmetry_space_group_name_H-M   'P 1'
_cell_length_a   7.78977201
_cell_length_b   7.78011709
_cell_length_c   7.78458679
_cell_angle_alpha   66.45585526
_cell_angle_beta   66.47738113
_cell_angle_gamma   66.45908931
_symmetry_Int_Tables_number   1
_chemical_formula_structural   MgH2(C3O2)2
_chemical_formula_sum   'Mg3 H6 C18 O12'
_cell_volume   380.06689696
_cell_formula_units_Z   3
loop_
 _symmetry_equiv_pos_site_id
 _symmetry_equiv_pos_as_xyz
  1  'x, y, z'
loop_
 _atom_site_type_symbol
 _atom_site_label
 _atom_site_symmetry_multiplicity
 _atom_site_fract_x
 _atom_site_fract_y
 _atom_site_fract_z
 _atom_site_occupancy
 _atom_site_hle17_bader_spin_density
 _atom_site_hle17_ddec_charge
 _atom_site_hle17_ddec_spin_density
 _atom_site_hle17_ddec_sum_bond_order
 _atom_site_hle17_magmom
 _atom_site_hse06_10hf_bader_spin_density
 _atom_site_hse06_10hf_ddec_charge
 _atom_site_hse06_10hf_ddec_spin_density
 _atom_site_hse06_10hf_ddec_sum_bond_order
 _atom_site_hse06_10hf_magmom
 _atom_site_hse06_bader_spin_density
 _atom_site_hse06_ddec_charge
 _atom_site_hse06_ddec_spin_density
 _atom_site_hse06_ddec_sum_bond_order
 _atom_site_hse06_magmom
 _atom_site_pbe_bader_spin_density
 _atom_site_pbe_cm5_charge
 _atom_site_pbe_ddec_charge
 _atom_site_pbe_ddec_spin_density
 _atom_site_pbe_ddec_sum_bond_order
 _atom_site_pbe_magmom
Mg  Mg0  1  0.83848818  0.83820355  0.33851168  1  0  1.583416  0  1.065591  0  0  1.480573  0  1.310554  0  0  1.504204  0  1.274142  0  0  0.854547  1.463935  0  1.335886  0
Mg  Mg1  1  0.16151330  0.16179304  0.66148812  1  0  1.583427  0  1.06564  0  0  1.480546  0  1.31069  0  0  1.504186  0  1.274257  0  0  0.854532  1.4639  0  1.336028  0
Mg  Mg2  1  0.99999887  0.99999748  0.49999911  1  0  1.583721  0  1.081146  0  0  1.481441  0  1.318988  0  0  1.503813  0  1.284655  0  0  0.853159  1.465404  0  1.343279  0
H  H3  1  0.69963397  0.11552088  0.91347258  1  0  0.116633  0  0.945098  0  0  0.11961  0  1.017559  0  0  0.124422  0  1.012708  0  0  0.117881  0.116089  0  1.02113  0
H  H4  1  0.30036430  0.88447717  0.08652664  1  0  0.116651  0  0.945092  0  0  0.11962  0  1.017559  0  0  0.124432  0  1.012708  0  0  0.117886  0.116098  0  1.021132  0
H  H5  1  0.11751168  0.41090165  0.20015935  1  0  0.116729  0  0.94521  0  0  0.119547  0  1.01797  0  0  0.124384  0  1.013091  0  0  0.117787  0.116031  0  1.021532  0
H  H6  1  0.88248939  0.58909641  0.79984003  1  0  0.116726  0  0.945213  0  0  0.11955  0  1.017975  0  0  0.124388  0  1.013094  0  0  0.117786  0.116039  0  1.021518  0
H  H7  1  0.41324801  0.69867265  0.61802067  1  0  0.116746  0  0.945801  0  0  0.119474  0  1.018694  0  0  0.12426  0  1.013864  0  0  0.117666  0.115976  0  1.022224  0
H  H8  1  0.58675362  0.30132834  0.38197987  1  0  0.11674  0  0.945793  0  0  0.119468  0  1.01869  0  0  0.124259  0  1.013848  0  0  0.117664  0.115972  0  1.022221  0
C  C9  1  0.57165544  0.40340465  0.74402100  1  0  -0.09362  0  3.724613  0  0  -0.066062  0  3.960656  0  0  -0.077843  0  3.984415  0  0  -0.013667  -0.058671  0  3.944776  0
C  C10  1  0.42834423  0.59659341  0.25598022  1  0  -0.09364  0  3.724592  0  0  -0.066103  0  3.960684  0  0  -0.077886  0  3.984433  0  0  -0.013699  -0.058709  0  3.944804  0
C  C11  1  0.56922095  0.24008006  0.90790788  1  0  -0.023671  0  3.642334  0  0  -0.063602  0  3.892618  0  0  -0.05813  0  3.909726  0  0  -0.058414  -0.066698  0  3.880883  0
C  C12  1  0.43077732  0.75991800  0.09209263  1  0  -0.023697  0  3.642327  0  0  -0.0636  0  3.892574  0  0  -0.058128  0  3.909682  0  0  -0.058406  -0.066697  0  3.88084  0
C  C13  1  0.40475630  0.24180627  0.07183469  1  0  -0.094349  0  3.724969  0  0  -0.066958  0  3.961591  0  0  -0.078769  0  3.985407  0  0  -0.014531  -0.059545  0  3.945674  0
C  C14  1  0.59524450  0.75819765  0.92816630  1  0  -0.094336  0  3.724918  0  0  -0.066937  0  3.961519  0  0  -0.078747  0  3.98534  0  0  -0.014493  -0.059529  0  3.945598  0
C  C15  1  0.24168797  0.40586470  0.06940231  1  0  -0.023719  0  3.642361  0  0  -0.063849  0  3.892526  0  0  -0.058388  0  3.909663  0  0  -0.058248  -0.066948  0  3.880802  0
C  C16  1  0.75831128  0.59413482  0.93059850  1  0  -0.023705  0  3.642286  0  0  -0.063852  0  3.892454  0  0  -0.058385  0  3.909567  0  0  -0.058246  -0.066954  0  3.880741  0
C  C17  1  0.24337514  0.57019217  0.90496971  1  0  -0.093267  0  3.723183  0  0  -0.065226  0  3.958974  0  0  -0.077023  0  3.982848  0  0  -0.013184  -0.057863  0  3.943082  0
C  C18  1  0.75662635  0.42980443  0.09503010  1  0  -0.093281  0  3.723199  0  0  -0.06525  0  3.958983  0  0  -0.07704  0  3.982849  0  0  -0.013223  -0.057886  0  3.943093  0
C  C19  1  0.40755524  0.56789718  0.74221421  1  0  -0.02397  0  3.643637  0  0  -0.064131  0  3.89388  0  0  -0.058585  0  3.910884  0  0  -0.059318  -0.067273  0  3.882235  0
C  C20  1  0.59244681  0.43210235  0.25778548  1  0  -0.02396  0  3.643621  0  0  -0.064119  0  3.893873  0  0  -0.058576  0  3.910877  0  0  -0.059306  -0.067258  0  3.882216  0
C  C21  1  0.75930461  0.41746300  0.58656785  1  0  0.758177  0  3.824141  0  0  0.702096  0  4.118648  0  0  0.736398  0  4.107549  0  0  0.252407  0.678755  0  4.125806  0
C  C22  1  0.24069170  0.58254676  0.41342746  1  0  0.75832  0  3.823766  0  0  0.702196  0  4.11834  0  0  0.736513  0  4.107224  0  0  0.252491  0.678851  0  4.125503  0
C  C23  1  0.41824011  0.08434480  0.25981015  1  0  0.757031  0  3.826756  0  0  0.700676  0  4.121907  0  0  0.734964  0  4.110871  0  0  0.250972  0.677342  0  4.129027  0
C  C24  1  0.58177033  0.91565474  0.74018488  1  0  0.757044  0  3.826428  0  0  0.700678  0  4.121614  0  0  0.734958  0  4.110589  0  0  0.250915  0.677354  0  4.128714  0
C  C25  1  0.08589045  0.75827450  0.91854706  1  0  0.757176  0  3.823294  0  0  0.700623  0  4.118898  0  0  0.734876  0  4.107871  0  0  0.250645  0.677336  0  4.125998  0
C  C26  1  0.91410448  0.24172065  0.08146751  1  0  0.757044  0  3.823322  0  0  0.700523  0  4.11888  0  0  0.734775  0  4.10786  0  0  0.250588  0.677235  0  4.125979  0
O  O27  1  0.77597947  0.58443481  0.48296335  1  0  -0.704128  0  2.035226  0  0  -0.652014  0  2.288391  0  0  -0.674657  0  2.276243  0  0  -0.340979  -0.636445  0  2.296575  0
O  O28  1  0.22402214  0.41555154  0.51703795  1  0  -0.704257  0  2.034734  0  0  -0.652123  0  2.287945  0  0  -0.674766  0  2.275776  0  0  -0.341088  -0.63655  0  2.296126  0
O  O29  1  0.89896368  0.25883978  0.57166281  1  0  -0.844902  0  2.112531  0  0  -0.779952  0  2.366175  0  0  -0.801768  0  2.349367  0  0  -0.384011  -0.764726  0  2.377489  0
O  O30  1  0.10103642  0.74115683  0.42834269  1  0  -0.844918  0  2.112775  0  0  -0.779957  0  2.366449  0  0  -0.801777  0  2.349633  0  0  -0.383981  -0.764732  0  2.377768  0
O  O31  1  0.58472402  0.98008294  0.27693734  1  0  -0.705014  0  2.037151  0  0  -0.652207  0  2.289582  0  0  -0.674846  0  2.277441  0  0  -0.340997  -0.636637  0  2.29776  0
O  O32  1  0.41526754  0.01992390  0.72306747  1  0  -0.705036  0  2.036804  0  0  -0.652245  0  2.289287  0  0  -0.674883  0  2.277149  0  0  -0.340999  -0.636675  0  2.297459  0
O  O33  1  0.25951953  0.07026861  0.39926970  1  0  -0.843322  0  2.111263  0  0  -0.778663  0  2.365483  0  0  -0.800362  0  2.348503  0  0  -0.38295  -0.76349  0  2.376861  0
O  O34  1  0.74048182  0.92973824  0.60072860  1  0  -0.843277  0  2.111213  0  0  -0.778627  0  2.365445  0  0  -0.800321  0  2.348468  0  0  -0.382914  -0.76348  0  2.376873  0
O  O35  1  0.98208883  0.77497591  0.08537196  1  0  -0.705581  0  2.034025  0  0  -0.653281  0  2.287445  0  0  -0.675788  0  2.275049  0  0  -0.341222  -0.637799  0  2.295777  0
O  O36  1  0.01791559  0.22502507  0.91461977  1  0  -0.705572  0  2.033826  0  0  -0.653281  0  2.287244  0  0  -0.675795  0  2.27485  0  0  -0.341184  -0.637794  0  2.295572  0
O  O37  1  0.07141476  0.89802280  0.75989802  1  0  -0.842238  0  2.10908  0  0  -0.777335  0  2.362751  0  0  -0.799236  0  2.346214  0  0  -0.380944  -0.762021  0  2.373787  0
O  O38  1  0.92858868  0.10197673  0.24009981  1  0  -0.842123  0  2.109265  0  0  -0.777247  0  2.362951  0  0  -0.799133  0  2.346383  0  0  -0.380919  -0.761937  0  2.373988  0
