# generated using pymatgen
data_ZnH4C9(NO2)2
_symmetry_space_group_name_H-M   'P 1'
_cell_length_a   6.22474061
_cell_length_b   8.44164061
_cell_length_c   17.90733551
_cell_angle_alpha   89.99949217
_cell_angle_beta   95.03417374
_cell_angle_gamma   90.00036646
_symmetry_Int_Tables_number   1
_chemical_formula_structural   ZnH4C9(NO2)2
_chemical_formula_sum   'Zn4 H16 C36 N8 O16'
_cell_volume   937.34738874
_cell_formula_units_Z   4
loop_
 _symmetry_equiv_pos_site_id
 _symmetry_equiv_pos_as_xyz
  1  'x, y, z'
loop_
 _atom_site_type_symbol
 _atom_site_label
 _atom_site_symmetry_multiplicity
 _atom_site_fract_x
 _atom_site_fract_y
 _atom_site_fract_z
 _atom_site_occupancy
 _atom_site_hle17_bader_spin_density
 _atom_site_hle17_ddec_charge
 _atom_site_hle17_ddec_spin_density
 _atom_site_hle17_ddec_sum_bond_order
 _atom_site_hle17_magmom
 _atom_site_hse06_10hf_bader_spin_density
 _atom_site_hse06_10hf_ddec_charge
 _atom_site_hse06_10hf_ddec_spin_density
 _atom_site_hse06_10hf_ddec_sum_bond_order
 _atom_site_hse06_10hf_magmom
 _atom_site_hse06_bader_spin_density
 _atom_site_hse06_ddec_charge
 _atom_site_hse06_ddec_spin_density
 _atom_site_hse06_ddec_sum_bond_order
 _atom_site_hse06_magmom
 _atom_site_pbe_bader_spin_density
 _atom_site_pbe_cm5_charge
 _atom_site_pbe_ddec_charge
 _atom_site_pbe_ddec_spin_density
 _atom_site_pbe_ddec_sum_bond_order
 _atom_site_pbe_magmom
Zn  Zn0  1  0.17259265  0.97680050  0.81127454  1  0  1.112366  0  1.741045  0  0  0.929943  0  2.218438  0  0  0.979657  0  2.157711  0  0  0.703447  0.89497  0  2.260387  0
Zn  Zn1  1  0.32740694  0.47680088  0.68872343  1  0  1.112372  0  1.740965  0  0  0.929955  0  2.21836  0  0  0.979669  0  2.157629  0  0  0.703456  0.89498  0  2.260321  0
Zn  Zn2  1  0.82739376  0.02319828  0.18872699  1  0  1.112407  0  1.740909  0  0  0.929985  0  2.218318  0  0  0.979693  0  2.157595  0  0  0.703476  0.895014  0  2.260273  0
Zn  Zn3  1  0.67260699  0.52319790  0.31127569  1  0  1.1124  0  1.740956  0  0  0.929969  0  2.218404  0  0  0.979677  0  2.157677  0  0  0.703483  0.894993  0  2.260369  0
H  H4  1  0.41769351  0.25172138  0.21298855  1  0  0.116249  0  0.976128  0  0  0.123688  0  1.037336  0  0  0.127402  0  1.032195  0  0  0.143358  0.120777  0  1.041265  0
H  H5  1  0.08231939  0.75171866  0.28701071  1  0  0.116237  0  0.976166  0  0  0.123672  0  1.037394  0  0  0.127401  0  1.032235  0  0  0.143374  0.120758  0  1.041326  0
H  H6  1  0.58230253  0.74827741  0.78701498  1  0  0.116345  0  0.976072  0  0  0.123729  0  1.037352  0  0  0.127473  0  1.032168  0  0  0.143386  0.120823  0  1.041279  0
H  H7  1  0.91769621  0.24827657  0.71298623  1  0  0.11634  0  0.976044  0  0  0.123724  0  1.037315  0  0  0.12747  0  1.032128  0  0  0.143386  0.120811  0  1.041242  0
H  H8  1  0.20857487  0.39382026  0.94168665  1  0  0.114693  0  0.928416  0  0  0.128387  0  0.98068  0  0  0.132072  0  0.978894  0  0  0.108021  0.125681  0  0.982186  0
H  H9  1  0.29142732  0.89382523  0.55831119  1  0  0.114669  0  0.928444  0  0  0.128348  0  0.980735  0  0  0.132059  0  0.978914  0  0  0.107988  0.12564  0  0.98224  0
H  H10  1  0.79141628  0.60618799  0.05831839  1  0  0.114708  0  0.928385  0  0  0.128412  0  0.980631  0  0  0.132079  0  0.978866  0  0  0.108033  0.125701  0  0.982138  0
H  H11  1  0.70858506  0.10617474  0.44168564  1  0  0.114699  0  0.928429  0  0  0.128398  0  0.980688  0  0  0.132085  0  0.978899  0  0  0.108033  0.12569  0  0.982195  0
H  H12  1  0.86500756  0.05864221  0.01113363  1  0  0.129333  0  0.977861  0  0  0.135359  0  1.044381  0  0  0.139723  0  1.040329  0  0  0.10822  0.132164  0  1.047435  0
H  H13  1  0.63499031  0.55865014  0.48886657  1  0  0.129332  0  0.977899  0  0  0.135391  0  1.044379  0  0  0.139756  0  1.040325  0  0  0.108236  0.132196  0  1.047432  0
H  H14  1  0.13497408  0.94135539  0.98886551  1  0  0.129376  0  0.977783  0  0  0.135431  0  1.044286  0  0  0.139796  0  1.04023  0  0  0.108248  0.132233  0  1.047335  0
H  H15  1  0.36502364  0.44135219  0.51113199  1  0  0.129403  0  0.977739  0  0  0.135462  0  1.044235  0  0  0.139827  0  1.04018  0  0  0.108256  0.132267  0  1.047286  0
H  H16  1  0.20374948  0.38568753  0.10746745  1  0  0.321809  0  0.829847  0  0  0.317106  0  0.865379  0  0  0.322963  0  0.862487  0  0  0.354742  0.312979  0  0.867551  0
H  H17  1  0.29625801  0.88568858  0.39253051  1  0  0.321831  0  0.829953  0  0  0.317129  0  0.865473  0  0  0.322987  0  0.862579  0  0  0.354726  0.312998  0  0.867649  0
H  H18  1  0.79624491  0.61431954  0.89253714  1  0  0.321817  0  0.829782  0  0  0.317093  0  0.865358  0  0  0.322949  0  0.862467  0  0  0.354772  0.312968  0  0.867525  0
H  H19  1  0.70375598  0.11430902  0.60746637  1  0  0.321845  0  0.829821  0  0  0.317036  0  0.865486  0  0  0.322891  0  0.862598  0  0  0.354751  0.312912  0  0.867651  0
C  C20  1  0.45242035  0.24096817  0.15466109  1  0  0.318423  0  3.589821  0  0  0.247905  0  3.873961  0  0  0.269213  0  3.87756  0  0  0.181356  0.233904  0  3.871308  0
C  C21  1  0.04758925  0.74096419  0.34533755  1  0  0.31853  0  3.589788  0  0  0.247969  0  3.873996  0  0  0.269265  0  3.877586  0  0  0.181378  0.233978  0  3.871332  0
C  C22  1  0.54757247  0.75903179  0.84534178  1  0  0.318175  0  3.590209  0  0  0.247684  0  3.87435  0  0  0.268977  0  3.877936  0  0  0.181227  0.233681  0  3.871704  0
C  C23  1  0.95242633  0.25902985  0.65465995  1  0  0.31824  0  3.589944  0  0  0.24778  0  3.874053  0  0  0.269072  0  3.877633  0  0  0.181283  0.23379  0  3.871387  0
C  C24  1  0.59642585  0.18526232  0.05085803  1  0  0.139649  0  3.823981  0  0  0.13758  0  4.069159  0  0  0.139416  0  4.094014  0  0  0.085104  0.136207  0  4.052327  0
C  C25  1  0.90357784  0.68526754  0.44914127  1  0  0.139662  0  3.824043  0  0  0.13768  0  4.06912  0  0  0.139512  0  4.09397  0  0  0.085154  0.136305  0  4.052301  0
C  C26  1  0.40355569  0.81473765  0.94914444  1  0  0.139652  0  3.824191  0  0  0.137651  0  4.069281  0  0  0.139482  0  4.094133  0  0  0.085079  0.136271  0  4.052453  0
C  C27  1  0.09643935  0.31473243  0.55085684  1  0  0.139802  0  3.82404  0  0  0.137771  0  4.069142  0  0  0.139612  0  4.094  0  0  0.085132  0.136392  0  4.052318  0
C  C28  1  0.41366132  0.28140807  0.03135170  1  0  0.168157  0  3.792993  0  0  0.157916  0  4.047425  0  0  0.163292  0  4.069247  0  0  0.101148  0.154425  0  4.032638  0
C  C29  1  0.08633895  0.78141260  0.46864534  1  0  0.168262  0  3.792983  0  0  0.157977  0  4.047411  0  0  0.163366  0  4.069222  0  0  0.101182  0.154483  0  4.032624  0
C  C30  1  0.58632663  0.71859190  0.96865212  1  0  0.168195  0  3.792914  0  0  0.157889  0  4.047388  0  0  0.163286  0  4.06918  0  0  0.101206  0.154401  0  4.032602  0
C  C31  1  0.91367185  0.21858618  0.53135032  1  0  0.168155  0  3.793061  0  0  0.157951  0  4.047397  0  0  0.163314  0  4.069235  0  0  0.101239  0.154468  0  4.032607  0
C  C32  1  0.35081820  0.32153119  0.95700519  1  0  -0.168755  0  3.730313  0  0  -0.199122  0  3.98838  0  0  -0.202408  0  4.006959  0  0  -0.092704  -0.196963  0  3.975949  0
C  C33  1  0.14918826  0.82153577  0.54299366  1  0  -0.168791  0  3.730237  0  0  -0.199132  0  3.988324  0  0  -0.202446  0  4.006891  0  0  -0.092664  -0.196971  0  3.975884  0
C  C34  1  0.64917300  0.67847470  0.04299817  1  0  -0.168715  0  3.730038  0  0  -0.19905  0  3.988122  0  0  -0.202327  0  4.006701  0  0  -0.092695  -0.196881  0  3.975681  0
C  C35  1  0.85082410  0.17846657  0.45700373  1  0  -0.168721  0  3.730251  0  0  -0.199101  0  3.988306  0  0  -0.202385  0  4.00689  0  0  -0.092662  -0.19694  0  3.975874  0
C  C36  1  0.66259451  0.17016832  0.92141013  1  0  -0.095041  0  3.766505  0  0  -0.086203  0  4.011979  0  0  -0.094984  0  4.036541  0  0  -0.02775  -0.080535  0  3.995566  0
C  C37  1  0.83740854  0.67017075  0.57858932  1  0  -0.095174  0  3.766648  0  0  -0.08624  0  4.012038  0  0  -0.095024  0  4.036602  0  0  -0.027726  -0.08057  0  3.995621  0
C  C38  1  0.33738871  0.82983283  0.07859017  1  0  -0.094961  0  3.766277  0  0  -0.086088  0  4.011748  0  0  -0.094869  0  4.03631  0  0  -0.027771  -0.080428  0  3.99534  0
C  C39  1  0.16260376  0.32982566  0.42141030  1  0  -0.09499  0  3.766358  0  0  -0.086114  0  4.011818  0  0  -0.094893  0  4.036379  0  0  -0.027768  -0.080447  0  3.995405  0
C  C40  1  0.72316480  0.13067899  0.99600421  1  0  -0.132491  0  3.710144  0  0  -0.164322  0  3.965013  0  0  -0.163524  0  3.982587  0  0  -0.087115  -0.164699  0  3.953255  0
C  C41  1  0.77683798  0.63068491  0.50399428  1  0  -0.1325  0  3.710208  0  0  -0.164398  0  3.964998  0  0  -0.163599  0  3.982573  0  0  -0.087137  -0.16478  0  3.953247  0
C  C42  1  0.27682490  0.86931623  0.00399520  1  0  -0.132673  0  3.710511  0  0  -0.164555  0  3.965353  0  0  -0.163757  0  3.98293  0  0  -0.087193  -0.164917  0  3.953581  0
C  C43  1  0.22317436  0.36931387  0.49600366  1  0  -0.132716  0  3.710178  0  0  -0.164602  0  3.965034  0  0  -0.163806  0  3.982609  0  0  -0.087201  -0.16497  0  3.95327  0
C  C44  1  0.47585747  0.26319382  0.90205586  1  0  -0.05918  0  3.739943  0  0  -0.048083  0  3.98605  0  0  -0.051319  0  4.006577  0  0  -0.012882  -0.045885  0  3.972231  0
C  C45  1  0.02414857  0.76319677  0.59794266  1  0  -0.059036  0  3.740003  0  0  -0.047985  0  3.986091  0  0  -0.051222  0  4.006629  0  0  -0.012889  -0.045786  0  3.972279  0
C  C46  1  0.52412726  0.73681207  0.09794784  1  0  -0.059334  0  3.739854  0  0  -0.048299  0  3.986054  0  0  -0.051535  0  4.006576  0  0  -0.012958  -0.046104  0  3.972239  0
C  C47  1  0.97586862  0.23680794  0.40205545  1  0  -0.059242  0  3.739973  0  0  -0.048148  0  3.986082  0  0  -0.051385  0  4.006606  0  0  -0.01296  -0.045949  0  3.972273  0
C  C48  1  0.79899324  0.11728850  0.86085833  1  0  0.63439  0  3.946968  0  0  0.585365  0  4.243812  0  0  0.619004  0  4.238304  0  0  0.197183  0.562542  0  4.246707  0
C  C49  1  0.70100778  0.61729151  0.63914183  1  0  0.634519  0  3.946863  0  0  0.585452  0  4.243709  0  0  0.619092  0  4.238198  0  0  0.197224  0.562633  0  4.246596  0
C  C50  1  0.20097874  0.88271265  0.13913992  1  0  0.634638  0  3.946754  0  0  0.58556  0  4.243648  0  0  0.619202  0  4.238136  0  0  0.197237  0.562744  0  4.246535  0
C  C51  1  0.29901737  0.38270608  0.36085990  1  0  0.634714  0  3.946574  0  0  0.585627  0  4.243487  0  0  0.619269  0  4.237976  0  0  0.197314  0.562806  0  4.246381  0
C  C52  1  0.39875356  0.29344089  0.82115614  1  0  0.693669  0  3.880883  0  0  0.637199  0  4.177789  0  0  0.674569  0  4.166305  0  0  0.222476  0.611552  0  4.185033  0
C  C53  1  0.10125268  0.79343794  0.67884282  1  0  0.693722  0  3.880954  0  0  0.63728  0  4.177825  0  0  0.674647  0  4.166341  0  0  0.222575  0.611626  0  4.185077  0
C  C54  1  0.60123763  0.70657092  0.17884723  1  0  0.693802  0  3.88107  0  0  0.637342  0  4.177944  0  0  0.674711  0  4.166459  0  0  0.22255  0.611688  0  4.185206  0
C  C55  1  0.89875644  0.20656440  0.32115501  1  0  0.693771  0  3.881089  0  0  0.637302  0  4.177993  0  0  0.674673  0  4.166508  0  0  0.222488  0.611635  0  4.185273  0
N  N56  1  0.61451213  0.16190835  0.12842049  1  0  -0.458568  0  3.217478  0  0  -0.381827  0  3.522764  0  0  -0.405107  0  3.530153  0  0  -0.351681  -0.366085  0  3.517503  0
N  N57  1  0.88549621  0.66190666  0.37157908  1  0  -0.458622  0  3.217317  0  0  -0.381899  0  3.522616  0  0  -0.405178  0  3.530005  0  0  -0.351788  -0.36616  0  3.517357  0
N  N58  1  0.38547912  0.83808925  0.87158121  1  0  -0.458456  0  3.217484  0  0  -0.381694  0  3.522674  0  0  -0.404977  0  3.530075  0  0  -0.351558  -0.365947  0  3.517409  0
N  N59  1  0.11451938  0.33808857  0.62841842  1  0  -0.458548  0  3.217453  0  0  -0.381829  0  3.522698  0  0  -0.40511  0  3.530093  0  0  -0.351639  -0.366088  0  3.517436  0
N  N60  1  0.32902029  0.31350407  0.09856891  1  0  -0.316699  0  3.358357  0  0  -0.261649  0  3.598905  0  0  -0.278272  0  3.607622  0  0  -0.366034  -0.250629  0  3.592858  0
N  N61  1  0.17098987  0.81350673  0.40142944  1  0  -0.316904  0  3.358576  0  0  -0.261819  0  3.599142  0  0  -0.278447  0  3.607856  0  0  -0.366083  -0.250785  0  3.593079  0
N  N62  1  0.67097252  0.68649826  0.90143451  1  0  -0.316594  0  3.358413  0  0  -0.261524  0  3.598989  0  0  -0.278153  0  3.60771  0  0  -0.366014  -0.250515  0  3.592952  0
N  N63  1  0.82902572  0.18649205  0.59856805  1  0  -0.316715  0  3.358392  0  0  -0.261594  0  3.598961  0  0  -0.278212  0  3.607682  0  0  -0.366074  -0.250578  0  3.59291  0
O  O64  1  0.76129932  0.17215869  0.79630517  1  0  -0.582723  0  1.962468  0  0  -0.536505  0  2.179156  0  0  -0.560166  0  2.171478  0  0  -0.307803  -0.519805  0  2.183834  0
O  O65  1  0.73870056  0.67215947  0.70369304  1  0  -0.582754  0  1.962432  0  0  -0.536541  0  2.179144  0  0  -0.560198  0  2.171456  0  0  -0.307841  -0.519844  0  2.183823  0
O  O66  1  0.23867108  0.82783535  0.20369190  1  0  -0.582839  0  1.962426  0  0  -0.536611  0  2.179162  0  0  -0.560256  0  2.171452  0  0  -0.30784  -0.519914  0  2.183839  0
O  O67  1  0.26132464  0.32783102  0.29630702  1  0  -0.582884  0  1.962326  0  0  -0.53666  0  2.179065  0  0  -0.560302  0  2.171357  0  0  -0.307881  -0.519956  0  2.183741  0
O  O68  1  0.95193309  0.01730218  0.88140330  1  0  -0.672117  0  2.069416  0  0  -0.598826  0  2.350353  0  0  -0.628738  0  2.335229  0  0  -0.33726  -0.57772  0  2.359922  0
O  O69  1  0.54806560  0.51730604  0.61859552  1  0  -0.672179  0  2.06933  0  0  -0.598879  0  2.350293  0  0  -0.628793  0  2.335167  0  0  -0.337286  -0.577775  0  2.359862  0
O  O70  1  0.04804697  0.98269660  0.11859466  1  0  -0.672236  0  2.069568  0  0  -0.598911  0  2.350523  0  0  -0.628825  0  2.335398  0  0  -0.337237  -0.577806  0  2.360088  0
O  O71  1  0.45195313  0.48268919  0.38140488  1  0  -0.672233  0  2.069431  0  0  -0.59893  0  2.350423  0  0  -0.628844  0  2.335296  0  0  -0.337262  -0.577825  0  2.359997  0
O  O72  1  0.42869616  0.43106612  0.79474144  1  0  -0.615088  0  2.060596  0  0  -0.546257  0  2.334741  0  0  -0.575021  0  2.317473  0  0  -0.309195  -0.526274  0  2.346073  0
O  O73  1  0.07130465  0.93106726  0.70525788  1  0  -0.615182  0  2.060516  0  0  -0.546358  0  2.334664  0  0  -0.575124  0  2.317394  0  0  -0.309266  -0.526375  0  2.345997  0
O  O74  1  0.57129829  0.56893385  0.20526092  1  0  -0.61519  0  2.060431  0  0  -0.546327  0  2.334527  0  0  -0.575096  0  2.317259  0  0  -0.30927  -0.526339  0  2.345861  0
O  O75  1  0.92868502  0.06893152  0.29474265  1  0  -0.615155  0  2.060555  0  0  -0.546339  0  2.33472  0  0  -0.575107  0  2.317449  0  0  -0.30921  -0.52635  0  2.346062  0
O  O76  1  0.29010637  0.18754569  0.78428788  1  0  -0.648099  0  2.113137  0  0  -0.577668  0  2.393234  0  0  -0.6078  0  2.376645  0  0  -0.312669  -0.556625  0  2.40414  0
O  O77  1  0.20989102  0.68754729  0.71571067  1  0  -0.648053  0  2.113339  0  0  -0.577648  0  2.393446  0  0  -0.607776  0  2.376849  0  0  -0.31266  -0.556602  0  2.404357  0
O  O78  1  0.70987194  0.81245546  0.21571449  1  0  -0.648092  0  2.113583  0  0  -0.577667  0  2.393686  0  0  -0.607796  0  2.377088  0  0  -0.312644  -0.556627  0  2.404604  0
O  O79  1  0.79012621  0.31245741  0.28428577  1  0  -0.648107  0  2.113436  0  0  -0.577691  0  2.39355  0  0  -0.60782  0  2.376952  0  0  -0.312656  -0.556638  0  2.404466  0
