# generated using pymatgen
data_ZrHgH6(C2O5)3
_symmetry_space_group_name_H-M   'P 1'
_cell_length_a   8.87587363
_cell_length_b   10.16490676
_cell_length_c   16.79230000
_cell_angle_alpha   90.00000000
_cell_angle_beta   90.00000000
_cell_angle_gamma   105.47172225
_symmetry_Int_Tables_number   1
_chemical_formula_structural   ZrHgH6(C2O5)3
_chemical_formula_sum   'Zr4 Hg4 H24 C24 O60'
_cell_volume   1460.14032833
_cell_formula_units_Z   4
loop_
 _symmetry_equiv_pos_site_id
 _symmetry_equiv_pos_as_xyz
  1  'x, y, z'
loop_
 _atom_site_type_symbol
 _atom_site_label
 _atom_site_symmetry_multiplicity
 _atom_site_fract_x
 _atom_site_fract_y
 _atom_site_fract_z
 _atom_site_occupancy
 _atom_site_hle17_bader_spin_density
 _atom_site_hle17_ddec_charge
 _atom_site_hle17_ddec_spin_density
 _atom_site_hle17_ddec_sum_bond_order
 _atom_site_hle17_magmom
 _atom_site_hse06_10hf_bader_spin_density
 _atom_site_hse06_10hf_ddec_charge
 _atom_site_hse06_10hf_ddec_spin_density
 _atom_site_hse06_10hf_ddec_sum_bond_order
 _atom_site_hse06_10hf_magmom
 _atom_site_hse06_bader_spin_density
 _atom_site_hse06_ddec_charge
 _atom_site_hse06_ddec_spin_density
 _atom_site_hse06_ddec_sum_bond_order
 _atom_site_hse06_magmom
 _atom_site_pbe_bader_charge
 _atom_site_pbe_bader_spin_density
 _atom_site_pbe_cm5_charge
 _atom_site_pbe_ddec_charge
 _atom_site_pbe_ddec_spin_density
 _atom_site_pbe_ddec_sum_bond_order
 _atom_site_pbe_magmom
Zr  Zr0  1  0.19643901  0.89257311  0.40833358  1  0  2.369327  0  2.296138  0  0  2.271422  0  2.700179  0  0  2.36426  0  2.643381  0  2.641393  0  1.623441  2.205841  0  2.739046  0
Zr  Zr1  1  0.80356785  0.60743303  0.90833358  1  0  2.369297  0  2.296127  0  0  2.271396  0  2.700173  0  0  2.364233  0  2.643377  0  2.641447  0  1.623425  2.205815  0  2.739037  0
Zr  Zr2  1  0.80355982  0.10742860  0.59166642  1  0  2.369361  0  2.296048  0  0  2.27149  0  2.700074  0  0  2.364326  0  2.643276  0  2.641359  0  1.623484  2.205908  0  2.738938  0
Zr  Zr3  1  0.19643342  0.39256562  0.09166523  1  0  2.36936  0  2.296083  0  0  2.271474  0  2.700112  0  0  2.36431  0  2.643315  0  2.641423  0  1.623486  2.205892  0  2.738977  0
Hg  Hg4  1  0.43865806  0.52425275  0.63147216  1  0  1.084534  0  1.651881  0  0  0.918915  0  2.098546  0  0  0.992239  0  2.045087  0  1.152497  0  0.688854  0.864864  0  2.135341  0
Hg  Hg5  1  0.56133717  0.97574114  0.13146919  1  0  1.084533  0  1.651918  0  0  0.9189  0  2.098593  0  0  0.992226  0  2.04513  0  1.152344  0  0.688864  0.864844  0  2.135388  0
Hg  Hg6  1  0.56133901  0.47574692  0.36852903  1  0  1.084557  0  1.65185  0  0  0.91894  0  2.098509  0  0  0.992262  0  2.04505  0  1.152497  0  0.688857  0.864886  0  2.135304  0
Hg  Hg7  1  0.43866266  0.02425649  0.86853141  1  0  1.084549  0  1.651897  0  0  0.918927  0  2.09856  0  0  0.992249  0  2.045101  0  1.152457  0  0.688855  0.864872  0  2.135354  0
H  H8  1  0.41950742  0.50107522  0.80575085  1  0  0.421164  0  0.876857  0  0  0.390796  0  0.940727  0  0  0.402121  0  0.92423  0  0.642304  0  0.287968  0.382558  0  0.95276  0
H  H9  1  0.58049543  0.99892889  0.30574847  1  0  0.421174  0  0.876767  0  0  0.390779  0  0.940752  0  0  0.402104  0  0.924257  0  0.642393  0  0.287934  0.382543  0  0.952783  0
H  H10  1  0.58049591  0.49892650  0.19425034  1  0  0.421198  0  0.87673  0  0  0.390808  0  0.940707  0  0  0.402134  0  0.924208  0  0.642331  0  0.287964  0.38257  0  0.95274  0
H  H11  1  0.41950790  0.00107283  0.69425094  1  0  0.421123  0  0.876824  0  0  0.390729  0  0.94082  0  0  0.402052  0  0.924328  0  0.642316  0  0.287907  0.382493  0  0.952849  0
H  H12  1  0.32539353  0.60770047  0.78957617  1  0  0.423462  0  0.868861  0  0  0.394744  0  0.927978  0  0  0.40584  0  0.911971  0  0.636722  0  0.289124  0.386634  0  0.939696  0
H  H13  1  0.67461239  0.89230261  0.28957617  1  0  0.423439  0  0.868895  0  0  0.394721  0  0.928015  0  0  0.405817  0  0.912007  0  0.637217  0  0.289093  0.38661  0  0.939735  0
H  H14  1  0.67461061  0.39230022  0.21042502  1  0  0.423461  0  0.868861  0  0  0.394727  0  0.928007  0  0  0.405825  0  0.911998  0  0.6372  0  0.28911  0.386616  0  0.939729  0
H  H15  1  0.32539001  0.10769604  0.71042561  1  0  0.423502  0  0.868814  0  0  0.394762  0  0.927966  0  0  0.405859  0  0.911956  0  0.636803  0  0.289103  0.386653  0  0.939683  0
H  H16  1  0.23222727  0.99953216  0.24904688  1  0  0.452912  0  0.840734  0  0  0.419962  0  0.905721  0  0  0.432286  0  0.888009  0  0.663973  0  0.307207  0.411149  0  0.918418  0
H  H17  1  0.76777351  0.50046888  0.74904808  1  0  0.452954  0  0.840674  0  0  0.420012  0  0.905647  0  0  0.432333  0  0.88794  0  0.663793  0  0.307233  0.411202  0  0.91834  0
H  H18  1  0.76777380  0.00046955  0.75095312  1  0  0.45292  0  0.840728  0  0  0.419972  0  0.905712  0  0  0.432294  0  0.888001  0  0.664064  0  0.307218  0.41116  0  0.918407  0
H  H19  1  0.23222519  0.49952875  0.25095133  1  0  0.45298  0  0.84065  0  0  0.420019  0  0.905653  0  0  0.432342  0  0.88794  0  0.663795  0  0.307239  0.411211  0  0.918344  0
H  H20  1  0.06594506  0.00696265  0.28275221  1  0  0.459519  0  0.776394  0  0  0.442247  0  0.825181  0  0  0.451646  0  0.815144  0  0.637668  0  0.343938  0.435558  0  0.832431  0
H  H21  1  0.93405755  0.49304382  0.78275400  1  0  0.459587  0  0.776283  0  0  0.442318  0  0.825067  0  0  0.451717  0  0.815028  0  0.63772  0  0.343989  0.43563  0  0.832314  0
H  H22  1  0.93405632  0.99304008  0.71724600  1  0  0.459536  0  0.776368  0  0  0.442264  0  0.825158  0  0  0.451663  0  0.815118  0  0.637697  0  0.343958  0.435575  0  0.832407  0
H  H23  1  0.06594209  0.50695688  0.21724540  1  0  0.459573  0  0.776291  0  0  0.442304  0  0.825073  0  0  0.451702  0  0.815037  0  0.63771  0  0.34399  0.435616  0  0.832318  0
H  H24  1  0.13102537  0.98257722  0.56764291  1  0  0.470178  0  0.811926  0  0  0.436025  0  0.878171  0  0  0.449096  0  0.85907  0  0.673594  0  0.313709  0.426774  0  0.891715  0
H  H25  1  0.86897705  0.51742178  0.06764231  1  0  0.470137  0  0.811985  0  0  0.435987  0  0.878223  0  0  0.449056  0  0.859125  0  0.673608  0  0.313695  0.426736  0  0.891767  0
H  H26  1  0.86898247  0.01742450  0.43235888  1  0  0.470149  0  0.811969  0  0  0.436004  0  0.878202  0  0  0.449074  0  0.859102  0  0.673579  0  0.313697  0.426752  0  0.891746  0
H  H27  1  0.13102227  0.48257789  0.93235769  1  0  0.470125  0  0.811998  0  0  0.435969  0  0.878249  0  0  0.449039  0  0.85915  0  0.67359  0  0.313688  0.426718  0  0.891792  0
H  H28  1  0.22033281  0.86135499  0.57566921  1  0  0.481166  0  0.760581  0  0  0.456804  0  0.819896  0  0  0.467634  0  0.804069  0  0.660986  0  0.343593  0.449128  0  0.830569  0
H  H29  1  0.77966898  0.63864197  0.07566861  1  0  0.481258  0  0.760445  0  0  0.456907  0  0.819747  0  0  0.467735  0  0.80392  0  0.661067  0  0.343644  0.44923  0  0.830416  0
H  H30  1  0.77967040  0.13864264  0.42433020  1  0  0.481234  0  0.76046  0  0  0.456874  0  0.819789  0  0  0.467704  0  0.80396  0  0.661066  0  0.343632  0.449198  0  0.830447  0
H  H31  1  0.22033147  0.36135771  0.92433020  1  0  0.481217  0  0.760495  0  0  0.456865  0  0.819805  0  0  0.467694  0  0.803976  0  0.661046  0  0.343621  0.449188  0  0.830468  0
C  C32  1  0.39556386  0.69596621  0.43316461  1  0  0.573516  0  3.86486  0  0  0.526381  0  4.164314  0  0  0.559198  0  4.155983  0  1.629189  0  0.222468  0.503937  0  4.16974  0
C  C33  1  0.60444318  0.80403687  0.93316639  1  0  0.573653  0  3.864558  0  0  0.526469  0  4.164067  0  0  0.55929  0  4.155726  0  1.629373  0  0.222514  0.504021  0  4.169497  0
C  C34  1  0.60443740  0.30403244  0.56683599  1  0  0.573524  0  3.86459  0  0  0.526387  0  4.164063  0  0  0.559198  0  4.155742  0  1.6292  0  0.222505  0.503935  0  4.169497  0
C  C35  1  0.39555921  0.19596178  0.06683480  1  0  0.573602  0  3.864499  0  0  0.526396  0  4.164083  0  0  0.559219  0  4.15574  0  1.629395  0  0.222482  0.503943  0  4.169519  0
C  C36  1  0.34894282  0.68090785  0.34411486  1  0  0.571021  0  3.848854  0  0  0.521381  0  4.148536  0  0  0.554212  0  4.138927  0  1.584002  0  0.226222  0.498848  0  4.154809  0
C  C37  1  0.65105747  0.81909523  0.84411665  1  0  0.5709  0  3.84905  0  0  0.521301  0  4.148683  0  0  0.554126  0  4.139071  0  1.585096  0  0.226206  0.498771  0  4.154958  0
C  C38  1  0.65105075  0.31908774  0.65588514  1  0  0.571025  0  3.848895  0  0  0.521366  0  4.148639  0  0  0.554197  0  4.139024  0  1.584962  0  0.226251  0.498839  0  4.154917  0
C  C39  1  0.34894411  0.18090444  0.15588335  1  0  0.570802  0  3.849034  0  0  0.521179  0  4.148755  0  0  0.554007  0  4.139147  0  1.58406  0  0.226159  0.498647  0  4.15503  0
C  C40  1  0.69065095  0.79673839  0.59867797  1  0  0.546637  0  3.894201  0  0  0.501163  0  4.198949  0  0  0.533006  0  4.191183  0  1.590429  0  0.211322  0.479469  0  4.203546  0
C  C41  1  0.30933989  0.70325959  0.09867737  1  0  0.546753  0  3.893887  0  0  0.501203  0  4.198797  0  0  0.533045  0  4.191032  0  1.590802  0  0.21134  0.479509  0  4.203394  0
C  C42  1  0.30934092  0.20326639  0.40132382  1  0  0.547075  0  3.893689  0  0  0.501488  0  4.198678  0  0  0.533359  0  4.190869  0  1.590815  0  0.211415  0.479794  0  4.203278  0
C  C43  1  0.69065668  0.29674212  0.90132203  1  0  0.546792  0  3.893984  0  0  0.501274  0  4.198848  0  0  0.533121  0  4.191078  0  1.590499  0  0.211374  0.47958  0  4.203444  0
C  C44  1  0.54476834  0.84402543  0.62323505  1  0  0.554556  0  3.891795  0  0  0.503691  0  4.201963  0  0  0.53549  0  4.193809  0  1.575153  0  0.214503  0.481789  0  4.206767  0
C  C45  1  0.45522043  0.65596949  0.12323803  1  0  0.554699  0  3.891459  0  0  0.503741  0  4.201823  0  0  0.53554  0  4.193676  0  1.574926  0  0.214586  0.48184  0  4.206627  0
C  C46  1  0.45521921  0.15597629  0.37676197  1  0  0.554551  0  3.891422  0  0  0.503537  0  4.201958  0  0  0.535327  0  4.193804  0  1.574832  0  0.214474  0.481635  0  4.206765  0
C  C47  1  0.54477695  0.34403120  0.87676137  1  0  0.554599  0  3.891497  0  0  0.503633  0  4.201887  0  0  0.53543  0  4.193741  0  1.575233  0  0.214532  0.481733  0  4.206689  0
C  C48  1  0.15866786  0.22740141  0.61495507  1  0  0.561036  0  3.863189  0  0  0.51294  0  4.164453  0  0  0.543417  0  4.15701  0  1.586579  0  0.225116  0.492186  0  4.168685  0
C  C49  1  0.84131993  0.27258975  0.11495447  1  0  0.560818  0  3.863413  0  0  0.512789  0  4.16451  0  0  0.543245  0  4.157102  0  1.586667  0  0.224996  0.492038  0  4.168739  0
C  C50  1  0.84132470  0.77259826  0.38504255  1  0  0.560971  0  3.863452  0  0  0.513007  0  4.164501  0  0  0.543485  0  4.157056  0  1.586163  0  0.225119  0.492255  0  4.168734  0
C  C51  1  0.15868409  0.72740686  0.88504612  1  0  0.560754  0  3.863427  0  0  0.512765  0  4.164477  0  0  0.543228  0  4.157056  0  1.586627  0  0.224982  0.492015  0  4.168706  0
C  C52  1  0.09613147  0.35065803  0.59139010  1  0  0.568503  0  3.87196  0  0  0.522485  0  4.17265  0  0  0.555454  0  4.164501  0  1.622923  0  0.22277  0.499824  0  4.177863  0
C  C53  1  0.90386371  0.14933518  0.09138831  1  0  0.568422  0  3.871999  0  0  0.52246  0  4.172533  0  0  0.555435  0  4.164387  0  1.622882  0  0.222727  0.4998  0  4.177746  0
C  C54  1  0.90386879  0.64934471  0.40861169  1  0  0.568541  0  3.871608  0  0  0.522468  0  4.172322  0  0  0.555436  0  4.164177  0  1.622972  0  0.222813  0.499808  0  4.177532  0
C  C55  1  0.09613825  0.85065837  0.90861228  1  0  0.56872  0  3.871712  0  0  0.522726  0  4.172285  0  0  0.555699  0  4.164133  0  1.622832  0  0.222856  0.500065  0  4.1775  0
O  O56  1  0.46627080  0.61951585  0.46497800  1  0  -0.51797  0  2.080254  0  0  -0.465984  0  2.328804  0  0  -0.497798  0  2.324181  0  -1.092247  0  -0.260034  -0.443916  0  2.331376  0
O  O57  1  0.53373481  0.88048621  0.96498216  1  0  -0.518084  0  2.080164  0  0  -0.466057  0  2.328718  0  0  -0.497872  0  2.324092  0  -1.092464  0  -0.260086  -0.443989  0  2.331292  0
O  O58  1  0.53372721  0.38048688  0.53502022  1  0  -0.518068  0  2.079999  0  0  -0.466076  0  2.32855  0  0  -0.49789  0  2.323931  0  -1.092257  0  -0.260119  -0.444005  0  2.331125  0
O  O59  1  0.46626840  0.11951142  0.03501962  1  0  -0.518079  0  2.080102  0  0  -0.466054  0  2.328685  0  0  -0.497873  0  2.32406  0  -1.092528  0  -0.260097  -0.443985  0  2.331263  0
O  O60  1  0.35174253  0.79201121  0.46834144  1  0  -0.640643  0  2.080328  0  0  -0.600328  0  2.330781  0  0  -0.631426  0  2.323202  0  -1.149204  0  -0.365108  -0.578899  0  2.335783  0
O  O61  1  0.64827345  0.70799901  0.96834204  1  0  -0.640656  0  2.080237  0  0  -0.600357  0  2.330741  0  0  -0.631455  0  2.323156  0  -1.149246  0  -0.365133  -0.578921  0  2.335738  0
O  O62  1  0.64826861  0.20799765  0.53165737  1  0  -0.640604  0  2.08033  0  0  -0.600286  0  2.330782  0  0  -0.631382  0  2.323204  0  -1.149221  0  -0.365097  -0.578845  0  2.335778  0
O  O63  1  0.35172863  0.29199862  0.03165618  1  0  -0.640617  0  2.080251  0  0  -0.600294  0  2.330754  0  0  -0.631394  0  2.32317  0  -1.149217  0  -0.365123  -0.578854  0  2.335752  0
O  O64  1  0.27877501  0.76718820  0.31877587  1  0  -0.619279  0  2.053748  0  0  -0.582659  0  2.301366  0  0  -0.612552  0  2.293937  0  -1.146689  0  -0.352991  -0.561548  0  2.30633  0
O  O65  1  0.72122271  0.73281386  0.81877646  1  0  -0.619176  0  2.053787  0  0  -0.582561  0  2.301387  0  0  -0.612454  0  2.293963  0  -1.146691  0  -0.352921  -0.561449  0  2.306347  0
O  O66  1  0.72121281  0.23280331  0.68122473  1  0  -0.619203  0  2.053732  0  0  -0.582597  0  2.301364  0  0  -0.612486  0  2.29393  0  -1.146811  0  -0.353013  -0.561486  0  2.306328  0
O  O67  1  0.27877918  0.26718683  0.18122235  1  0  -0.619121  0  2.05381  0  0  -0.582525  0  2.301453  0  0  -0.612419  0  2.294027  0  -1.146662  0  -0.352941  -0.561414  0  2.306416  0
O  O68  1  0.37648075  0.58693194  0.30266729  1  0  -0.548425  0  2.098241  0  0  -0.481755  0  2.326226  0  0  -0.511731  0  2.317757  0  -1.128718  0  -0.267712  -0.46039  0  2.331867  0
O  O69  1  0.62352179  0.91307114  0.80267265  1  0  -0.548366  0  2.098387  0  0  -0.481716  0  2.32634  0  0  -0.511693  0  2.317894  0  -1.129734  0  -0.267747  -0.460355  0  2.331982  0
O  O70  1  0.62351333  0.41306161  0.69733211  1  0  -0.548455  0  2.098306  0  0  -0.481785  0  2.326296  0  0  -0.511767  0  2.317852  0  -1.129526  0  -0.26774  -0.460431  0  2.331943  0
O  O71  1  0.37648554  0.08693262  0.19732973  1  0  -0.548372  0  2.098394  0  0  -0.481695  0  2.326348  0  0  -0.51167  0  2.317884  0  -1.1287  0  -0.267699  -0.460323  0  2.331982  0
O  O72  1  0.80708684  0.89525161  0.57571685  1  0  -0.658612  0  2.067261  0  0  -0.620431  0  2.31744  0  0  -0.650767  0  2.308892  0  -1.165844  0  -0.375144  -0.599045  0  2.322523  0
O  O73  1  0.19290562  0.60474433  0.07571804  1  0  -0.658743  0  2.067155  0  0  -0.620467  0  2.317331  0  0  -0.650803  0  2.308783  0  -1.166001  0  -0.375157  -0.599081  0  2.322415  0
O  O74  1  0.19290797  0.10474807  0.42428375  1  0  -0.658794  0  2.067151  0  0  -0.620493  0  2.317332  0  0  -0.650841  0  2.308772  0  -1.165944  0  -0.37514  -0.599106  0  2.322416  0
O  O75  1  0.80709114  0.39525432  0.92428077  1  0  -0.658697  0  2.067239  0  0  -0.62043  0  2.317404  0  0  -0.650767  0  2.308854  0  -1.165954  0  -0.37514  -0.599045  0  2.322488  0
O  O76  1  0.69152515  0.67500271  0.60303949  1  0  -0.479479  0  2.020684  0  0  -0.431065  0  2.251062  0  0  -0.458897  0  2.24384  0  -1.064557  0  -0.261326  -0.410812  0  2.255195  0
O  O77  1  0.30846650  0.82499424  0.10303889  1  0  -0.479541  0  2.02058  0  0  -0.431103  0  2.251009  0  0  -0.458936  0  2.243786  0  -1.064547  0  -0.261383  -0.410852  0  2.255145  0
O  O78  1  0.30846691  0.32499900  0.39696289  1  0  -0.479699  0  2.020536  0  0  -0.431244  0  2.250988  0  0  -0.459086  0  2.243748  0  -1.06471  0  -0.261405  -0.410993  0  2.255125  0
O  O79  1  0.69153170  0.17500543  0.89696111  1  0  -0.479587  0  2.020615  0  0  -0.431161  0  2.251031  0  0  -0.458996  0  2.243808  0  -1.064573  0  -0.261404  -0.410909  0  2.255165  0
O  O80  1  0.56954292  0.97563906  0.62327078  1  0  -0.690749  0  2.117692  0  0  -0.642848  0  2.364519  0  0  -0.674363  0  2.357048  0  -1.152706  0  -0.360721  -0.620669  0  2.369311  0
O  O81  1  0.43045036  0.52435585  0.12327198  1  0  -0.69079  0  2.117546  0  0  -0.642865  0  2.364441  0  0  -0.674382  0  2.356967  0  -1.152823  0  -0.360761  -0.620688  0  2.369232  0
O  O82  1  0.43045346  0.02436571  0.37672564  1  0  -0.690722  0  2.117629  0  0  -0.642765  0  2.364545  0  0  -0.674283  0  2.35708  0  -1.152634  0  -0.360689  -0.620586  0  2.369336  0
O  O83  1  0.56954608  0.47564178  0.87672802  1  0  -0.690742  0  2.117526  0  0  -0.642816  0  2.364408  0  0  -0.674332  0  2.356945  0  -1.152833  0  -0.360748  -0.62064  0  2.369198  0
O  O84  1  0.41888943  0.76216092  0.64179773  1  0  -0.5027  0  2.006192  0  0  -0.450913  0  2.238085  0  0  -0.478075  0  2.229565  0  -1.112514  0  -0.264901  -0.431091  0  2.24302  0
O  O85  1  0.58110191  0.73783502  0.14180071  1  0  -0.502774  0  2.006135  0  0  -0.450923  0  2.238039  0  0  -0.478089  0  2.229523  0  -1.112318  0  -0.264905  -0.431089  0  2.242949  0
O  O86  1  0.58110194  0.23784590  0.35819751  1  0  -0.502778  0  2.00603  0  0  -0.450903  0  2.237962  0  0  -0.47807  0  2.229448  0  -1.112452  0  -0.264927  -0.431082  0  2.2429  0
O  O87  1  0.41889454  0.26216261  0.85819810  1  0  -0.502705  0  2.006096  0  0  -0.450898  0  2.238068  0  0  -0.478062  0  2.229556  0  -1.112455  0  -0.26489  -0.431064  0  2.242979  0
O  O88  1  0.34043227  0.52058718  0.76950388  1  0  -0.804899  0  1.824885  0  0  -0.752604  0  1.998743  0  0  -0.776492  0  1.96451  0  -1.221846  0  -0.577756  -0.736118  0  2.023219  0
O  O89  1  0.65956964  0.97941386  0.26950150  1  0  -0.804886  0  1.824772  0  0  -0.752579  0  1.998671  0  0  -0.776469  0  1.964433  0  -1.222384  0  -0.577695  -0.736093  0  2.023146  0
O  O90  1  0.65957218  0.47941454  0.23049672  1  0  -0.804924  0  1.82472  0  0  -0.752618  0  1.998641  0  0  -0.776504  0  1.964391  0  -1.222361  0  -0.577743  -0.736131  0  2.023117  0
O  O91  1  0.34043244  0.02058377  0.73049850  1  0  -0.804905  0  1.824769  0  0  -0.752563  0  1.998676  0  0  -0.776462  0  1.964461  0  -1.221943  0  -0.577684  -0.736078  0  2.02315  0
O  O92  1  0.05838226  0.11032656  0.60019711  1  0  -0.691823  0  2.104462  0  0  -0.63826  0  2.345903  0  0  -0.669202  0  2.336339  0  -1.185795  0  -0.354546  -0.616823  0  2.352035  0
O  O93  1  0.94161405  0.38966664  0.10019711  1  0  -0.691634  0  2.104359  0  0  -0.638094  0  2.345747  0  0  -0.669031  0  2.336194  0  -1.185766  0  -0.35445  -0.616661  0  2.35188  0
O  O94  1  0.94161994  0.88967516  0.39980169  1  0  -0.691809  0  2.104421  0  0  -0.638305  0  2.345809  0  0  -0.669252  0  2.336246  0  -1.185373  0  -0.354538  -0.616868  0  2.351942  0
O  O95  1  0.05838772  0.61032997  0.89980229  1  0  -0.691654  0  2.104382  0  0  -0.638125  0  2.345756  0  0  -0.669065  0  2.336198  0  -1.185738  0  -0.354443  -0.616693  0  2.351892  0
O  O96  1  0.28826224  0.24341520  0.64653502  1  0  -0.524276  0  2.032183  0  0  -0.472345  0  2.25193  0  0  -0.498086  0  2.24536  0  -1.134318  0  -0.26409  -0.454091  0  2.255806  0
O  O97  1  0.71173275  0.25658106  0.14653025  1  0  -0.524233  0  2.032393  0  0  -0.472327  0  2.252096  0  0  -0.498061  0  2.245536  0  -1.134473  0  -0.264083  -0.454073  0  2.255971  0
O  O98  1  0.71174284  0.75658855  0.35346855  1  0  -0.524253  0  2.032548  0  0  -0.472354  0  2.252217  0  0  -0.498095  0  2.245643  0  -1.134418  0  -0.264123  -0.454104  0  2.256096  0
O  O99  1  0.28827415  0.74341759  0.85347213  1  0  -0.524216  0  2.032346  0  0  -0.472309  0  2.252002  0  0  -0.498042  0  2.245439  0  -1.134572  0  -0.264064  -0.454056  0  2.255876  0
O  O100  1  0.18101977  0.47033481  0.58991681  1  0  -0.479141  0  2.012462  0  0  -0.422965  0  2.244141  0  0  -0.452868  0  2.235168  0  -1.072264  0  -0.258205  -0.40246  0  2.249852  0
O  O101  1  0.81897654  0.02965839  0.08991562  1  0  -0.479008  0  2.012515  0  0  -0.422877  0  2.244185  0  0  -0.452781  0  2.23521  0  -1.072304  0  -0.25813  -0.402372  0  2.249895  0
O  O102  1  0.81897699  0.52966384  0.41008557  1  0  -0.479203  0  2.012183  0  0  -0.42304  0  2.243911  0  0  -0.452942  0  2.234932  0  -1.072233  0  -0.258283  -0.402533  0  2.249622  0
O  O103  1  0.18102717  0.97033720  0.91008617  1  0  -0.47923  0  2.012348  0  0  -0.423092  0  2.244034  0  0  -0.452997  0  2.235058  0  -1.072199  0  -0.258249  -0.402587  0  2.249748  0
O  O104  1  0.94945122  0.31685838  0.57593599  1  0  -0.646054  0  2.069105  0  0  -0.606561  0  2.309591  0  0  -0.636658  0  2.30055  0  -1.162864  0  -0.359531  -0.585734  0  2.315346  0
O  O105  1  0.05054345  0.18313686  0.07593421  1  0  -0.646049  0  2.069091  0  0  -0.606582  0  2.309543  0  0  -0.636678  0  2.300502  0  -1.162807  0  -0.359547  -0.585754  0  2.315296  0
O  O106  1  0.05054484  0.68314537  0.42406877  1  0  -0.645972  0  2.069113  0  0  -0.606466  0  2.309619  0  0  -0.636563  0  2.300584  0  -1.162845  0  -0.359477  -0.585638  0  2.315369  0
O  O107  1  0.94946057  0.81685975  0.92406520  1  0  -0.646062  0  2.069063  0  0  -0.606593  0  2.309538  0  0  -0.636688  0  2.300495  0  -1.162734  0  -0.359527  -0.585766  0  2.315291  0
O  O108  1  0.14065965  0.95206138  0.28366394  1  0  -0.85965  0  1.879676  0  0  -0.818284  0  2.068297  0  0  -0.841546  0  2.039241  0  -1.243651  0  -0.599062  -0.801663  0  2.088262  0
O  O109  1  0.85934126  0.54794374  0.78366394  1  0  -0.859753  0  1.879542  0  0  -0.818398  0  2.06816  0  0  -0.841658  0  2.039105  0  -1.243485  0  -0.599133  -0.801778  0  2.088122  0
O  O110  1  0.85934030  0.04794033  0.71633546  1  0  -0.859707  0  1.879655  0  0  -0.818339  0  2.068266  0  0  -0.841601  0  2.039211  0  -1.243701  0  -0.599105  -0.801719  0  2.088232  0
O  O111  1  0.14065663  0.45205491  0.21633487  1  0  -0.859759  0  1.879498  0  0  -0.818392  0  2.068127  0  0  -0.841653  0  2.039074  0  -1.243443  0  -0.599152  -0.801776  0  2.08808  0
O  O112  1  0.17608213  0.91549852  0.53877134  1  0  -0.873859  0  1.861019  0  0  -0.83199  0  2.06688  0  0  -0.855457  0  2.029969  0  -1.264193  0  -0.599086  -0.815341  0  2.091789  0
O  O113  1  0.82392654  0.58450252  0.03877075  1  0  -0.873935  0  1.860988  0  0  -0.832077  0  2.066862  0  0  -0.855543  0  2.02995  0  -1.264271  0  -0.599121  -0.815427  0  2.091766  0
O  O114  1  0.82392539  0.08450217  0.46122985  1  0  -0.873929  0  1.860992  0  0  -0.832062  0  2.066859  0  0  -0.855526  0  2.029938  0  -1.264248  0  -0.59912  -0.815413  0  2.091756  0
O  O115  1  0.17607504  0.41549716  0.96122866  1  0  -0.873899  0  1.861027  0  0  -0.832039  0  2.066908  0  0  -0.855505  0  2.02999  0  -1.264258  0  -0.599108  -0.81539  0  2.091809  0
