# generated using pymatgen
data_NdH6C7SO8
_symmetry_space_group_name_H-M   'P 1'
_cell_length_a   8.17544223
_cell_length_b   8.30849053
_cell_length_c   18.28745982
_cell_angle_alpha   90.00001586
_cell_angle_beta   89.99979208
_cell_angle_gamma   110.32099987
_symmetry_Int_Tables_number   1
_chemical_formula_structural   NdH6C7SO8
_chemical_formula_sum   'Nd4 H24 C28 S4 O32'
_cell_volume   1164.87484171
_cell_formula_units_Z   4
loop_
 _symmetry_equiv_pos_site_id
 _symmetry_equiv_pos_as_xyz
  1  'x, y, z'
loop_
 _atom_site_type_symbol
 _atom_site_label
 _atom_site_symmetry_multiplicity
 _atom_site_fract_x
 _atom_site_fract_y
 _atom_site_fract_z
 _atom_site_occupancy
 _atom_site_hle17_bader_spin_density
 _atom_site_hle17_ddec_charge
 _atom_site_hle17_ddec_spin_density
 _atom_site_hle17_ddec_sum_bond_order
 _atom_site_hle17_magmom
 _atom_site_hse06_10hf_bader_spin_density
 _atom_site_hse06_10hf_ddec_charge
 _atom_site_hse06_10hf_ddec_spin_density
 _atom_site_hse06_10hf_ddec_sum_bond_order
 _atom_site_hse06_10hf_magmom
 _atom_site_hse06_bader_spin_density
 _atom_site_hse06_ddec_charge
 _atom_site_hse06_ddec_spin_density
 _atom_site_hse06_ddec_sum_bond_order
 _atom_site_hse06_magmom
 _atom_site_pbe_bader_spin_density
 _atom_site_pbe_cm5_charge
 _atom_site_pbe_ddec_charge
 _atom_site_pbe_ddec_spin_density
 _atom_site_pbe_ddec_sum_bond_order
 _atom_site_pbe_magmom
Nd  Nd0  1  0.74128783  0.21845404  0.52007546  1  0  2.331589  0  1.632855  0  0  2.223471  0  2.002958  0  0  2.26449  0  1.958424  0  0  1.486755  2.140974  0  2.133092  0
Nd  Nd1  1  0.75871817  0.78155586  0.02007493  1  0  2.331585  0  1.632865  0  0  2.22347  0  2.002972  0  0  2.264486  0  1.958438  0  0  1.486725  2.140944  0  2.133136  0
Nd  Nd2  1  0.25871379  0.78155096  0.47992598  1  0  2.331566  0  1.632875  0  0  2.223442  0  2.002988  0  0  2.264458  0  1.958455  0  0  1.486731  2.140936  0  2.133125  0
Nd  Nd3  1  0.24128344  0.21844914  0.97992541  1  0  2.331547  0  1.632887  0  0  2.223425  0  2.002997  0  0  2.264442  0  1.958463  0  0  1.486731  2.140903  0  2.133168  0
H  H4  1  0.50075374  0.24383142  0.65119830  1  0  0.440394  0  0.807687  0  0  0.425947  0  0.856581  0  0  0.433466  0  0.845765  0  0  0.335453  0.42036  0  0.863566  0
H  H5  1  0.99924810  0.75614984  0.15119847  1  0  0.44041  0  0.807647  0  0  0.425967  0  0.856552  0  0  0.433485  0  0.845737  0  0  0.335467  0.420379  0  0.863525  0
H  H6  1  0.49925031  0.75615679  0.34880314  1  0  0.440435  0  0.807623  0  0  0.42599  0  0.856521  0  0  0.433508  0  0.845705  0  0  0.335476  0.420402  0  0.863501  0
H  H7  1  0.00074996  0.24383199  0.84880188  1  0  0.440435  0  0.807573  0  0  0.425975  0  0.856539  0  0  0.433495  0  0.845718  0  0  0.335443  0.420387  0  0.863489  0
H  H8  1  0.37494946  0.16726764  0.58262409  1  0  0.446348  0  0.849748  0  0  0.413394  0  0.915385  0  0  0.425633  0  0.897381  0  0  0.303533  0.404652  0  0.928032  0
H  H9  1  0.12504597  0.83273221  0.08262378  1  0  0.446413  0  0.849667  0  0  0.413461  0  0.9153  0  0  0.4257  0  0.897296  0  0  0.303563  0.404719  0  0.92795  0
H  H10  1  0.62504832  0.83273355  0.41737626  1  0  0.446366  0  0.849728  0  0  0.413413  0  0.915363  0  0  0.425651  0  0.89736  0  0  0.303539  0.404674  0  0.928008  0
H  H11  1  0.87494984  0.16727029  0.91737766  1  0  0.44636  0  0.84973  0  0  0.413411  0  0.915357  0  0  0.42565  0  0.897354  0  0  0.303538  0.404671  0  0.928004  0
H  H12  1  0.77720508  0.60562559  0.48744654  1  0  0.446299  0  0.84689  0  0  0.416826  0  0.906597  0  0  0.427755  0  0.890595  0  0  0.308414  0.408925  0  0.917971  0
H  H13  1  0.72278665  0.39437557  0.98744822  1  0  0.446218  0  0.847013  0  0  0.416762  0  0.906687  0  0  0.427689  0  0.890689  0  0  0.308364  0.408858  0  0.918064  0
H  H14  1  0.22278933  0.39437306  0.51255271  1  0  0.446226  0  0.847003  0  0  0.416774  0  0.906669  0  0  0.4277  0  0.890672  0  0  0.308381  0.408872  0  0.918044  0
H  H15  1  0.27720167  0.60562316  0.01255158  1  0  0.446189  0  0.847056  0  0  0.416762  0  0.90667  0  0  0.427688  0  0.890676  0  0  0.308401  0.408859  0  0.918046  0
H  H16  1  0.61287490  0.51545565  0.53923845  1  0  0.439596  0  0.819506  0  0  0.416444  0  0.884354  0  0  0.424725  0  0.873602  0  0  0.322975  0.410358  0  0.890669  0
H  H17  1  0.88711501  0.48454411  0.03923876  1  0  0.439647  0  0.819364  0  0  0.416491  0  0.884223  0  0  0.424773  0  0.873519  0  0  0.322984  0.410406  0  0.89054  0
H  H18  1  0.38711829  0.48454302  0.46076190  1  0  0.439615  0  0.819427  0  0  0.416462  0  0.884278  0  0  0.424743  0  0.873566  0  0  0.322961  0.410375  0  0.890595  0
H  H19  1  0.11287377  0.51545590  0.96076159  1  0  0.43957  0  0.819468  0  0  0.416415  0  0.884332  0  0  0.424696  0  0.873627  0  0  0.322948  0.41033  0  0.890647  0
H  H20  1  0.36594274  0.55057767  0.61700998  1  0  0.124156  0  0.983341  0  0  0.134408  0  1.043427  0  0  0.137832  0  1.04086  0  0  0.113309  0.13203  0  1.045001  0
H  H21  1  0.13405201  0.44941436  0.11701070  1  0  0.124134  0  0.98347  0  0  0.134411  0  1.043518  0  0  0.137812  0  1.04099  0  0  0.113302  0.132033  0  1.0451  0
H  H22  1  0.63405082  0.44941197  0.38298654  1  0  0.124222  0  0.983443  0  0  0.13449  0  1.043474  0  0  0.137893  0  1.040948  0  0  0.113327  0.132112  0  1.045053  0
H  H23  1  0.86595720  0.55058796  0.88299074  1  0  0.124214  0  0.983474  0  0  0.134468  0  1.043533  0  0  0.13789  0  1.040987  0  0  0.11334  0.13209  0  1.045111  0
H  H24  1  0.31206964  0.38156865  0.74366237  1  0  0.118716  0  0.92655  0  0  0.131706  0  0.979491  0  0  0.13544  0  0.9771  0  0  0.113155  0.12889  0  0.981617  0
H  H25  1  0.18793204  0.61842167  0.24366030  1  0  0.118758  0  0.926565  0  0  0.131727  0  0.979528  0  0  0.135462  0  0.977136  0  0  0.113184  0.128899  0  0.981669  0
H  H26  1  0.68792542  0.61841838  0.25633524  1  0  0.118754  0  0.926581  0  0  0.131739  0  0.979517  0  0  0.135473  0  0.977126  0  0  0.113181  0.128926  0  0.98164  0
H  H27  1  0.81207305  0.38157942  0.75634060  1  0  0.118761  0  0.926553  0  0  0.131733  0  0.979505  0  0  0.135469  0  0.977111  0  0  0.113183  0.128885  0  0.981669  0
C  C28  1  0.55229287  0.76561217  0.67424906  1  0  -0.155101  0  3.717012  0  0  -0.136992  0  3.985974  0  0  -0.144722  0  4.006339  0  0  -0.024424  -0.132345  0  3.973359  0
C  C29  1  0.94771607  0.23438570  0.17425034  1  0  -0.155123  0  3.717035  0  0  -0.137006  0  3.986008  0  0  -0.144736  0  4.006369  0  0  -0.024406  -0.132357  0  3.973395  0
C  C30  1  0.44771137  0.23437990  0.32574801  1  0  -0.154931  0  3.716973  0  0  -0.136815  0  3.985947  0  0  -0.144542  0  4.006309  0  0  -0.024374  -0.13217  0  3.973337  0
C  C31  1  0.05230165  0.76561651  0.82575165  1  0  -0.154925  0  3.716871  0  0  -0.136805  0  3.985834  0  0  -0.144533  0  4.006199  0  0  -0.024378  -0.132169  0  3.973237  0
C  C32  1  0.43092894  0.60095089  0.66812036  1  0  -0.08176  0  3.75592  0  0  -0.116117  0  4.024589  0  0  -0.114786  0  4.042539  0  0  -0.096979  -0.116771  0  4.012606  0
C  C33  1  0.06907500  0.39904733  0.16812228  1  0  -0.081736  0  3.756097  0  0  -0.116109  0  4.024723  0  0  -0.114768  0  4.042697  0  0  -0.096911  -0.116764  0  4.012739  0
C  C34  1  0.56906509  0.39904003  0.33187780  1  0  -0.082046  0  3.756181  0  0  -0.116391  0  4.024793  0  0  -0.115056  0  4.042771  0  0  -0.097032  -0.117045  0  4.012814  0
C  C35  1  0.93094001  0.60095749  0.83187861  1  0  -0.082078  0  3.756199  0  0  -0.116437  0  4.024843  0  0  -0.115117  0  4.042813  0  0  -0.097082  -0.117088  0  4.012855  0
C  C36  1  0.40298477  0.51146708  0.73487049  1  0  -0.082958  0  3.752612  0  0  -0.112869  0  4.016874  0  0  -0.113421  0  4.035876  0  0  -0.096347  -0.11255  0  4.004633  0
C  C37  1  0.09700930  0.48853240  0.23487073  1  0  -0.083024  0  3.752716  0  0  -0.112912  0  4.016991  0  0  -0.113463  0  4.035984  0  0  -0.096385  -0.11258  0  4.004756  0
C  C38  1  0.59700944  0.48852771  0.26512658  1  0  -0.083014  0  3.752737  0  0  -0.112912  0  4.016986  0  0  -0.11346  0  4.035977  0  0  -0.096382  -0.112593  0  4.004747  0
C  C39  1  0.90299522  0.51147386  0.76513016  1  0  -0.082963  0  3.752673  0  0  -0.112847  0  4.01693  0  0  -0.113394  0  4.035921  0  0  -0.096366  -0.112499  0  4.004697  0
C  C40  1  0.50285910  0.60879272  0.79128448  1  0  -0.150969  0  3.707879  0  0  -0.131935  0  3.970996  0  0  -0.138792  0  3.992196  0  0  -0.019631  -0.1278  0  3.958143  0
C  C41  1  0.99715703  0.39120734  0.29128679  1  0  -0.150977  0  3.707815  0  0  -0.131983  0  3.970952  0  0  -0.138834  0  3.992147  0  0  -0.019707  -0.127849  0  3.958097  0
C  C42  1  0.49715356  0.39120569  0.20871313  1  0  -0.150901  0  3.707794  0  0  -0.131883  0  3.970979  0  0  -0.138737  0  3.992177  0  0  -0.019673  -0.127753  0  3.958129  0
C  C43  1  0.00285226  0.60878853  0.70871246  1  0  -0.150918  0  3.707762  0  0  -0.131905  0  3.970909  0  0  -0.138758  0  3.992099  0  0  -0.019645  -0.127771  0  3.958044  0
C  C44  1  0.60560247  0.90021651  0.61779449  1  0  0.687785  0  3.952543  0  0  0.642494  0  4.248652  0  0  0.67787  0  4.237082  0  0  0.205077  0.618669  0  4.250405  0
C  C45  1  0.89439526  0.09978294  0.11779475  1  0  0.687852  0  3.952399  0  0  0.642535  0  4.248548  0  0  0.677913  0  4.236977  0  0  0.20513  0.618706  0  4.250304  0
C  C46  1  0.39439296  0.09977825  0.38220531  1  0  0.687853  0  3.952375  0  0  0.642479  0  4.248619  0  0  0.677856  0  4.237051  0  0  0.205101  0.618653  0  4.250375  0
C  C47  1  0.10560954  0.90022073  0.88220615  1  0  0.688053  0  3.952245  0  0  0.642705  0  4.248439  0  0  0.678082  0  4.236866  0  0  0.2052  0.618879  0  4.250195  0
C  C48  1  0.49844590  0.55554911  0.86861780  1  0  0.745567  0  3.893314  0  0  0.699112  0  4.185855  0  0  0.735181  0  4.172621  0  0  0.234335  0.674238  0  4.191412  0
C  C49  1  0.00156675  0.44446396  0.36861765  1  0  0.745784  0  3.893052  0  0  0.69936  0  4.185551  0  0  0.735421  0  4.172325  0  0  0.234445  0.67449  0  4.191107  0
C  C50  1  0.50155740  0.44445716  0.13137926  1  0  0.745819  0  3.89327  0  0  0.699282  0  4.185948  0  0  0.73535  0  4.172713  0  0  0.234375  0.674408  0  4.191507  0
C  C51  1  0.99843674  0.55554617  0.63138160  1  0  0.745716  0  3.893227  0  0  0.699237  0  4.185806  0  0  0.735308  0  4.17256  0  0  0.234413  0.674367  0  4.191359  0
C  C52  1  0.07314899  0.07090273  0.52057470  1  0  0.584208  0  3.880144  0  0  0.535449  0  4.183658  0  0  0.565545  0  4.174231  0  0  0.234675  0.515271  0  4.184926  0
C  C53  1  0.42684352  0.92910118  0.02057829  1  0  0.584373  0  3.879779  0  0  0.535704  0  4.183148  0  0  0.565802  0  4.173716  0  0  0.23475  0.515521  0  4.184424  0
C  C54  1  0.92684363  0.92910110  0.47942455  1  0  0.584426  0  3.879826  0  0  0.535763  0  4.183187  0  0  0.565863  0  4.173752  0  0  0.234777  0.515574  0  4.184477  0
C  C55  1  0.57315051  0.07090650  0.97942971  1  0  0.584313  0  3.880184  0  0  0.535623  0  4.183569  0  0  0.56572  0  4.174142  0  0  0.234781  0.515446  0  4.18483  0
S  S56  1  0.63389852  0.80847859  0.76186587  1  0  0.192753  0  2.578511  0  0  0.184231  0  2.884471  0  0  0.184434  0  2.893618  0  0  0.115438  0.18329  0  2.879316  0
S  S57  1  0.86611029  0.19152422  0.26186727  1  0  0.192735  0  2.578459  0  0  0.184223  0  2.884416  0  0  0.184423  0  2.893561  0  0  0.11542  0.183285  0  2.879263  0
S  S58  1  0.36610515  0.19151865  0.23813065  1  0  0.192674  0  2.578477  0  0  0.184169  0  2.884441  0  0  0.184369  0  2.893587  0  0  0.115416  0.183235  0  2.879288  0
S  S59  1  0.13389788  0.80848199  0.73813362  1  0  0.192618  0  2.578411  0  0  0.184112  0  2.884377  0  0  0.184312  0  2.893521  0  0  0.115384  0.183178  0  2.879226  0
O  O60  1  0.51162653  0.88448612  0.55979034  1  0  -0.808253  0  2.070942  0  0  -0.760825  0  2.330035  0  0  -0.785297  0  2.317187  0  0  -0.421069  -0.732151  0  2.338584  0
O  O61  1  0.98837012  0.11550576  0.05979154  1  0  -0.808313  0  2.070889  0  0  -0.760895  0  2.330027  0  0  -0.78535  0  2.317144  0  0  -0.421133  -0.732216  0  2.338577  0
O  O62  1  0.48837106  0.11551120  0.44020837  1  0  -0.808335  0  2.070825  0  0  -0.760899  0  2.329994  0  0  -0.785355  0  2.317112  0  0  -0.421088  -0.732227  0  2.338545  0
O  O63  1  0.01163187  0.88449021  0.94021045  1  0  -0.808383  0  2.070821  0  0  -0.760942  0  2.329951  0  0  -0.785404  0  2.317083  0  0  -0.421091  -0.732263  0  2.3385  0
O  O64  1  0.74157489  0.03133589  0.62780228  1  0  -0.692037  0  1.949701  0  0  -0.653602  0  2.179854  0  0  -0.675141  0  2.167938  0  0  -0.380698  -0.633408  0  2.188851  0
O  O65  1  0.75841835  0.96866489  0.12780341  1  0  -0.692016  0  1.94964  0  0  -0.65356  0  2.179796  0  0  -0.675097  0  2.167867  0  0  -0.380693  -0.633362  0  2.188794  0
O  O66  1  0.25841811  0.96865891  0.37219752  1  0  -0.692051  0  1.949699  0  0  -0.653575  0  2.179883  0  0  -0.675116  0  2.167965  0  0  -0.38072  -0.633381  0  2.188881  0
O  O67  1  0.24158130  0.03134143  0.87219420  1  0  -0.692097  0  1.949633  0  0  -0.653625  0  2.179793  0  0  -0.675168  0  2.167877  0  0  -0.38072  -0.633429  0  2.188792  0
O  O68  1  0.38409092  0.41260813  0.88553549  1  0  -0.730998  0  2.028585  0  0  -0.684111  0  2.279173  0  0  -0.708072  0  2.265204  0  0  -0.408394  -0.659991  0  2.289972  0
O  O69  1  0.11593187  0.58739960  0.38553134  1  0  -0.731057  0  2.028377  0  0  -0.684173  0  2.278948  0  0  -0.708139  0  2.264997  0  0  -0.40846  -0.660054  0  2.289743  0
O  O70  1  0.61591509  0.58739552  0.11446595  1  0  -0.731138  0  2.02858  0  0  -0.684223  0  2.279214  0  0  -0.70818  0  2.265234  0  0  -0.408399  -0.660101  0  2.290015  0
O  O71  1  0.88407340  0.41260535  0.61446736  1  0  -0.731038  0  2.028396  0  0  -0.684138  0  2.278997  0  0  -0.708108  0  2.265041  0  0  -0.408461  -0.660019  0  2.28979  0
O  O72  1  0.60746542  0.65485869  0.91286990  1  0  -0.762445  0  2.055371  0  0  -0.721133  0  2.324185  0  0  -0.744185  0  2.308402  0  0  -0.417782  -0.696549  0  2.335603  0
O  O73  1  0.89255807  0.34516417  0.41287238  1  0  -0.762576  0  2.055545  0  0  -0.721258  0  2.324314  0  0  -0.744306  0  2.308531  0  0  -0.41778  -0.696681  0  2.335733  0
O  O74  1  0.39254603  0.34515650  0.08712716  1  0  -0.76254  0  2.055698  0  0  -0.721187  0  2.324535  0  0  -0.744238  0  2.308748  0  0  -0.417761  -0.696605  0  2.335955  0
O  O75  1  0.10745001  0.65484849  0.58712852  1  0  -0.762561  0  2.055562  0  0  -0.721242  0  2.324392  0  0  -0.744292  0  2.308601  0  0  -0.417789  -0.696665  0  2.335812  0
O  O76  1  0.05135522  0.21248762  0.53097913  1  0  -0.644816  0  2.082934  0  0  -0.595224  0  2.31327  0  0  -0.618218  0  2.302786  0  0  -0.333381  -0.574058  0  2.320768  0
O  O77  1  0.44863176  0.78750473  0.03097883  1  0  -0.644915  0  2.08278  0  0  -0.595369  0  2.313073  0  0  -0.618365  0  2.302586  0  0  -0.333392  -0.574197  0  2.320576  0
O  O78  1  0.94863338  0.78750853  0.46902177  1  0  -0.644972  0  2.082872  0  0  -0.595388  0  2.313162  0  0  -0.618384  0  2.302671  0  0  -0.333392  -0.574216  0  2.320667  0
O  O79  1  0.55135852  0.21249269  0.96902479  1  0  -0.644772  0  2.08293  0  0  -0.595209  0  2.313244  0  0  -0.618203  0  2.302759  0  0  -0.333323  -0.57404  0  2.320738  0
O  O80  1  0.20431453  0.03327568  0.54000485  1  0  -0.661241  0  2.11875  0  0  -0.609314  0  2.353569  0  0  -0.633494  0  2.34322  0  0  -0.336908  -0.587122  0  2.360856  0
O  O81  1  0.29567415  0.96672824  0.04000756  1  0  -0.66133  0  2.118557  0  0  -0.609442  0  2.35335  0  0  -0.63362  0  2.342997  0  0  -0.336973  -0.587248  0  2.360647  0
O  O82  1  0.79567557  0.96673464  0.45999495  1  0  -0.661352  0  2.118573  0  0  -0.609451  0  2.353351  0  0  -0.633632  0  2.342998  0  0  -0.337022  -0.587258  0  2.360649  0
O  O83  1  0.70431772  0.03327690  0.95999716  1  0  -0.661385  0  2.118805  0  0  -0.609486  0  2.353595  0  0  -0.633667  0  2.343244  0  0  -0.337061  -0.587293  0  2.360883  0
O  O84  1  0.49479818  0.24345699  0.59816251  1  0  -0.895209  0  1.83803  0  0  -0.853792  0  2.024471  0  0  -0.871042  0  1.993233  0  0  -0.619058  -0.835661  0  2.049045  0
O  O85  1  0.00519786  0.75654151  0.09816294  1  0  -0.895305  0  1.837924  0  0  -0.853889  0  2.02436  0  0  -0.871149  0  1.993142  0  0  -0.619124  -0.83575  0  2.048921  0
O  O86  1  0.50520035  0.75654289  0.40183838  1  0  -0.895258  0  1.83794  0  0  -0.85385  0  2.024397  0  0  -0.871098  0  1.993157  0  0  -0.619091  -0.835713  0  2.048956  0
O  O87  1  0.99479823  0.24345840  0.90183741  1  0  -0.895241  0  1.837873  0  0  -0.853818  0  2.02433  0  0  -0.871074  0  1.993105  0  0  -0.619053  -0.835678  0  2.048858  0
O  O88  1  0.68137571  0.49561412  0.49883365  1  0  -0.891542  0  1.877833  0  0  -0.847524  0  2.071593  0  0  -0.865153  0  2.041793  0  0  -0.618414  -0.829199  0  2.09417  0
O  O89  1  0.81861545  0.50438574  0.99883409  1  0  -0.891535  0  1.877818  0  0  -0.847515  0  2.071577  0  0  -0.865146  0  2.041829  0  0  -0.618378  -0.829186  0  2.094159  0
O  O90  1  0.31861748  0.50438455  0.50116615  1  0  -0.891491  0  1.877851  0  0  -0.847469  0  2.0716  0  0  -0.865096  0  2.041837  0  0  -0.618364  -0.829144  0  2.094178  0
O  O91  1  0.18137727  0.49561165  0.00116462  1  0  -0.891426  0  1.87793  0  0  -0.847416  0  2.071687  0  0  -0.865041  0  2.04193  0  0  -0.618386  -0.829087  0  2.094268  0
