# generated using pymatgen
data_Zr3H28C45O16
_symmetry_space_group_name_H-M   'P 1'
_cell_length_a   19.13669699
_cell_length_b   19.11343334
_cell_length_c   19.13081186
_cell_angle_alpha   59.70969805
_cell_angle_beta   59.92811263
_cell_angle_gamma   60.02272652
_symmetry_Int_Tables_number   1
_chemical_formula_structural   Zr3H28C45O16
_chemical_formula_sum   'Zr6 H56 C90 O32'
_cell_volume   4935.15562193
_cell_formula_units_Z   2
loop_
 _symmetry_equiv_pos_site_id
 _symmetry_equiv_pos_as_xyz
  1  'x, y, z'
loop_
 _atom_site_type_symbol
 _atom_site_label
 _atom_site_symmetry_multiplicity
 _atom_site_fract_x
 _atom_site_fract_y
 _atom_site_fract_z
 _atom_site_occupancy
 _atom_site_pbe_bader_charge
 _atom_site_pbe_bader_spin_density
 _atom_site_pbe_cm5_charge
 _atom_site_pbe_ddec_charge
 _atom_site_pbe_ddec_spin_density
 _atom_site_pbe_ddec_sum_bond_order
 _atom_site_pbe_magmom
Zr  Zr0  1  0.90723483  0.40698084  0.59302534  1  2.633238  0  1.623433  2.373797  0  2.752652  0
Zr  Zr1  1  0.09280230  0.59241972  0.40758827  1  2.633384  0  1.624068  2.373832  0  2.75409  0
Zr  Zr2  1  0.09203375  0.40651217  0.59341558  1  2.638139  0  1.623331  2.37401  0  2.751762  0
Zr  Zr3  1  0.90798393  0.59281879  0.40714379  1  2.630263  0  1.623358  2.373696  0  2.754094  0
Zr  Zr4  1  0.90771986  0.59203876  0.59252663  1  2.632609  0  1.625913  2.373325  0  2.761193  0
Zr  Zr5  1  0.09230635  0.40748004  0.40792414  1  2.630912  0  1.625844  2.373627  0  2.760343  0
H  H6  1  0.92697772  0.42602993  0.71908838  1  0.599984  0  0.330544  0.421668  0  0.857293  0
H  H7  1  0.92786252  0.71847995  0.42671460  1  0.609366  0  0.330763  0.421938  0  0.858191  0
H  H8  1  0.21800318  0.42680174  0.42794673  1  0.611344  0  0.330765  0.42169  0  0.85859  0
H  H9  1  0.92725479  0.42742411  0.42734009  1  0.605371  0  0.330659  0.422298  0  0.858285  0
H  H10  1  0.32013502  0.61332660  0.17733189  1  0.088854  0  0.107922  0.112053  0  0.995119  0
H  H11  1  0.45035925  0.61288993  0.05005806  1  0.016762  0  0.10036  0.097003  0  1.020645  0
H  H12  1  0.67723104  0.38903718  0.82043796  1  0.097652  0  0.107923  0.111904  0  0.994763  0
H  H13  1  0.54998083  0.38653342  0.95070200  1  0.038576  0  0.100339  0.09717  0  1.020485  0
H  H14  1  0.67812835  0.61343021  0.81938367  1  0.096594  0  0.10783  0.111914  0  0.994732  0
H  H15  1  0.55088097  0.61283955  0.94960884  1  0.025994  0  0.100072  0.096625  0  1.020394  0
H  H16  1  0.31932302  0.38893350  0.17829718  1  0.107114  0  0.107684  0.111461  0  0.995119  0
H  H17  1  0.44949288  0.38662526  0.05104345  1  0.036822  0  0.100063  0.096795  0  1.020111  0
H  H18  1  0.11322815  0.82012835  0.38926257  1  0.076826  0  0.107894  0.111826  0  0.995515  0
H  H19  1  0.11270372  0.95047676  0.38657911  1  0.062037  0  0.100318  0.096942  0  1.020218  0
H  H20  1  0.88915333  0.17703727  0.61352314  1  0.072915  0  0.108004  0.111862  0  0.995187  0
H  H21  1  0.88659519  0.04986980  0.61292471  1  0.059114  0  0.100346  0.097236  0  1.020624  0
H  H22  1  0.11338677  0.17810082  0.38911529  1  0.079962  0  0.107721  0.111463  0  0.995126  0
H  H23  1  0.11274088  0.05095143  0.38663449  1  0.064847  0  0.100211  0.096984  0  1.020004  0
H  H24  1  0.88897446  0.81920894  0.61363105  1  0.079428  0  0.107722  0.111562  0  0.995352  0
H  H25  1  0.88656393  0.94951723  0.61286295  1  0.071151  0  0.09999  0.096531  0  1.020288  0
H  H26  1  0.31950018  0.17785304  0.38953130  1  0.116349  0  0.107814  0.112  0  0.995446  0
H  H27  1  0.44973938  0.05098151  0.38675145  1  0.043836  0  0.100213  0.097198  0  1.02  0
H  H28  1  0.67807241  0.81943979  0.61316496  1  0.09517  0  0.107733  0.11177  0  0.995377  0
H  H29  1  0.55098006  0.94946506  0.61273074  1  0.028484  0  0.100044  0.096867  0  1.020474  0
H  H30  1  0.67747235  0.82034359  0.38891666  1  0.104133  0  0.107301  0.111403  0  0.995701  0
H  H31  1  0.55028370  0.95033063  0.38665524  1  0.028672  0  0.100047  0.096494  0  1.020558  0
H  H32  1  0.32021566  0.17690171  0.61375655  1  0.075016  0  0.107441  0.111073  0  0.996019  0
H  H33  1  0.45051146  0.05004847  0.61282317  1  0.015203  0  0.100095  0.096949  0  1.021141  0
H  H34  1  0.88941282  0.61296486  0.81958243  1  0.075646  0  0.107769  0.112266  0  0.995114  0
H  H35  1  0.88691055  0.61271838  0.94954569  1  0.071129  0  0.10019  0.096883  0  1.020132  0
H  H36  1  0.11317003  0.38938617  0.17801205  1  0.079975  0  0.10773  0.11192  0  0.995034  0
H  H37  1  0.11260659  0.38676487  0.05106043  1  0.067756  0  0.100092  0.096909  0  1.02023  0
H  H38  1  0.88918017  0.61357698  0.17718649  1  0.076689  0  0.107543  0.11126  0  0.996029  0
H  H39  1  0.88669317  0.61281009  0.05023479  1  0.061944  0  0.099995  0.096327  0  1.02101  0
H  H40  1  0.11335256  0.38870745  0.82064671  1  0.076994  0  0.107445  0.111357  0  0.99577  0
H  H41  1  0.11279117  0.38663661  0.95056464  1  0.060736  0  0.100051  0.096551  0  1.021273  0
H  H42  1  0.11473041  0.82154615  0.17606766  1  0.11635  0  0.106372  0.114185  0  1.002154  0
H  H43  1  0.17702076  0.93507860  0.06512533  1  0.03922  0  0.099767  0.105693  0  0.996122  0
H  H44  1  0.89153202  0.81741033  0.18005199  1  0.075836  0  0.103544  0.107928  0  1.035657  0
H  H45  1  0.88758152  0.17520728  0.82251021  1  0.07847  0  0.106188  0.114236  0  1.00248  0
H  H46  1  0.82268742  0.06413395  0.93610193  1  0.048722  0  0.100062  0.106527  0  0.995334  0
H  H47  1  0.11097703  0.17909288  0.81847217  1  0.090086  0  0.10352  0.10952  0  1.033183  0
H  H48  1  0.31992620  0.38811627  0.61436201  1  0.104122  0  0.107548  0.111706  0  0.995055  0
H  H49  1  0.45002104  0.38599697  0.61344888  1  0.06008  0  0.100035  0.096642  0  1.020953  0
H  H50  1  0.67773264  0.61397884  0.38850511  1  0.104283  0  0.107284  0.111082  0  0.995383  0
H  H51  1  0.55065847  0.61325780  0.38619998  1  0.059458  0  0.099892  0.096265  0  1.021116  0
H  H52  1  0.67752409  0.38878378  0.61369286  1  0.109539  0  0.107794  0.112003  0  0.995076  0
H  H53  1  0.55049104  0.38616148  0.61328898  1  0.058555  0  0.099943  0.096401  0  1.021294  0
H  H54  1  0.31981504  0.61333203  0.38918078  1  0.07615  0  0.107852  0.111951  0  0.995399  0
H  H55  1  0.44990698  0.61310204  0.38637597  1  0.06473  0  0.099972  0.096561  0  1.020196  0
H  H56  1  0.19821748  0.09052911  0.97500841  1  0.047409  0  0.093364  0.12787  0  0.991653  0
H  H57  1  0.19678076  0.13031887  0.86966510  1  0.045323  0  0.092944  0.127931  0  1.020439  0
H  H58  1  0.26365487  0.02503701  0.90980155  1  0.049725  0  0.093673  0.128329  0  0.991548  0
H  H59  1  0.73622586  0.97373096  0.09182154  1  0.057305  0  0.09331  0.127522  0  0.991921  0
H  H60  1  0.80345586  0.86853292  0.13147586  1  0.024664  0  0.092613  0.127318  0  1.020803  0
H  H61  1  0.80149925  0.90850122  0.02632970  1  0.02666  0  0.093548  0.12801  0  0.99118  0
C  C62  1  0.76274643  0.50197326  0.73302750  1  1.530506  0  0.234477  0.638437  0  4.108042  0
C  C63  1  0.00223148  0.73262768  0.50238158  1  1.550074  0  0.234289  0.637573  0  4.109233  0
C  C64  1  0.23291131  0.50208236  0.26297104  1  1.529112  0  0.234353  0.637304  0  4.107882  0
C  C65  1  0.00205015  0.26258210  0.50245070  1  1.560224  0  0.234723  0.638575  0  4.108008  0
C  C66  1  0.00060538  0.26115753  0.73491476  1  1.538155  0  0.235333  0.644013  0  4.08814  0
C  C67  1  0.76283378  0.50225204  0.50197859  1  1.549134  0  0.234235  0.637152  0  4.108338  0
C  C68  1  0.00340713  0.73401643  0.26192699  1  1.531207  0  0.236082  0.645632  0  4.090266  0
C  C69  1  0.23295054  0.50143069  0.50277669  1  1.546542  0  0.234005  0.637314  0  4.107738  0
C  C70  1  0.00214829  0.50126354  0.73344441  1  1.560701  0  0.233973  0.637743  0  4.107237  0
C  C71  1  0.23256092  0.26216282  0.50300109  1  1.542428  0  0.233764  0.637491  0  4.107395  0
C  C72  1  0.00222617  0.50263940  0.26256973  1  1.560308  0  0.233811  0.637203  0  4.107136  0
C  C73  1  0.76315496  0.73306569  0.50165216  1  1.529523  0  0.233961  0.637243  0  4.108581  0
C  C74  1  0.31133013  0.50145751  0.18564844  1  0.047077  0  -0.018987  -0.04439  0  3.978211  0
C  C75  1  0.68546542  0.50152199  0.81146625  1  -0.012421  0  -0.019368  -0.046115  0  3.980323  0
C  C76  1  0.34935683  0.56405120  0.14871015  1  -0.060489  0  -0.081222  -0.082966  0  3.989398  0
C  C77  1  0.42284728  0.56306384  0.07692193  1  -0.043189  0  -0.090533  -0.132387  0  3.983425  0
C  C78  1  0.64855715  0.43778549  0.84958686  1  0.028312  0  -0.080525  -0.080873  0  3.988637  0
C  C79  1  0.57677876  0.43708594  0.92309170  1  -0.068644  0  -0.090654  -0.133268  0  3.98416  0
C  C80  1  0.64910917  0.56411649  0.84895234  1  -0.085611  0  -0.081273  -0.082769  0  3.988684  0
C  C81  1  0.57731620  0.56307261  0.92246153  1  -0.034054  0  -0.090104  -0.13217  0  3.982955  0
C  C82  1  0.34884794  0.43772172  0.14928983  1  -0.066692  0  -0.081037  -0.082209  0  3.987763  0
C  C83  1  0.42233133  0.43709364  0.07749115  1  -0.049169  0  -0.090178  -0.132752  0  3.983744  0
C  C84  1  0.46131364  0.49982884  0.03900861  1  0.06601  0  -0.000487  0.075359  0  3.97876  0
C  C85  1  0.53884030  0.49982100  0.96149117  1  0.000433  0  -0.000805  0.074887  0  3.978375  0
C  C86  1  0.00148898  0.81117633  0.50177265  1  -0.014558  0  -0.01878  -0.044388  0  3.978059  0
C  C87  1  0.00152547  0.18537308  0.50168092  1  -0.002232  0  -0.019386  -0.046079  0  3.979825  0
C  C88  1  0.06400162  0.84930449  0.43798371  1  -0.029669  0  -0.081418  -0.083015  0  3.989528  0
C  C89  1  0.06296609  0.92287611  0.43717268  1  -0.017818  0  -0.090225  -0.13201  0  3.983113  0
C  C90  1  0.93781637  0.14845545  0.56421237  1  -0.02548  0  -0.080887  -0.081064  0  3.989129  0
C  C91  1  0.93709115  0.07672022  0.56313509  1  -0.013453  0  -0.090652  -0.133639  0  3.98395  0
C  C92  1  0.06407941  0.14908275  0.43788191  1  -0.044427  0  -0.080761  -0.081864  0  3.988065  0
C  C93  1  0.06299597  0.07734648  0.43715330  1  -0.013041  0  -0.090194  -0.132766  0  3.983248  0
C  C94  1  0.93774449  0.84875122  0.56429121  1  -0.040879  0  -0.081152  -0.082389  0  3.988506  0
C  C95  1  0.93705873  0.92232061  0.56313747  1  -0.02137  0  -0.090389  -0.132616  0  3.982998  0
C  C96  1  0.99975787  0.96134190  0.49986129  1  -0.028409  0  -0.000881  0.074814  0  3.977956  0
C  C97  1  0.99975752  0.03886231  0.49986727  1  -0.098738  0  -0.000505  0.075668  0  3.977441  0
C  C98  1  0.31125590  0.18518379  0.50207286  1  0.057083  0  -0.0191  -0.044821  0  3.975865  0
C  C99  1  0.68572313  0.81139188  0.50128518  1  0.038441  0  -0.018846  -0.044609  0  3.977346  0
C  C100  1  0.34896899  0.14892056  0.43822551  1  -0.064324  0  -0.081209  -0.08296  0  3.988775  0
C  C101  1  0.42252844  0.07731346  0.43731910  1  -0.057556  0  -0.090325  -0.132878  0  3.982741  0
C  C102  1  0.64918496  0.84891054  0.56389567  1  -0.082635  0  -0.081396  -0.082571  0  3.988129  0
C  C103  1  0.57741964  0.92235045  0.56294583  1  -0.035607  0  -0.09054  -0.133134  0  3.982942  0
C  C104  1  0.64883059  0.84945051  0.43768927  1  -0.041947  0  -0.081364  -0.083259  0  3.989699  0
C  C105  1  0.57702726  0.92285236  0.43711274  1  -0.056119  0  -0.090421  -0.131956  0  3.982695  0
C  C106  1  0.34940338  0.14837190  0.56440860  1  -0.057888  0  -0.080773  -0.081361  0  3.987665  0
C  C107  1  0.42297050  0.07676083  0.56316730  1  -0.045644  0  -0.090702  -0.133619  0  3.983352  0
C  C108  1  0.46148803  0.03884272  0.49991964  1  0.001641  0  -0.000696  0.075403  0  3.97536  0
C  C109  1  0.53899611  0.96135164  0.49980086  1  0.064882  0  -0.000756  0.074848  0  3.976557  0
C  C110  1  0.00165695  0.50104104  0.81166637  1  -0.019834  0  -0.01855  -0.044166  0  3.975482  0
C  C111  1  0.00152422  0.50188049  0.18543091  1  -0.009501  0  -0.018736  -0.043782  0  3.976108  0
C  C112  1  0.93808019  0.56371932  0.84909706  1  -0.025686  0  -0.081787  -0.084392  0  3.98811  0
C  C113  1  0.93735130  0.56288339  0.92248073  1  -0.020376  0  -0.090321  -0.132146  0  3.982715  0
C  C114  1  0.06394296  0.43811196  0.14908799  1  -0.0442  0  -0.08111  -0.083155  0  3.988721  0
C  C115  1  0.06289637  0.43730160  0.07742913  1  -0.013474  0  -0.090559  -0.132915  0  3.983475  0
C  C116  1  0.93787739  0.56428107  0.14860489  1  -0.03519  0  -0.081682  -0.083169  0  3.988621  0
C  C117  1  0.93717023  0.56312331  0.07694250  1  -0.019802  0  -0.090319  -0.131845  0  3.982162  0
C  C118  1  0.06411202  0.43750135  0.84972150  1  -0.027807  0  -0.081231  -0.082347  0  3.988181  0
C  C119  1  0.06306649  0.43703366  0.92307598  1  -0.016399  0  -0.090568  -0.132578  0  3.983476  0
C  C120  1  0.99989902  0.49977310  0.96149508  1  -0.096181  0  -0.000703  0.075045  0  3.976799  0
C  C121  1  0.99980879  0.49991028  0.03896631  1  -0.03131  0  -0.000759  0.074762  0  3.977087  0
C  C122  1  0.06532950  0.85068746  0.14745062  1  -0.008226  0  -0.082157  -0.141671  0  3.93304  0
C  C123  1  0.06472700  0.92502956  0.07449156  1  -0.015145  0  -0.00837  0.081535  0  4.070813  0
C  C124  1  0.12815707  0.96461783  0.03547750  1  -0.036708  0  -0.096742  -0.209779  0  3.978624  0
C  C125  1  0.93857152  0.84937821  0.14867185  1  -0.021698  0  -0.083704  -0.137589  0  3.942675  0
C  C126  1  0.93496484  0.92370736  0.07576090  1  0.014158  0  -0.006197  0.020461  0  3.986428  0
C  C127  1  0.86950964  0.96251647  0.03753666  1  -0.036455  0  -0.006455  0.129365  0  3.965594  0
C  C128  1  0.93646940  0.14660959  0.85162605  1  -0.048752  0  -0.081749  -0.141971  0  3.934124  0
C  C129  1  0.93568314  0.07360342  0.92596770  1  0.03171  0  -0.008402  0.082058  0  4.070692  0
C  C130  1  0.87169228  0.03452105  0.96559409  1  -0.035749  0  -0.096962  -0.2105  0  3.979835  0
C  C131  1  0.06330029  0.14778683  0.85038395  1  -0.019071  0  -0.084593  -0.139886  0  3.941059  0
C  C132  1  0.06550836  0.07483499  0.92468946  1  0.055491  0  -0.005505  0.021552  0  3.986192  0
C  C133  1  0.13039288  0.03655646  0.96349975  1  -0.008699  0  -0.005799  0.129481  0  3.962795  0
C  C134  1  0.00280602  0.81307059  0.18404912  1  -0.041284  0  -0.022864  -0.042422  0  4.018669  0
C  C135  1  0.99956567  0.96217454  0.03767745  1  -0.029537  0  0.003221  0.002981  0  3.925997  0
C  C136  1  0.99998622  0.18324355  0.81403448  1  -0.049407  0  -0.0227  -0.041681  0  4.0164  0
C  C137  1  0.00051453  0.03675057  0.96313030  1  -0.07497  0  0.003468  0.0013  0  3.926812  0
C  C138  1  0.31136921  0.50100147  0.50209945  1  -0.011881  0  -0.019016  -0.043448  0  3.974929  0
C  C139  1  0.68552703  0.50169439  0.50140694  1  0.000156  0  -0.019352  -0.045081  0  3.976374  0
C  C140  1  0.34922079  0.43714128  0.56479247  1  -0.075619  0  -0.081623  -0.084196  0  3.988008  0
C  C141  1  0.42267656  0.43665581  0.56355094  1  -0.010683  0  -0.090061  -0.131618  0  3.983228  0
C  C142  1  0.64891816  0.56444444  0.43749014  1  -0.061451  0  -0.081316  -0.082742  0  3.987252  0
C  C143  1  0.57718406  0.56331244  0.43689115  1  -0.018503  0  -0.089843  -0.131302  0  3.982526  0
C  C144  1  0.64880120  0.43770697  0.56422704  1  -0.067101  0  -0.081907  -0.084  0  3.988578  0
C  C145  1  0.57707748  0.43692858  0.56328038  1  -0.018534  0  -0.089965  -0.131475  0  3.982977  0
C  C146  1  0.34915090  0.56390285  0.43806215  1  -0.02577  0  -0.081629  -0.084054  0  3.988033  0
C  C147  1  0.42260814  0.56305891  0.43717089  1  -0.017878  0  -0.090139  -0.131683  0  3.981586  0
C  C148  1  0.46139065  0.49967833  0.50000457  1  -0.027598  0  -0.000784  0.074657  0  3.975786  0
C  C149  1  0.53891287  0.49981019  0.49986182  1  -0.089945  0  -0.000621  0.074968  0  3.975951  0
C  C150  1  0.20047940  0.07301256  0.92709535  1  -0.097884  0  -0.23575  -0.404937  0  3.980555  0
C  C151  1  0.79945619  0.92594744  0.07416663  1  -0.045744  0  -0.234728  -0.403278  0  3.98014  0
O  O152  1  0.79308661  0.44248086  0.70268556  1  -1.176128  0  -0.356519  -0.621501  0  2.282947  0
O  O153  1  0.06177544  0.70216614  0.44298018  1  -1.182522  0  -0.356643  -0.621462  0  2.28319  0
O  O154  1  0.20271539  0.56135239  0.29355981  1  -1.175267  0  -0.356685  -0.621454  0  2.282343  0
O  O155  1  0.94245218  0.29303581  0.56184948  1  -1.183678  0  -0.356755  -0.621923  0  2.282452  0
O  O156  1  0.06003018  0.29205846  0.70406160  1  -1.181163  0  -0.356993  -0.622824  0  2.280879  0
O  O157  1  0.79376664  0.56180176  0.44213526  1  -1.185946  0  -0.356817  -0.621786  0  2.282066  0
O  O158  1  0.94394418  0.70318946  0.29279699  1  -1.183011  0  -0.357302  -0.62283  0  2.285322  0
O  O159  1  0.20238132  0.44153355  0.56230907  1  -1.18166  0  -0.356046  -0.621646  0  2.281626  0
O  O160  1  0.94268952  0.56066903  0.70271112  1  -1.188505  0  -0.356927  -0.621615  0  2.284355  0
O  O161  1  0.20210832  0.29319191  0.44327075  1  -1.1838  0  -0.357032  -0.621633  0  2.283723  0
O  O162  1  0.06138797  0.44288651  0.29358957  1  -1.190868  0  -0.35675  -0.621519  0  2.283612  0
O  O163  1  0.79390794  0.70233012  0.56108648  1  -1.175869  0  -0.356695  -0.621452  0  2.283828  0
O  O164  1  0.20189546  0.29243348  0.56264846  1  -1.179518  0  -0.357169  -0.623  0  2.280825  0
O  O165  1  0.94288235  0.56215684  0.29298664  1  -1.182809  0  -0.357178  -0.622534  0  2.280503  0
O  O166  1  0.79406585  0.70302598  0.44176735  1  -1.177222  0  -0.357099  -0.622331  0  2.281091  0
O  O167  1  0.06111095  0.44131171  0.70349657  1  -1.183162  0  -0.357113  -0.622645  0  2.280766  0
O  O168  1  0.94103771  0.29223115  0.70432041  1  -1.175946  0  -0.356266  -0.621526  0  2.274419  0
O  O169  1  0.20262061  0.56101283  0.44286063  1  -1.176565  0  -0.357796  -0.622943  0  2.283188  0
O  O170  1  0.06247319  0.70349507  0.29298941  1  -1.182264  0  -0.356543  -0.621542  0  2.2772  0
O  O171  1  0.79348694  0.44228418  0.56154086  1  -1.182996  0  -0.357099  -0.62191  0  2.282603  0
O  O172  1  0.06138628  0.29364127  0.44275066  1  -1.192202  0  -0.3585  -0.622124  0  2.286835  0
O  O173  1  0.79395496  0.56116586  0.70245979  1  -1.17422  0  -0.358416  -0.622124  0  2.287004  0
O  O174  1  0.94238697  0.70208720  0.56159834  1  -1.1839  0  -0.358232  -0.622054  0  2.287771  0
O  O175  1  0.20222505  0.44237167  0.29400580  1  -1.177032  0  -0.358153  -0.621952  0  2.286012  0
O  O176  1  0.94792156  0.44803739  0.44808703  1  -1.235457  0  -0.694499  -1.067078  0  2.364207  0
O  O177  1  0.15597648  0.44752908  0.44856838  1  -1.241638  0  -0.694765  -1.065904  0  2.363936  0
O  O178  1  0.94843283  0.65623496  0.44766962  1  -1.239894  0  -0.694738  -1.066487  0  2.364171  0
O  O179  1  0.94767433  0.44705230  0.65683760  1  -1.230272  0  -0.694308  -1.066093  0  2.361236  0
O  O180  1  0.03847099  0.53773597  0.53873243  1  -1.199164  0  -0.790698  -1.147271  0  2.123281  0
O  O181  1  0.88503094  0.53814059  0.53835368  1  -1.193383  0  -0.79044  -1.147643  0  2.124664  0
O  O182  1  0.03863162  0.53860832  0.38476906  1  -1.192114  0  -0.79071  -1.14779  0  2.124237  0
O  O183  1  0.03800273  0.38419870  0.53915944  1  -1.192698  0  -0.790831  -1.147638  0  2.12305  0
