# generated using pymatgen
data_Hf3H18C25O16F7
_symmetry_space_group_name_H-M   'P 1'
_cell_length_a   14.26946875
_cell_length_b   17.70653619
_cell_length_c   23.73925152
_cell_angle_alpha   88.28659627
_cell_angle_beta   89.57120237
_cell_angle_gamma   86.70232030
_symmetry_Int_Tables_number   1
_chemical_formula_structural   Hf3H18C25O16F7
_chemical_formula_sum   'Hf12 H72 C100 O64 F28'
_cell_volume   5985.31827656
_cell_formula_units_Z   4
loop_
 _symmetry_equiv_pos_site_id
 _symmetry_equiv_pos_as_xyz
  1  'x, y, z'
loop_
 _atom_site_type_symbol
 _atom_site_label
 _atom_site_symmetry_multiplicity
 _atom_site_fract_x
 _atom_site_fract_y
 _atom_site_fract_z
 _atom_site_occupancy
 _atom_site_pbe_bader_charge
 _atom_site_pbe_bader_spin_density
 _atom_site_pbe_cm5_charge
 _atom_site_pbe_ddec_charge
 _atom_site_pbe_ddec_spin_density
 _atom_site_pbe_ddec_sum_bond_order
 _atom_site_pbe_magmom
Hf  Hf0  1  0.48013695  0.37990671  0.45530021  1  2.607269  0  1.455115  2.104192  0  3.366776  0
Hf  Hf1  1  0.55772951  0.58734715  0.56623382  1  2.576855  0  1.433725  2.072123  0  3.380897  0
Hf  Hf2  1  0.59699419  0.55335475  0.42315497  1  2.602448  0  1.437345  2.155219  0  3.404368  0
Hf  Hf3  1  0.46026616  0.41612549  0.59799853  1  2.604234  0  1.440574  2.124063  0  3.370364  0
Hf  Hf4  1  0.68165045  0.41903816  0.53072750  1  2.585776  0  1.39737  2.123785  0  3.423007  0
Hf  Hf5  1  0.35605280  0.54497735  0.49636712  1  2.608414  0  1.422831  2.144211  0  3.36228  0
Hf  Hf6  1  0.07774547  0.06792327  0.95943204  1  2.600833  0  1.454426  2.097178  0  3.365608  0
Hf  Hf7  1  0.98252585  0.86170739  0.07755910  1  2.587396  0  1.44552  2.082799  0  3.377821  0
Hf  Hf8  1  0.97371015  0.89581434  0.93243050  1  2.612227  0  1.437788  2.147673  0  3.389216  0
Hf  Hf9  1  0.08393090  0.03223118  0.10488907  1  2.617732  0  1.440718  2.156185  0  3.350878  0
Hf  Hf10  1  0.86885237  0.03179943  0.02784185  1  2.606419  0  1.434891  2.1587  0  3.321246  0
Hf  Hf11  1  0.19319906  0.89994518  0.00885062  1  2.598066  0  1.415862  2.147458  0  3.343102  0
H  H12  1  0.57926919  0.30099735  0.55372981  1  0.648055  0  0.331858  0.432578  0  0.843212  0
H  H13  1  0.73649615  0.56489992  0.51561864  1  0.623812  0  0.33153  0.427733  0  0.850646  0
H  H14  1  0.38408743  0.56354034  0.61574763  1  0.624538  0  0.342677  0.431648  0  0.83976  0
H  H15  1  0.37640363  0.48892630  0.38821902  1  0.613664  0  0.333139  0.422962  0  0.86008  0
H  H16  1  0.84758140  0.44372014  0.49831193  1  0.640508  0  0.299137  0.396705  0  0.933097  0
H  H17  1  0.50201144  0.60949078  0.33370190  1  0.585478  0  0.294144  0.382248  0  0.935088  0
H  H18  1  0.33141054  0.67805199  0.43298898  1  0.590991  0  0.324362  0.405393  0  0.878862  0
H  H19  1  0.77005004  0.32321341  0.60524962  1  0.573444  0  0.286234  0.378156  0  0.928481  0
H  H20  1  0.51642151  0.34775803  0.69663681  1  0.656628  0  0.334236  0.416873  0  0.874213  0
H  H21  1  0.32529226  0.44465670  0.67415369  1  0.604215  0  0.297684  0.388232  0  0.914625  0
H  H22  1  0.19590475  0.51233583  0.54467742  1  0.640108  0  0.322026  0.422911  0  0.869552  0
H  H23  1  0.83016339  0.44609378  0.59947324  1  0.599284  0  0.29453  0.389838  0  0.910978  0
H  H24  1  0.68558910  0.68222012  0.60693213  1  0.629094  0  0.336074  0.421385  0  0.863826  0
H  H25  1  0.35461220  0.28113377  0.41599040  1  0.641941  0  0.331817  0.418487  0  0.872654  0
H  H26  1  0.20842741  0.54944734  0.42866865  1  0.581221  0  0.294742  0.398222  0  0.900593  0
H  H27  1  0.46991273  0.28509025  0.66067441  1  0.633279  0  0.338072  0.417473  0  0.866999  0
H  H28  1  0.65434695  0.62607268  0.65730757  1  0.642774  0  0.322139  0.408726  0  0.900889  0
H  H29  1  0.77530214  0.51500774  0.40903747  1  0.629098  0  0.280811  0.399422  0  0.924149  0
H  H30  1  0.82781038  0.38454857  0.45022712  1  0.632315  0  0.330328  0.410013  0  0.875187  0
H  H31  1  0.26845764  0.47927475  0.59501569  1  0.641991  0  0.290713  0.39921  0  0.936929  0
H  H32  1  0.41370512  0.62794667  0.39788868  1  0.652472  0  0.28127  0.408178  0  0.937548  0
H  H33  1  0.39715108  0.32688601  0.36344825  1  0.648066  0  0.322911  0.404108  0  0.904955  0
H  H34  1  0.98904597  0.15088072  0.04633013  1  0.628204  0  0.338875  0.422069  0  0.849685  0
H  H35  1  0.81730836  0.88085044  0.00984007  1  0.589272  0  0.333369  0.415986  0  0.862099  0
H  H36  1  0.15347598  0.88472540  0.12903886  1  0.595685  0  0.33685  0.420531  0  0.851907  0
H  H37  1  0.17663642  0.94848461  0.90289672  1  0.593668  0  0.327955  0.419895  0  0.863057  0
H  H38  1  0.70814296  0.99941429  0.98021002  1  0.624902  0  0.318831  0.397259  0  0.892811  0
H  H39  1  0.06725098  0.84138616  0.84351008  1  0.597355  0  0.302273  0.390912  0  0.91137  0
H  H40  1  0.21205308  0.75677774  0.95674161  1  0.637008  0  0.306177  0.386822  0  0.927954  0
H  H41  1  0.79261439  0.09167113  0.11651305  1  0.625045  0  0.315737  0.406961  0  0.890028  0
H  H42  1  0.02133389  0.15551719  0.16393557  1  0.587204  0  0.302762  0.39072  0  0.90815  0
H  H43  1  0.25281778  0.06292054  0.14057737  1  0.610853  0  0.306435  0.393925  0  0.905255  0
H  H44  1  0.33686043  0.88365831  0.09448962  1  0.611114  0  0.330418  0.407119  0  0.873386  0
H  H45  1  0.74302758  0.95523849  0.08944024  1  0.59132  0  0.28263  0.386915  0  0.927728  0
H  H46  1  0.82729560  0.78468986  0.10964902  1  0.648953  0  0.331723  0.416271  0  0.873822  0
H  H47  1  0.23066679  0.14749937  0.92457637  1  0.649317  0  0.331008  0.420891  0  0.876321  0
H  H48  1  0.35399462  0.95049316  0.98082876  1  0.584784  0  0.288874  0.38867  0  0.915814  0
H  H49  1  0.90192180  0.11639258  0.12412762  1  0.656432  0  0.286051  0.405628  0  0.934333  0
H  H50  1  0.85680192  0.83325023  0.16097975  1  0.651994  0  0.325081  0.407376  0  0.898176  0
H  H51  1  0.83067604  0.91631938  0.86345095  1  0.613852  0  0.308537  0.399017  0  0.896491  0
H  H52  1  0.78605745  0.97042240  0.93305897  1  0.649633  0  0.285497  0.400196  0  0.943551  0
H  H53  1  0.27318297  0.96453857  0.10512866  1  0.642752  0  0.282832  0.403821  0  0.941821  0
H  H54  1  0.14451659  0.80857736  0.91516108  1  0.653913  0  0.287065  0.398823  0  0.943432  0
H  H55  1  0.18729373  0.11217137  0.87013326  1  0.634619  0  0.335926  0.417554  0  0.869784  0
H  H56  1  0.19573257  0.65897988  0.17728248  1  0.106063  0  0.125031  0.153326  0  0.956815  0
H  H57  1  0.29147310  0.51773744  0.00760241  1  0.073608  0  0.117645  0.144651  0  0.976217  0
H  H58  1  0.14690746  0.27491087  0.13339871  1  0.116141  0  0.120091  0.145065  0  0.973353  0
H  H59  1  0.39155273  0.36268046  0.00176503  1  0.112418  0  0.109562  0.133697  0  1.006659  0
H  H60  1  0.65398852  0.36094911  0.01281273  1  0.106717  0  0.113892  0.140106  0  1.00473  0
H  H61  1  0.42602983  0.57930099  0.03062226  1  0.104439  0  0.112415  0.142104  0  1.009082  0
H  H62  1  0.80153084  0.72615920  0.90531322  1  0.155485  0  0.126072  0.156927  0  0.971072  0
H  H63  1  0.79097220  0.49645902  0.02798893  1  0.094961  0  0.1141  0.141946  0  0.979026  0
H  H64  1  0.88561616  0.44896168  0.94948462  1  0.120409  0  0.113104  0.142924  0  0.997947  0
H  H65  1  0.72008243  0.21451304  0.92190432  1  0.126151  0  0.127106  0.157702  0  0.958706  0
H  H66  1  0.47134574  0.31908977  0.27046786  1  0.12005  0  0.118691  0.141715  0  0.978484  0
H  H67  1  0.46805223  0.55416728  0.15327273  1  0.083214  0  0.111436  0.135318  0  0.985691  0
H  H68  1  0.72032780  0.51032323  0.73634969  1  0.105329  0  0.120867  0.147442  0  0.967001  0
H  H69  1  0.49963417  0.48227668  0.89723874  1  0.108091  0  0.107726  0.130987  0  1.006262  0
H  H70  1  0.66743067  0.97217017  0.45886020  1  0.140772  0  0.112131  0.137393  0  1.001961  0
H  H71  1  0.82329250  0.71453112  0.45120926  1  0.12739  0  0.125535  0.154693  0  0.958803  0
H  H72  1  0.69492064  0.16677376  0.52980345  1  0.109616  0  0.120734  0.148455  0  0.968648  0
H  H73  1  0.82241986  0.08563072  0.34465570  1  0.106177  0  0.112079  0.13668  0  1.002419  0
H  H74  1  0.04727220  0.95192276  0.39522940  1  0.105566  0  0.110334  0.133535  0  1.007336  0
H  H75  1  0.82341098  0.92671799  0.23900865  1  0.107404  0  0.117469  0.139958  0  0.977862  0
H  H76  1  0.88603861  0.89829920  0.53376089  1  0.124232  0  0.114649  0.139517  0  0.997413  0
H  H77  1  0.12615984  0.08429062  0.50107784  1  0.095825  0  0.109188  0.13703  0  1.019039  0
H  H78  1  0.10866017  0.85438741  0.56899895  1  0.151374  0  0.103658  0.128089  0  1.068406  0
H  H79  1  0.45144259  0.83720346  0.59111585  1  0.092435  0  0.119988  0.148672  0  0.97272  0
H  H80  1  0.29005289  0.01632170  0.51207318  1  0.109044  0  0.115932  0.140403  0  0.978333  0
H  H81  1  0.25955755  0.24508590  0.62650617  1  0.144041  0  0.121832  0.15164  0  0.976108  0
H  H82  1  0.98894923  0.04118636  0.63895048  1  0.095949  0  0.111215  0.132686  0  0.99906  0
H  H83  1  0.20690377  0.97622739  0.79645312  1  0.098283  0  0.117928  0.142418  0  0.975137  0
C  C84  1  0.16595466  0.99518441  0.59901684  1  0.08577  0  0.031151  0.083662  0  3.690461  0
C  C85  1  0.85962481  0.97549023  0.43082744  1  0.101055  0  0.022577  0.077681  0  3.769606  0
C  C86  1  0.66275291  0.27315001  0.44942974  1  1.613486  0  0.246883  0.664034  0  4.10692  0
C  C87  1  0.38184752  0.26252156  0.54348232  1  1.608  0  0.241985  0.653268  0  4.108012  0
C  C88  1  0.53619518  0.43557334  0.32793720  1  1.583024  0  0.237765  0.639826  0  4.138771  0
C  C89  1  0.64144975  0.71079879  0.48051321  1  1.61328  0  0.241671  0.649732  0  4.137892  0
C  C90  1  0.37942273  0.70174223  0.56218319  1  1.575625  0  0.245159  0.650716  0  4.094911  0
C  C91  1  0.53594982  0.51472207  0.70237231  1  1.625393  0  0.242519  0.663591  0  4.109449  0
C  C92  1  0.68911897  0.47910265  0.93265789  1  0.079551  0  0.026887  0.079323  0  3.721335  0
C  C93  1  0.37605820  0.45057447  0.09968579  1  0.067083  0  0.027697  0.082262  0  3.723332  0
C  C94  1  0.89895775  0.18385140  0.95209637  1  1.608052  0  0.244979  0.64927  0  4.096212  0
C  C95  1  0.17119253  0.18327185  0.04545470  1  1.595869  0  0.239382  0.647641  0  4.111254  0
C  C96  1  0.03065295  0.01546306  0.83347371  1  1.616757  0  0.244066  0.663555  0  4.11946  0
C  C97  1  0.90238759  0.74044107  0.99559819  1  1.60631  0  0.238544  0.641718  0  4.114026  0
C  C98  1  0.16010223  0.74212199  0.07834706  1  1.625148  0  0.245899  0.65272  0  4.10347  0
C  C99  1  0.00697278  0.91982824  0.20367133  1  1.606132  0  0.244193  0.656279  0  4.106854  0
C  C100  1  0.21806262  0.62957947  0.13935200  1  0.060413  0  -0.087358  -0.198802  0  3.972805  0
C  C101  1  0.19839344  0.66165651  0.08613643  1  -0.001053  0  -0.013664  -0.105233  0  3.993637  0
C  C102  1  0.22366499  0.61766349  0.04002149  1  0.355388  0  0.097328  0.253788  0  4.053485  0
C  C103  1  0.27362546  0.54867956  0.04554061  1  0.12699  0  -0.096083  -0.233397  0  4.009828  0
C  C104  1  0.30550397  0.52056637  0.09854372  1  0.021861  0  -0.010123  -0.033164  0  3.900443  0
C  C105  1  0.26958504  0.56051096  0.14500950  1  0.487256  0  0.097204  0.234195  0  4.04759  0
C  C106  1  0.19869675  0.29503950  0.10349014  1  0.107168  0  -0.087524  -0.191058  0  3.984175  0
C  C107  1  0.21889149  0.25509790  0.05432303  1  0.015422  0  -0.019523  -0.120281  0  3.976222  0
C  C108  1  0.28623926  0.28404972  0.01794641  1  0.415308  0  0.101836  0.273794  0  4.02722  0
C  C109  1  0.33666228  0.34610956  0.03095261  1  -0.012217  0  -0.100138  -0.239857  0  3.997953  0
C  C110  1  0.31982268  0.38377999  0.08131003  1  0.070878  0  -0.009709  -0.019267  0  3.933332  0
C  C111  1  0.24616417  0.35848667  0.11503114  1  0.441571  0  0.091761  0.232571  0  4.063325  0
C  C112  1  0.60422789  0.40974422  0.01464911  1  0.052684  0  -0.098119  -0.22997  0  3.999028  0
C  C113  1  0.61273722  0.47342476  0.97898024  1  0.055912  0  -0.010589  -0.023905  0  3.929489  0
C  C114  1  0.54714503  0.53352867  0.98883039  1  0.405511  0  0.091895  0.232179  0  4.051325  0
C  C115  1  0.47340917  0.52933696  0.02714184  1  0.002183  0  -0.101939  -0.241863  0  3.999948  0
C  C116  1  0.45940225  0.46275828  0.05868397  1  0.030061  0  -0.010425  -0.022757  0  3.921018  0
C  C117  1  0.53023297  0.40528274  0.05255220  1  0.42759  0  0.092787  0.232041  0  4.046171  0
C  C118  1  0.79972474  0.67547451  0.93238043  1  0.00703  0  -0.083726  -0.184671  0  3.973617  0
C  C119  1  0.84925419  0.67230532  0.98302515  1  0.106632  0  -0.02141  -0.126523  0  3.983485  0
C  C120  1  0.84255956  0.60656034  0.01675655  1  0.387882  0  0.097896  0.265833  0  4.058793  0
C  C121  1  0.79275353  0.54605102  0.99975729  1  0.079228  0  -0.100685  -0.246196  0  3.997727  0
C  C122  1  0.74501600  0.54801143  0.94800569  1  -0.002366  0  -0.008229  -0.022897  0  3.907637  0
C  C123  1  0.74759970  0.61624830  0.91649715  1  0.424416  0  0.093838  0.231496  0  4.057639  0
C  C124  1  0.84740284  0.39869708  0.94247863  1  -0.043506  0  -0.098355  -0.237757  0  3.992823  0
C  C125  1  0.75084341  0.40428033  0.93216751  1  0.025308  0  -0.008899  -0.021401  0  3.924521  0
C  C126  1  0.70966091  0.33583421  0.92137298  1  0.423227  0  0.088921  0.217527  0  4.056993  0
C  C127  1  0.75754132  0.26591270  0.92617290  1  0.076482  0  -0.084216  -0.190657  0  3.981438  0
C  C128  1  0.85337868  0.26066053  0.93889903  1  0.040082  0  -0.01524  -0.115263  0  3.976372  0
C  C129  1  0.89695449  0.32859031  0.94497286  1  0.486486  0  0.102489  0.269693  0  4.046071  0
C  C130  1  0.47042170  0.37148368  0.24519277  1  0.048004  0  -0.089007  -0.191025  0  3.988834  0
C  C131  1  0.50828251  0.43549866  0.26718510  1  0.03332  0  -0.019129  -0.124309  0  3.970567  0
C  C132  1  0.50828491  0.49979569  0.23110044  1  0.481153  0  0.104028  0.275427  0  4.030281  0
C  C133  1  0.46832830  0.50138834  0.17812593  1  0.011825  0  -0.10225  -0.244559  0  4.028922  0
C  C134  1  0.42406769  0.43919173  0.15776920  1  0.050656  0  -0.009909  -0.022244  0  3.929758  0
C  C135  1  0.43090978  0.37326549  0.19196258  1  0.458796  0  0.092602  0.231277  0  4.058786  0
C  C136  1  0.67074006  0.50393685  0.77106783  1  -0.002723  0  -0.092593  -0.20713  0  3.990297  0
C  C137  1  0.57392409  0.50634761  0.76138438  1  0.054292  0  -0.021655  -0.123726  0  3.99457  0
C  C138  1  0.51566974  0.49683331  0.80822852  1  0.377245  0  0.093928  0.261113  0  4.052987  0
C  C139  1  0.54967872  0.48836229  0.86281859  1  0.057396  0  -0.099313  -0.227686  0  4.011512  0
C  C140  1  0.64598566  0.48745374  0.87303435  1  0.077229  0  -0.01354  -0.028974  0  3.944686  0
C  C141  1  0.70433473  0.49304493  0.82549140  1  0.482866  0  0.089874  0.232767  0  4.057353  0
C  C142  1  0.70412487  0.91658134  0.45919553  1  -0.001321  0  -0.097461  -0.229496  0  4.011734  0
C  C143  1  0.79974406  0.90826818  0.44605935  1  0.028813  0  -0.015305  -0.036701  0  3.964791  0
C  C144  1  0.84006107  0.83418191  0.44498313  1  0.40038  0  0.090552  0.224523  0  4.061097  0
C  C145  1  0.78942286  0.77089464  0.45524993  1  0.05573  0  -0.087947  -0.202164  0  3.985216  0
C  C146  1  0.69461410  0.78029253  0.47005855  1  0.027737  0  -0.015208  -0.109478  0  4.009035  0
C  C147  1  0.65409150  0.85343642  0.47208526  1  0.461691  0  0.096313  0.260211  0  4.06152  0
C  C148  1  0.71960869  0.14847801  0.48854811  1  0.074019  0  -0.0907  -0.203042  0  3.99346  0
C  C149  1  0.70871590  0.19627737  0.44094269  1  0.063658  0  -0.015198  -0.107689  0  4.00573  0
C  C150  1  0.74457764  0.17095077  0.38990681  1  0.414345  0  0.096267  0.259651  0  4.065843  0
C  C151  1  0.79196050  0.10077645  0.38521184  1  0.063825  0  -0.095547  -0.225945  0  4.002401  0
C  C152  1  0.80228928  0.05161422  0.43226222  1  0.024855  0  -0.013465  -0.032089  0  3.949073  0
C  C153  1  0.76426537  0.07770389  0.48331711  1  0.386247  0  0.089955  0.222131  0  4.06024  0
C  C154  1  0.99666335  0.94894425  0.36147999  1  0.034639  0  -0.096425  -0.228327  0  4.011046  0
C  C155  1  0.90027558  0.95945133  0.37188174  1  0.090683  0  -0.010029  -0.024972  0  3.941064  0
C  C156  1  0.84078089  0.94883052  0.32638967  1  0.373695  0  0.091683  0.225175  0  4.053198  0
C  C157  1  0.87363615  0.93160226  0.27288826  1  0.088625  0  -0.09185  -0.204854  0  3.996437  0
C  C158  1  0.97027263  0.92478324  0.26262898  1  -0.018866  0  -0.016533  -0.114377  0  3.996878  0
C  C159  1  0.02997859  0.93305404  0.30800480  1  0.463015  0  0.101078  0.272017  0  4.050126  0
C  C160  1  0.93903014  0.93889183  0.52491120  1  0.065548  0  -0.095279  -0.221643  0  4.023771  0
C  C161  1  0.93702851  0.98215611  0.47485710  1  0.003547  0  -0.010268  -0.022973  0  3.947336  0
C  C162  1  0.00439546  0.03632620  0.47038483  1  0.398453  0  0.093002  0.233966  0  4.04974  0
C  C163  1  0.07500126  0.04217846  0.50965543  1  0.08887  0  -0.10142  -0.235472  0  3.99139  0
C  C164  1  0.08088080  0.99550386  0.55837374  1  0.033017  0  -0.008109  -0.015549  0  3.894756  0
C  C165  1  0.00664690  0.94705851  0.56527407  1  0.373655  0  0.089298  0.222251  0  4.038379  0
C  C166  1  0.18354458  0.85489172  0.57480481  1  0.003565  0  -0.107273  -0.250573  0  4.02481  0
C  C167  1  0.22769645  0.92023197  0.58911781  1  0.011416  0  -0.007566  -0.017662  0  3.863519  0
C  C168  1  0.32610936  0.90971820  0.59464080  1  0.435564  0  0.09249  0.225239  0  4.044856  0
C  C169  1  0.37533728  0.84059346  0.58686832  1  0.109012  0  -0.085404  -0.186241  0  3.965048  0
C  C170  1  0.32902092  0.77616206  0.57292497  1  0.066227  0  -0.019841  -0.124992  0  3.98774  0
C  C171  1  0.23148966  0.78586693  0.56752119  1  0.423207  0  0.101321  0.276597  0  4.057032  0
C  C172  1  0.28090319  0.06640618  0.53759439  1  0.039396  0  -0.096966  -0.23695  0  4.015289  0
C  C173  1  0.22128832  0.06588315  0.58500244  1  0.071446  0  -0.006475  -0.01643  0  3.899514  0
C  C174  1  0.21383698  0.13350444  0.61463787  1  0.37278  0  0.093017  0.229903  0  4.037422  0
C  C175  1  0.26621748  0.19494795  0.60093203  1  0.068252  0  -0.089482  -0.195897  0  3.999138  0
C  C176  1  0.32668278  0.19422348  0.55443351  1  -0.014034  0  -0.022509  -0.130545  0  4.000404  0
C  C177  1  0.33086185  0.12888604  0.52249501  1  0.468078  0  0.10061  0.267873  0  4.049906  0
C  C178  1  0.03739507  0.02369756  0.67266830  1  0.075929  0  -0.097717  -0.223107  0  4.026753  0
C  C179  1  0.12985239  0.99757173  0.66060849  1  0.028066  0  -0.016599  -0.035367  0  3.931542  0
C  C180  1  0.18769785  0.98140627  0.70722316  1  0.412693  0  0.090496  0.235292  0  4.058683  0
C  C181  1  0.15708632  0.98956224  0.76247501  1  0.00944  0  -0.098701  -0.221465  0  4.011149  0
C  C182  1  0.06409066  0.01368038  0.77350136  1  0.078695  0  -0.019937  -0.11794  0  4.020897  0
C  C183  1  0.00576215  0.03000556  0.72756541  1  0.470065  0  0.094402  0.262804  0  4.0628  0
O  O184  1  0.36226709  0.33153940  0.39907408  1  -1.241762  0  -0.571746  -0.74601  0  2.05317  0
O  O185  1  0.57623316  0.28284978  0.43706067  1  -1.164314  0  -0.342546  -0.576953  0  2.308114  0
O  O186  1  0.50938826  0.38080364  0.35943143  1  -1.191141  0  -0.335699  -0.605665  0  2.334595  0
O  O187  1  0.39841228  0.30026856  0.58660522  1  -1.191989  0  -0.323302  -0.576421  0  2.343857  0
O  O188  1  0.57884733  0.49101283  0.34446487  1  -1.169106  0  -0.32327  -0.570704  0  2.397594  0
O  O189  1  0.40651305  0.27858964  0.49318114  1  -1.181671  0  -0.32861  -0.592286  0  2.34543  0
O  O190  1  0.71346467  0.31949337  0.47245043  1  -1.182244  0  -0.320128  -0.58612  0  2.339491  0
O  O191  1  0.59101501  0.44412288  0.45890394  1  -1.229427  0  -0.741148  -1.085734  0  2.171507  0
O  O192  1  0.55371112  0.34970543  0.53877621  1  -1.283474  0  -0.655213  -0.961682  0  2.292494  0
O  O193  1  0.41077744  0.48290131  0.42321686  1  -1.25315  0  -0.65137  -0.946018  0  2.185843  0
O  O194  1  0.40615575  0.43400632  0.51969073  1  -1.218416  0  -0.748905  -1.043564  0  2.119285  0
O  O195  1  0.32940625  0.42245720  0.63723639  1  -1.251066  0  -0.656525  -0.912223  0  1.92027  0
O  O196  1  0.81414022  0.43634246  0.46194498  1  -1.253941  0  -0.556884  -0.746483  0  2.050555  0
O  O197  1  0.58402231  0.47310656  0.58375157  1  -1.227207  0  -0.742429  -1.054506  0  2.105091  0
O  O198  1  0.67397082  0.54710292  0.51046242  1  -1.271363  0  -0.644143  -0.957328  0  2.244288  0
O  O199  1  0.49878935  0.57784163  0.49206292  1  -1.221235  0  -0.736054  -1.070988  0  2.134595  0
O  O200  1  0.42361158  0.53965376  0.58718257  1  -1.25159  0  -0.66038  -0.977884  0  2.36258  0
O  O201  1  0.72644374  0.55152098  0.39514708  1  -1.224765  0  -0.707328  -0.923709  0  1.821199  0
O  O202  1  0.63054285  0.67165784  0.43822718  1  -1.164434  0  -0.311877  -0.528449  0  2.345824  0
O  O203  1  0.61655974  0.69549045  0.53126219  1  -1.185203  0  -0.344045  -0.618779  0  2.333736  0
O  O204  1  0.22664153  0.53029387  0.46586185  1  -1.227227  0  -0.689568  -0.952649  0  1.855203  0
O  O205  1  0.45825898  0.68546042  0.58606429  1  -1.177466  0  -0.337995  -0.574414  0  2.265033  0
O  O206  1  0.50178357  0.62051342  0.37351149  1  -1.219609  0  -0.641146  -0.883442  0  1.995569  0
O  O207  1  0.34729755  0.62714362  0.42040272  1  -1.242856  0  -0.601706  -0.81725  0  2.072086  0
O  O208  1  0.24940816  0.52336039  0.56811349  1  -1.264583  0  -0.595474  -0.781832  0  2.077201  0
O  O209  1  0.33809409  0.65956607  0.52897661  1  -1.169289  0  -0.339093  -0.598665  0  2.389825  0
O  O210  1  0.68148692  0.62922850  0.61901166  1  -1.226463  0  -0.573137  -0.751148  0  2.058101  0
O  O211  1  0.51836575  0.32200403  0.66064115  1  -1.233541  0  -0.564771  -0.736024  0  2.085525  0
O  O212  1  0.55168710  0.57357287  0.67299888  1  -1.191126  0  -0.303195  -0.574271  0  2.222531  0
O  O213  1  0.49076131  0.45929789  0.68616828  1  -1.198298  0  -0.332827  -0.619166  0  2.33952  0
O  O214  1  0.71003609  0.33147751  0.58669865  1  -1.234453  0  -0.6911  -0.951562  0  1.901536  0
O  O215  1  0.80481095  0.46064712  0.56281893  1  -1.281  0  -0.666539  -0.960005  0  1.914976  0
O  O216  1  0.21060565  0.10085484  0.90830781  1  -1.223459  0  -0.564791  -0.744056  0  2.066844  0
O  O217  1  0.98357321  0.16884474  0.93688791  1  -1.169703  0  -0.33712  -0.576969  0  2.292577  0
O  O218  1  0.05966919  0.06735799  0.86373977  1  -1.192891  0  -0.329471  -0.590965  0  2.300521  0
O  O219  1  0.15202734  0.14524925  0.08989827  1  -1.185754  0  -0.325201  -0.594859  0  2.326397  0
O  O220  1  0.98184592  0.96136250  0.84946465  1  -1.189884  0  -0.324606  -0.590936  0  2.33199  0
O  O221  1  0.15222447  0.16643407  0.99513484  1  -1.184397  0  -0.334965  -0.601499  0  2.337774  0
O  O222  1  0.84668793  0.14005769  0.97974670  1  -1.165962  0  -0.330285  -0.560108  0  2.309342  0
O  O223  1  0.96331552  0.00649526  0.96170907  1  -1.217528  0  -0.754747  -1.069063  0  2.176529  0
O  O224  1  0.00019608  0.09805193  0.03736632  1  -1.262046  0  -0.662803  -0.981603  0  2.383292  0
O  O225  1  0.12642653  0.95325042  0.93081799  1  -1.234396  0  -0.638229  -0.950795  0  2.225209  0
O  O226  1  0.14490240  0.01103973  0.02482140  1  -1.222824  0  -0.743883  -1.056832  0  2.107579  0
O  O227  1  0.22007874  0.01646384  0.13863432  1  -1.248234  0  -0.639388  -0.88295  0  1.958527  0
O  O228  1  0.76240472  0.01497701  0.95847622  1  -1.267715  0  -0.596249  -0.778702  0  2.061164  0
O  O229  1  0.96116585  0.97575710  0.08526893  1  -1.220044  0  -0.742565  -1.05537  0  2.105712  0
O  O230  1  0.87640240  0.90438058  0.01436990  1  -1.235634  0  -0.642831  -0.96354  0  2.276489  0
O  O231  1  0.05203817  0.86616457  0.00448631  1  -1.218313  0  -0.757404  -1.074806  0  2.200239  0
O  O232  1  0.12077413  0.90632148  0.09615375  1  -1.228762  0  -0.65731  -0.979083  0  2.353224  0
O  O233  1  0.83514404  0.90544974  0.90376328  1  -1.250144  0  -0.644367  -0.900625  0  1.941258  0
O  O234  1  0.92502764  0.77962101  0.95300173  1  -1.171188  0  -0.315773  -0.54074  0  2.354638  0
O  O235  1  0.91719639  0.75619634  0.04711609  1  -1.188611  0  -0.34563  -0.619734  0  2.323366  0
O  O236  1  0.30632161  0.92324864  0.96244562  1  -1.213993  0  -0.699356  -0.932858  0  1.844955  0
O  O237  1  0.08049199  0.76065361  0.09941549  1  -1.175608  0  -0.325609  -0.556093  0  2.263657  0
O  O238  1  0.05334182  0.82420865  0.88166948  1  -1.234277  0  -0.652333  -0.896819  0  1.951094  0
O  O239  1  0.20269184  0.80786071  0.94075621  1  -1.27526  0  -0.595356  -0.774393  0  2.090247  0
O  O240  1  0.30277206  0.92545885  0.07494293  1  -1.260213  0  -0.590726  -0.811424  0  2.078076  0
O  O241  1  0.21481421  0.78475783  0.05109111  1  -1.185855  0  -0.334842  -0.605274  0  2.298991  0
O  O242  1  0.83394524  0.83649769  0.12194363  1  -1.263045  0  -0.563141  -0.746694  0  2.046832  0
O  O243  1  0.99809971  0.10896907  0.15061750  1  -1.238105  0  -0.646011  -0.907644  0  1.955441  0
O  O244  1  0.98029295  0.86631336  0.17309707  1  -1.20621  0  -0.346465  -0.620583  0  2.279745  0
O  O245  1  0.05887586  0.97164985  0.18834675  1  -1.155234  0  -0.311692  -0.542189  0  2.340421  0
O  O246  1  0.84409868  0.11663628  0.09746741  1  -1.270272  0  -0.603388  -0.791295  0  2.046774  0
O  O247  1  0.74924727  0.00428944  0.07097374  1  -1.264382  0  -0.690631  -0.973338  0  1.824112  0
F  F248  1  0.28379459  0.53437402  0.19890137  1  -0.62831  0  -0.093591  -0.130647  0  1.39628  0
F  F249  1  0.19981708  0.64381545  0.98684630  1  -0.63039  0  -0.089151  -0.138005  0  1.330546  0
F  F250  1  0.22324197  0.39539075  0.16324007  1  -0.625627  0  -0.097411  -0.137694  0  1.370744  0
F  F251  1  0.30924769  0.24879923  0.96885181  1  -0.632083  0  -0.104463  -0.151864  0  1.321882  0
F  F252  1  0.52658557  0.33982928  0.08400612  1  -0.625656  0  -0.091416  -0.126674  0  1.372257  0
F  F253  1  0.55260817  0.59994928  0.95871173  1  -0.626202  0  -0.093112  -0.12868  0  1.360741  0
F  F254  1  0.69677176  0.62941912  0.86852076  1  -0.631341  0  -0.094367  -0.134155  0  1.397561  0
F  F255  1  0.88696844  0.59930514  0.06731381  1  -0.623525  0  -0.107482  -0.14365  0  1.323706  0
F  F256  1  0.98995230  0.32769914  0.95743303  1  -0.629877  0  -0.105213  -0.141976  0  1.324723  0
F  F257  1  0.61625273  0.33635156  0.90861464  1  -0.63765  0  -0.100616  -0.140284  0  1.370959  0
F  F258  1  0.39801114  0.30708360  0.17466116  1  -0.632735  0  -0.099452  -0.139834  0  1.385276  0
F  F259  1  0.54362081  0.56543525  0.24751653  1  -0.628225  0  -0.087966  -0.131586  0  1.35506  0
F  F260  1  0.79933252  0.49170290  0.83274690  1  -0.638315  0  -0.101499  -0.141292  0  1.349812  0
F  F261  1  0.42081052  0.49734633  0.80083635  1  -0.635287  0  -0.114409  -0.153811  0  1.305749  0
F  F262  1  0.56106025  0.86367217  0.48547557  1  -0.631317  0  -0.108146  -0.148138  0  1.308297  0
F  F263  1  0.93367799  0.82254924  0.43333761  1  -0.633805  0  -0.099716  -0.136364  0  1.359653  0
F  F264  1  0.77173484  0.03294935  0.53126533  1  -0.638085  0  -0.098565  -0.137255  0  1.374205  0
F  F265  1  0.73577182  0.21749801  0.34318146  1  -0.627755  0  -0.110587  -0.147754  0  1.293875  0
F  F266  1  0.12444074  0.92405915  0.30017954  1  -0.619707  0  -0.105875  -0.143151  0  1.310826  0
F  F267  1  0.74570652  0.95637411  0.33384994  1  -0.626082  0  -0.098997  -0.136583  0  1.355986  0
F  F268  1  0.99800887  0.90246161  0.61314835  1  -0.632564  0  -0.091243  -0.13112  0  1.374027  0
F  F269  1  0.00339793  0.08607918  0.42527520  1  -0.639121  0  -0.097869  -0.133837  0  1.349571  0
F  F270  1  0.17806535  0.72735923  0.55602537  1  -0.62461  0  -0.095504  -0.129046  0  1.35012  0
F  F271  1  0.37938302  0.96797543  0.60816143  1  -0.632896  0  -0.101976  -0.141331  0  1.397581  0
F  F272  1  0.38729545  0.12387380  0.47613357  1  -0.625951  0  -0.104942  -0.142839  0  1.323141  0
F  F273  1  0.15426031  0.14350292  0.65936638  1  -0.639758  0  -0.09835  -0.137254  0  1.388947  0
F  F274  1  0.91469461  0.05441761  0.73690864  1  -0.628826  0  -0.111658  -0.149634  0  1.293003  0
F  F275  1  0.27979337  0.95886546  0.70014398  1  -0.629737  0  -0.098678  -0.138398  0  1.392486  0
