# generated using pymatgen
data_Ag7H12C8N19O9
_symmetry_space_group_name_H-M   'P 1'
_cell_length_a   9.35595348
_cell_length_b   9.35595288
_cell_length_c   14.55994271
_cell_angle_alpha   89.99999142
_cell_angle_beta   89.99996121
_cell_angle_gamma   94.79206846
_symmetry_Int_Tables_number   1
_chemical_formula_structural   Ag7H12C8N19O9
_chemical_formula_sum   'Ag14 H24 C16 N38 O18'
_cell_volume   1270.03292861
_cell_formula_units_Z   2
loop_
 _symmetry_equiv_pos_site_id
 _symmetry_equiv_pos_as_xyz
  1  'x, y, z'
loop_
 _atom_site_type_symbol
 _atom_site_label
 _atom_site_symmetry_multiplicity
 _atom_site_fract_x
 _atom_site_fract_y
 _atom_site_fract_z
 _atom_site_occupancy
 _atom_site_hle17_bader_spin_density
 _atom_site_hle17_ddec_charge
 _atom_site_hle17_ddec_spin_density
 _atom_site_hle17_ddec_sum_bond_order
 _atom_site_hle17_magmom
 _atom_site_hse06_10hf_bader_spin_density
 _atom_site_hse06_10hf_ddec_charge
 _atom_site_hse06_10hf_ddec_spin_density
 _atom_site_hse06_10hf_ddec_sum_bond_order
 _atom_site_hse06_10hf_magmom
 _atom_site_hse06_bader_spin_density
 _atom_site_hse06_ddec_charge
 _atom_site_hse06_ddec_spin_density
 _atom_site_hse06_ddec_sum_bond_order
 _atom_site_hse06_magmom
 _atom_site_pbe_bader_spin_density
 _atom_site_pbe_cm5_charge
 _atom_site_pbe_ddec_charge
 _atom_site_pbe_ddec_spin_density
 _atom_site_pbe_ddec_sum_bond_order
 _atom_site_pbe_magmom
Ag  Ag0  1  0.11504906  0.12603403  0.11904371  1  0  0.560717  0  1.365934  0  0  0.417717  0  1.807144  0  0  0.445529  0  1.762853  0  0  0.48721  0.395646  0  1.840843  0
Ag  Ag1  1  0.88495168  0.87396603  0.61904410  1  0  0.560719  0  1.365901  0  0  0.417729  0  1.807103  0  0  0.445537  0  1.762811  0  0  0.487211  0.395658  0  1.840799  0
Ag  Ag2  1  0.87396652  0.88495072  0.38095594  1  0  0.560732  0  1.365918  0  0  0.417728  0  1.807125  0  0  0.445538  0  1.762833  0  0  0.487213  0.395657  0  1.840822  0
Ag  Ag3  1  0.12603385  0.11504819  0.88095604  1  0  0.560729  0  1.365912  0  0  0.417733  0  1.807115  0  0  0.445542  0  1.762825  0  0  0.487214  0.395661  0  1.840812  0
Ag  Ag4  1  0.64642687  0.59489341  0.12003739  1  0  0.53432  0  1.37363  0  0  0.383962  0  1.815385  0  0  0.414077  0  1.770456  0  0  0.482238  0.36232  0  1.846579  0
Ag  Ag5  1  0.35357280  0.40510665  0.62003737  1  0  0.534306  0  1.373634  0  0  0.38396  0  1.815392  0  0  0.414075  0  1.770462  0  0  0.482234  0.362318  0  1.846587  0
Ag  Ag6  1  0.40510703  0.35357227  0.37996224  1  0  0.534316  0  1.373608  0  0  0.383964  0  1.815357  0  0  0.414076  0  1.770432  0  0  0.482245  0.362323  0  1.846553  0
Ag  Ag7  1  0.59489343  0.64642770  0.87996278  1  0  0.53433  0  1.373605  0  0  0.383969  0  1.815367  0  0  0.414082  0  1.770442  0  0  0.482236  0.362327  0  1.846562  0
Ag  Ag8  1  0.75718849  0.24281242  0.24999943  1  0  0.49777  0  1.433891  0  0  0.352921  0  1.898095  0  0  0.374501  0  1.852421  0  0  0.462868  0.339628  0  1.930575  0
Ag  Ag9  1  0.24281211  0.75718760  0.75000011  1  0  0.49776  0  1.4339  0  0  0.352904  0  1.898105  0  0  0.374484  0  1.852433  0  0  0.462873  0.339611  0  1.930586  0
Ag  Ag10  1  0.48146418  0.94226450  0.17062621  1  0  0.537926  0  1.416136  0  0  0.393286  0  1.877409  0  0  0.420838  0  1.825501  0  0  0.480798  0.373317  0  1.912777  0
Ag  Ag11  1  0.51853534  0.05773447  0.67062615  1  0  0.537908  0  1.416171  0  0  0.393248  0  1.87745  0  0  0.420807  0  1.825519  0  0  0.480781  0.37328  0  1.912817  0
Ag  Ag12  1  0.05773370  0.51853500  0.32937351  1  0  0.537931  0  1.416141  0  0  0.39327  0  1.877427  0  0  0.420834  0  1.825497  0  0  0.480785  0.373302  0  1.912793  0
Ag  Ag13  1  0.94226574  0.48146499  0.82937391  1  0  0.537927  0  1.416129  0  0  0.393277  0  1.877424  0  0  0.420842  0  1.825491  0  0  0.480785  0.37331  0  1.91279  0
H  H14  1  0.01944190  0.65740776  0.11599355  1  0  0.135562  0  0.965294  0  0  0.157785  0  1.02365  0  0  0.158574  0  1.024342  0  0  0.100731  0.157094  0  1.023384  0
H  H15  1  0.98055778  0.34259229  0.61599327  1  0  0.135566  0  0.965294  0  0  0.157792  0  1.023629  0  0  0.158581  0  1.02432  0  0  0.100742  0.157101  0  1.023363  0
H  H16  1  0.34259196  0.98055886  0.38400620  1  0  0.135574  0  0.965292  0  0  0.157804  0  1.023634  0  0  0.158594  0  1.024326  0  0  0.100731  0.157113  0  1.023369  0
H  H17  1  0.65740858  0.01944218  0.88400608  1  0  0.135553  0  0.965291  0  0  0.157779  0  1.023637  0  0  0.158567  0  1.024331  0  0  0.100725  0.157088  0  1.023372  0
H  H18  1  0.11382844  0.81134803  0.06283054  1  0  0.14165  0  0.954181  0  0  0.160797  0  1.015067  0  0  0.162524  0  1.014537  0  0  0.099353  0.159341  0  1.015713  0
H  H19  1  0.88617130  0.18865204  0.56283031  1  0  0.141671  0  0.954155  0  0  0.160813  0  1.015037  0  0  0.162538  0  1.014509  0  0  0.099359  0.159357  0  1.015682  0
H  H20  1  0.18865291  0.88617121  0.43716991  1  0  0.141713  0  0.954196  0  0  0.160866  0  1.015062  0  0  0.162591  0  1.014533  0  0  0.099382  0.15941  0  1.015708  0
H  H21  1  0.81134856  0.11382875  0.93716971  1  0  0.141695  0  0.954203  0  0  0.160859  0  1.015046  0  0  0.162584  0  1.014517  0  0  0.099378  0.159404  0  1.015691  0
H  H22  1  0.97368015  0.70670997  0.00387958  1  0  0.132229  0  0.9656  0  0  0.149092  0  1.030063  0  0  0.149613  0  1.031965  0  0  0.098591  0.148629  0  1.02876  0
H  H23  1  0.02632072  0.29329013  0.50387971  1  0  0.132186  0  0.965654  0  0  0.149062  0  1.030089  0  0  0.149584  0  1.03199  0  0  0.098586  0.148599  0  1.028785  0
H  H24  1  0.29329048  0.02632089  0.49612071  1  0  0.132247  0  0.965591  0  0  0.149108  0  1.030056  0  0  0.149629  0  1.031958  0  0  0.098603  0.148645  0  1.028754  0
H  H25  1  0.70670994  0.97368012  0.99612048  1  0  0.132246  0  0.965584  0  0  0.149105  0  1.030049  0  0  0.149627  0  1.031951  0  0  0.098595  0.148643  0  1.028746  0
H  H26  1  0.18563043  0.51267432  0.14082741  1  0  0.123878  0  0.967774  0  0  0.142168  0  1.038804  0  0  0.143918  0  1.036832  0  0  0.095489  0.140784  0  1.040473  0
H  H27  1  0.81437028  0.48732573  0.64082718  1  0  0.123869  0  0.967778  0  0  0.14215  0  1.038813  0  0  0.1439  0  1.036841  0  0  0.095487  0.140767  0  1.040482  0
H  H28  1  0.48732499  0.81437055  0.35917297  1  0  0.12386  0  0.967786  0  0  0.142151  0  1.038821  0  0  0.143901  0  1.03685  0  0  0.095482  0.140767  0  1.04049  0
H  H29  1  0.51267442  0.18562943  0.85917290  1  0  0.123878  0  0.967758  0  0  0.142161  0  1.038798  0  0  0.14391  0  1.036828  0  0  0.095484  0.140777  0  1.040467  0
H  H30  1  0.19596622  0.45373270  0.02592861  1  0  0.136466  0  0.96004  0  0  0.152745  0  1.023393  0  0  0.153422  0  1.0253  0  0  0.09897  0.152366  0  1.021708  0
H  H31  1  0.80403355  0.54626739  0.52592769  1  0  0.136453  0  0.960046  0  0  0.152723  0  1.023406  0  0  0.153399  0  1.025312  0  0  0.098957  0.152344  0  1.021721  0
H  H32  1  0.54626805  0.80403357  0.47407176  1  0  0.136465  0  0.960032  0  0  0.152744  0  1.02339  0  0  0.153421  0  1.025295  0  0  0.098963  0.152365  0  1.021705  0
H  H33  1  0.45373230  0.19596638  0.97407172  1  0  0.136471  0  0.960022  0  0  0.152746  0  1.023381  0  0  0.153423  0  1.025287  0  0  0.098968  0.152368  0  1.021696  0
H  H34  1  0.32086301  0.59587383  0.06742668  1  0  0.139343  0  0.952401  0  0  0.158037  0  1.015756  0  0  0.15977  0  1.015098  0  0  0.09722  0.156714  0  1.016228  0
H  H35  1  0.67913778  0.40412624  0.56742720  1  0  0.139308  0  0.952447  0  0  0.158012  0  1.015786  0  0  0.159743  0  1.015131  0  0  0.097211  0.156689  0  1.016258  0
H  H36  1  0.40412593  0.67913723  0.43257301  1  0  0.139343  0  0.9524  0  0  0.158041  0  1.015752  0  0  0.159773  0  1.015096  0  0  0.097222  0.156719  0  1.016224  0
H  H37  1  0.59587447  0.32086273  0.93257358  1  0  0.139334  0  0.95241  0  0  0.158034  0  1.015752  0  0  0.159766  0  1.015096  0  0  0.097219  0.156711  0  1.016223  0
C  C38  1  0.90370394  0.84061461  0.11041984  1  0  0.391955  0  3.717574  0  0  0.373913  0  3.980229  0  0  0.38681  0  3.997709  0  0  0.229435  0.364763  0  3.969024  0
C  C39  1  0.09629583  0.15938653  0.61041996  1  0  0.392023  0  3.717515  0  0  0.373926  0  3.980227  0  0  0.386823  0  3.997707  0  0  0.229418  0.364776  0  3.969022  0
C  C40  1  0.15938610  0.09629859  0.38958048  1  0  0.391958  0  3.717591  0  0  0.373851  0  3.980313  0  0  0.386748  0  3.997793  0  0  0.22946  0.364702  0  3.969107  0
C  C41  1  0.84061452  0.90370353  0.88958020  1  0  0.39205  0  3.717571  0  0  0.374008  0  3.980207  0  0  0.386905  0  3.997685  0  0  0.229475  0.364858  0  3.969002  0
C  C42  1  0.00975906  0.74966142  0.07075711  1  0  -0.389713  0  3.661739  0  0  -0.465502  0  3.881886  0  0  -0.469865  0  3.891499  0  0  -0.242959  -0.462001  0  3.875399  0
C  C43  1  0.99024066  0.25033865  0.57075751  1  0  -0.389722  0  3.661823  0  0  -0.46549  0  3.881962  0  0  -0.469851  0  3.891575  0  0  -0.242949  -0.461989  0  3.875473  0
C  C44  1  0.25033885  0.99024049  0.42924266  1  0  -0.389836  0  3.661825  0  0  -0.465623  0  3.882004  0  0  -0.469985  0  3.891613  0  0  -0.243022  -0.462122  0  3.875516  0
C  C45  1  0.74966156  0.00975947  0.92924250  1  0  -0.389816  0  3.661805  0  0  -0.465609  0  3.881951  0  0  -0.46997  0  3.891564  0  0  -0.242997  -0.462108  0  3.875463  0
C  C46  1  0.35777648  0.38665907  0.11462535  1  0  0.381749  0  3.736247  0  0  0.367415  0  3.994967  0  0  0.379511  0  4.013901  0  0  0.227894  0.358694  0  3.982349  0
C  C47  1  0.64222418  0.61333992  0.61462450  1  0  0.381735  0  3.736311  0  0  0.367399  0  3.995047  0  0  0.379497  0  4.013976  0  0  0.227877  0.358678  0  3.982429  0
C  C48  1  0.61333996  0.64222280  0.38537567  1  0  0.381733  0  3.736327  0  0  0.367453  0  3.994997  0  0  0.37955  0  4.013927  0  0  0.227905  0.358734  0  3.982376  0
C  C49  1  0.38665933  0.35777610  0.88537495  1  0  0.381737  0  3.736315  0  0  0.367412  0  3.995029  0  0  0.379509  0  4.013962  0  0  0.227899  0.358691  0  3.98241  0
C  C50  1  0.26034814  0.49412835  0.08477979  1  0  -0.389266  0  3.68297  0  0  -0.466066  0  3.907275  0  0  -0.470161  0  3.916613  0  0  -0.242123  -0.462605  0  3.900605  0
C  C51  1  0.73965255  0.50587065  0.58477959  1  0  -0.389217  0  3.682983  0  0  -0.466002  0  3.90727  0  0  -0.470096  0  3.91661  0  0  -0.242108  -0.462542  0  3.900599  0
C  C52  1  0.50587111  0.73965283  0.41522058  1  0  -0.389248  0  3.682995  0  0  -0.466068  0  3.907281  0  0  -0.470163  0  3.916619  0  0  -0.242121  -0.462607  0  3.900611  0
C  C53  1  0.49412833  0.26034820  0.91521983  1  0  -0.389254  0  3.682974  0  0  -0.46605  0  3.907275  0  0  -0.470146  0  3.916615  0  0  -0.242124  -0.462589  0  3.900604  0
N  N54  1  0.76716157  0.79613486  0.13153740  1  0  -0.304187  0  3.231647  0  0  -0.232933  0  3.530333  0  0  -0.251594  0  3.544734  0  0  -0.261403  -0.219525  0  3.519977  0
N  N55  1  0.23283817  0.20386627  0.63153676  1  0  -0.304196  0  3.231655  0  0  -0.232953  0  3.530383  0  0  -0.251614  0  3.544786  0  0  -0.261414  -0.219546  0  3.520028  0
N  N56  1  0.20386601  0.23283791  0.36846293  1  0  -0.304182  0  3.231643  0  0  -0.232903  0  3.530337  0  0  -0.251563  0  3.54474  0  0  -0.261428  -0.219495  0  3.519981  0
N  N57  1  0.79613553  0.76716208  0.86846337  1  0  -0.304265  0  3.231767  0  0  -0.233016  0  3.530457  0  0  -0.251679  0  3.544861  0  0  -0.261425  -0.219609  0  3.520102  0
N  N58  1  0.70825675  0.91118945  0.16686104  1  0  -0.099781  0  3.300069  0  0  -0.049506  0  3.616129  0  0  -0.054992  0  3.627332  0  0  -0.139956  -0.045274  0  3.608092  0
N  N59  1  0.29174295  0.08881166  0.66686039  1  0  -0.099722  0  3.300071  0  0  -0.049427  0  3.616113  0  0  -0.054914  0  3.627319  0  0  -0.139923  -0.045195  0  3.608075  0
N  N60  1  0.08881175  0.29174230  0.33313933  1  0  -0.099769  0  3.300008  0  0  -0.049488  0  3.616057  0  0  -0.054976  0  3.627262  0  0  -0.139954  -0.045256  0  3.60802  0
N  N61  1  0.91118876  0.70825769  0.83313972  1  0  -0.099818  0  3.300017  0  0  -0.049541  0  3.616073  0  0  -0.055029  0  3.62728  0  0  -0.139984  -0.045309  0  3.608037  0
N  N62  1  0.80422407  0.02196937  0.16699018  1  0  -0.080302  0  3.129688  0  0  -0.050578  0  3.430347  0  0  -0.051073  0  3.441619  0  0  -0.107014  -0.050035  0  3.423465  0
N  N63  1  0.19577564  0.97803175  0.66698948  1  0  -0.080355  0  3.129719  0  0  -0.050641  0  3.430375  0  0  -0.051137  0  3.441648  0  0  -0.107008  -0.050099  0  3.423492  0
N  N64  1  0.97803133  0.19577512  0.33301070  1  0  -0.080298  0  3.129638  0  0  -0.050585  0  3.430298  0  0  -0.05108  0  3.441571  0  0  -0.106984  -0.050043  0  3.423416  0
N  N65  1  0.02196917  0.80422487  0.83301010  1  0  -0.080182  0  3.129517  0  0  -0.050452  0  3.430163  0  0  -0.050949  0  3.441439  0  0  -0.106943  -0.04991  0  3.423281  0
N  N66  1  0.92728930  0.98059719  0.13217403  1  0  -0.292919  0  3.218307  0  0  -0.223478  0  3.520682  0  0  -0.242062  0  3.534093  0  0  -0.248903  -0.210857  0  3.513012  0
N  N67  1  0.07271044  0.01940394  0.63217417  1  0  -0.292952  0  3.218186  0  0  -0.223476  0  3.520547  0  0  -0.242059  0  3.533959  0  0  -0.248928  -0.210854  0  3.512876  0
N  N68  1  0.01940320  0.07271035  0.36782630  1  0  -0.292911  0  3.218214  0  0  -0.223435  0  3.520591  0  0  -0.242017  0  3.534001  0  0  -0.248915  -0.210814  0  3.51292  0
N  N69  1  0.98059727  0.92728963  0.86782527  1  0  -0.292974  0  3.218256  0  0  -0.223534  0  3.520638  0  0  -0.242116  0  3.534049  0  0  -0.248944  -0.210912  0  3.512968  0
N  N70  1  0.49908982  0.41089226  0.13219270  1  0  -0.307732  0  3.2399  0  0  -0.231329  0  3.536469  0  0  -0.251538  0  3.552297  0  0  -0.258136  -0.217537  0  3.525523  0
N  N71  1  0.50091090  0.58910780  0.63219260  1  0  -0.307743  0  3.239956  0  0  -0.231358  0  3.53654  0  0  -0.251566  0  3.552368  0  0  -0.258154  -0.217565  0  3.525594  0
N  N72  1  0.58910744  0.50091086  0.36780761  1  0  -0.307681  0  3.239884  0  0  -0.23133  0  3.536464  0  0  -0.251538  0  3.552289  0  0  -0.258155  -0.217542  0  3.525522  0
N  N73  1  0.41089196  0.49908912  0.86780687  1  0  -0.307698  0  3.239896  0  0  -0.23131  0  3.536471  0  0  -0.251518  0  3.552298  0  0  -0.258132  -0.217517  0  3.525524  0
N  N74  1  0.54551731  0.28396117  0.15787686  1  0  -0.08498  0  3.127964  0  0  -0.052111  0  3.424547  0  0  -0.054723  0  3.43794  0  0  -0.110083  -0.049898  0  3.4151  0
N  N75  1  0.45448446  0.71603888  0.65787608  1  0  -0.085007  0  3.128088  0  0  -0.052129  0  3.424662  0  0  -0.054742  0  3.438056  0  0  -0.110068  -0.049916  0  3.415215  0
N  N76  1  0.71603871  0.45448288  0.34212411  1  0  -0.085077  0  3.128101  0  0  -0.052207  0  3.424695  0  0  -0.05482  0  3.438087  0  0  -0.110141  -0.049993  0  3.415249  0
N  N77  1  0.28396072  0.54551711  0.84212342  1  0  -0.08499  0  3.12796  0  0  -0.052121  0  3.424544  0  0  -0.054734  0  3.437937  0  0  -0.110082  -0.049909  0  3.415098  0
N  N78  1  0.43707952  0.18611483  0.15618114  1  0  -0.078757  0  3.16805  0  0  -0.038367  0  3.470472  0  0  -0.04146  0  3.481735  0  0  -0.112003  -0.035786  0  3.461839  0
N  N79  1  0.56292118  0.81388521  0.65618099  1  0  -0.078654  0  3.168121  0  0  -0.038248  0  3.47053  0  0  -0.041345  0  3.481797  0  0  -0.111969  -0.035669  0  3.461898  0
N  N80  1  0.81388473  0.56291927  0.34381914  1  0  -0.078676  0  3.168199  0  0  -0.038282  0  3.470603  0  0  -0.041376  0  3.481868  0  0  -0.111939  -0.035702  0  3.46197  0
N  N81  1  0.18611461  0.43707964  0.84381851  1  0  -0.078748  0  3.168032  0  0  -0.038348  0  3.470442  0  0  -0.041444  0  3.481706  0  0  -0.112  -0.035769  0  3.46181  0
N  N82  1  0.31808335  0.24685809  0.12932392  1  0  -0.311317  0  3.228661  0  0  -0.241564  0  3.528439  0  0  -0.260608  0  3.54308  0  0  -0.258515  -0.227616  0  3.517845  0
N  N83  1  0.68191729  0.75314090  0.62932372  1  0  -0.311337  0  3.228647  0  0  -0.241609  0  3.528455  0  0  -0.260652  0  3.543098  0  0  -0.25852  -0.227659  0  3.517859  0
N  N84  1  0.75314155  0.68191714  0.37067640  1  0  -0.311336  0  3.228697  0  0  -0.241584  0  3.528448  0  0  -0.260628  0  3.543091  0  0  -0.258511  -0.227635  0  3.517852  0
N  N85  1  0.24685892  0.31808284  0.87067575  1  0  -0.311333  0  3.228665  0  0  -0.241582  0  3.52844  0  0  -0.260625  0  3.54308  0  0  -0.258523  -0.227633  0  3.517844  0
N  N86  1  0.61071004  0.11136808  0.45479011  1  0  0.703129  0  4.111277  0  0  0.740736  0  4.381085  0  0  0.768867  0  4.389956  0  0  0.0943  0.737521  0  4.351415  0
N  N87  1  0.38929034  0.88863187  0.95479003  1  0  0.703141  0  4.111233  0  0  0.740733  0  4.381068  0  0  0.768864  0  4.38994  0  0  0.094281  0.737517  0  4.351399  0
N  N88  1  0.88863182  0.38929007  0.04521013  1  0  0.702825  0  4.111623  0  0  0.740516  0  4.381358  0  0  0.768651  0  4.390227  0  0  0.094257  0.737463  0  4.351492  0
N  N89  1  0.11136793  0.61071001  0.54521020  1  0  0.702819  0  4.111638  0  0  0.740508  0  4.381372  0  0  0.76864  0  4.390242  0  0  0.094256  0.73745  0  4.351511  0
N  N90  1  0.21995475  0.78004457  0.25000021  1  0  0.687588  0  4.106752  0  0  0.730995  0  4.356365  0  0  0.75985  0  4.366651  0  0  0.091588  0.711691  0  4.348748  0
N  N91  1  0.78004478  0.21995544  0.74999934  1  0  0.687881  0  4.106697  0  0  0.731312  0  4.35627  0  0  0.76017  0  4.366556  0  0  0.091723  0.712009  0  4.348655  0
O  O92  1  0.54085493  0.18808071  0.50877248  1  0  -0.507309  0  1.828309  0  0  -0.484288  0  2.090707  0  0  -0.501803  0  2.077897  0  0  -0.209133  -0.477  0  2.093209  0
O  O93  1  0.45914486  0.81191938  0.00877187  1  0  -0.507303  0  1.828334  0  0  -0.484275  0  2.090731  0  0  -0.501788  0  2.07792  0  0  -0.20912  -0.476988  0  2.093231  0
O  O94  1  0.81191928  0.45914521  0.99122760  1  0  -0.507208  0  1.828389  0  0  -0.484218  0  2.090776  0  0  -0.501733  0  2.077965  0  0  -0.20913  -0.476985  0  2.093222  0
O  O95  1  0.18808105  0.54085473  0.49122783  1  0  -0.507197  0  1.828381  0  0  -0.484214  0  2.090777  0  0  -0.501728  0  2.077967  0  0  -0.209126  -0.476979  0  2.093225  0
O  O96  1  0.70372594  0.03504028  0.48784036  1  0  -0.491853  0  1.84122  0  0  -0.480007  0  2.101776  0  0  -0.49481  0  2.08964  0  0  -0.197942  -0.474594  0  2.103569  0
O  O97  1  0.29627440  0.96495966  0.98784031  1  0  -0.49185  0  1.841233  0  0  -0.479996  0  2.101794  0  0  -0.494799  0  2.08966  0  0  -0.197929  -0.474583  0  2.103585  0
O  O98  1  0.96495958  0.29627432  0.01215916  1  0  -0.491688  0  1.841349  0  0  -0.479894  0  2.101925  0  0  -0.494703  0  2.089802  0  0  -0.19787  -0.474536  0  2.10366  0
O  O99  1  0.03503914  0.70372577  0.51215925  1  0  -0.491711  0  1.841347  0  0  -0.479907  0  2.101917  0  0  -0.494722  0  2.089811  0  0  -0.19789  -0.474547  0  2.103654  0
O  O100  1  0.58440538  0.11170588  0.36928772  1  0  -0.486962  0  1.839072  0  0  -0.474337  0  2.110157  0  0  -0.489097  0  2.096347  0  0  -0.202062  -0.46952  0  2.114024  0
O  O101  1  0.41559402  0.88829410  0.86928694  1  0  -0.486994  0  1.839017  0  0  -0.474365  0  2.11012  0  0  -0.489127  0  2.096311  0  0  -0.202069  -0.469543  0  2.113975  0
O  O102  1  0.88829315  0.41559477  0.13071321  1  0  -0.486891  0  1.839111  0  0  -0.474309  0  2.110215  0  0  -0.489071  0  2.096405  0  0  -0.202088  -0.469537  0  2.114001  0
O  O103  1  0.11170651  0.58440529  0.63071259  1  0  -0.486873  0  1.839122  0  0  -0.474285  0  2.110213  0  0  -0.489045  0  2.096403  0  0  -0.202074  -0.469516  0  2.11401  0
O  O104  1  0.25275251  0.90912552  0.22400284  1  0  -0.460653  0  1.925567  0  0  -0.430486  0  2.192408  0  0  -0.450426  0  2.18166  0  0  -0.195507  -0.416635  0  2.200749  0
O  O105  1  0.74724812  0.09087450  0.72399993  1  0  -0.460844  0  1.925694  0  0  -0.430653  0  2.192498  0  0  -0.450572  0  2.181693  0  0  -0.195589  -0.416801  0  2.200841  0
O  O106  1  0.09087288  0.74724724  0.27599828  1  0  -0.460771  0  1.925636  0  0  -0.430543  0  2.192418  0  0  -0.450473  0  2.181649  0  0  -0.195535  -0.416691  0  2.200758  0
O  O107  1  0.90912546  0.25275169  0.77599804  1  0  -0.460785  0  1.92555  0  0  -0.430624  0  2.19238  0  0  -0.450566  0  2.181634  0  0  -0.195564  -0.416774  0  2.200724  0
O  O108  1  0.31078969  0.68920944  0.25000088  1  0  -0.451662  0  1.802317  0  0  -0.438043  0  2.034382  0  0  -0.452768  0  2.025726  0  0  -0.167399  -0.427865  0  2.039209  0
O  O109  1  0.68920976  0.31078951  0.74999935  1  0  -0.451772  0  1.802384  0  0  -0.438142  0  2.034419  0  0  -0.452866  0  2.025756  0  0  -0.167422  -0.427965  0  2.039245  0
