# generated using pymatgen
data_Zn4H11C26O16F3
_symmetry_space_group_name_H-M   'P 1'
_cell_length_a   18.66539285
_cell_length_b   18.66628406
_cell_length_c   22.33216808
_cell_angle_alpha   114.54668927
_cell_angle_beta   114.35363434
_cell_angle_gamma   90.09535418
_symmetry_Int_Tables_number   1
_chemical_formula_structural   Zn4H11C26O16F3
_chemical_formula_sum   'Zn8 H22 C52 O32 F6'
_cell_volume   6305.80554416
_cell_formula_units_Z   2
loop_
 _symmetry_equiv_pos_site_id
 _symmetry_equiv_pos_as_xyz
  1  'x, y, z'
loop_
 _atom_site_type_symbol
 _atom_site_label
 _atom_site_symmetry_multiplicity
 _atom_site_fract_x
 _atom_site_fract_y
 _atom_site_fract_z
 _atom_site_occupancy
 _atom_site_pbe_bader_charge
 _atom_site_pbe_bader_spin_density
 _atom_site_pbe_cm5_charge
 _atom_site_pbe_ddec_charge
 _atom_site_pbe_ddec_spin_density
 _atom_site_pbe_ddec_sum_bond_order
 _atom_site_pbe_magmom
Zn  Zn0  1  0.46619387  0.88438750  0.43724327  1  1.316857  0  0.672045  0.960283  0  2.396707  0
Zn  Zn1  1  0.05688429  0.46827564  0.43814691  1  1.314349  0  0.675889  0.965401  0  2.367527  0
Zn  Zn2  1  0.46617586  0.05460782  0.43583465  1  1.312691  0  0.67538  0.96422  0  2.368337  0
Zn  Zn3  1  0.61921279  0.03094667  0.55741226  1  1.318114  0  0.669042  0.966784  0  2.355363  0
Zn  Zn4  1  0.03002921  0.61841557  0.55934345  1  1.315988  0  0.669583  0.967303  0  2.35443  0
Zn  Zn5  1  0.88441207  0.46642190  0.43709331  1  1.315541  0  0.671609  0.958052  0  2.404696  0
Zn  Zn6  1  0.45069274  0.03333360  0.56606579  1  1.315203  0  0.670265  0.968672  0  2.368193  0
Zn  Zn7  1  0.02917419  0.44502244  0.56220369  1  1.306613  0  0.669933  0.96873  0  2.361635  0
H  H8  1  0.83061089  0.30596987  0.55872598  1  0.111903  0  0.118165  0.137788  0  0.975351  0
H  H9  1  0.29853398  0.20455099  0.41719895  1  0.100619  0  0.10905  0.122869  0  0.995751  0
H  H10  1  0.22459500  0.31684047  0.43299943  1  0.108296  0  0.108867  0.122686  0  0.995382  0
H  H11  1  0.82722108  0.74818796  0.54930436  1  0.12336  0  0.122595  0.162527  0  0.977905  0
H  H12  1  0.75240001  0.83172136  0.51947363  1  0.135676  0  0.122884  0.162546  0  0.976922  0
H  H13  1  0.33645270  0.66713261  0.95214837  1  0.102436  0  0.120466  0.145527  0  0.960026  0
H  H14  1  0.67220117  0.33506857  0.95197804  1  0.118431  0  0.119899  0.144278  0  0.961748  0
H  H15  1  0.28856350  0.84307218  0.55054343  1  0.112238  0  0.118683  0.138347  0  0.975343  0
H  H16  1  0.22724997  0.85258097  0.95501249  1  0.100674  0  0.118237  0.129348  0  0.963744  0
H  H17  1  0.85819353  0.22590729  0.95831424  1  0.097248  0  0.118026  0.128726  0  0.963853  0
H  H18  1  0.16444033  0.83144121  0.04428287  1  0.118868  0  0.120146  0.131177  0  0.96284  0
H  H19  1  0.83443176  0.16470251  0.04764887  1  0.131011  0  0.120087  0.13131  0  0.96224  0
H  H20  1  0.70815927  0.31156717  0.41768043  1  0.111454  0  0.115641  0.120174  0  0.986893  0
H  H21  1  0.31525961  0.71293845  0.42531974  1  0.094472  0  0.115093  0.117645  0  0.989451  0
H  H22  1  0.58835326  0.28240626  0.40207461  1  0.602988  0  0.343895  0.363374  0  0.871134  0
H  H23  1  0.27960235  0.59550616  0.40500092  1  0.595598  0  0.343116  0.362834  0  0.871263  0
H  H24  1  0.12234728  0.26540374  0.53741537  1  0.628931  0  0.323382  0.356926  0  0.908927  0
H  H25  1  0.34937104  0.20588243  0.60724337  1  0.628418  0  0.322712  0.356723  0  0.910321  0
H  H26  1  0.25615280  0.58333387  0.01267071  1  0.632949  0  0.340305  0.369118  0  0.872042  0
H  H27  1  0.58597243  0.25674090  0.01180883  1  0.604775  0  0.340331  0.369619  0  0.870328  0
H  H28  1  0.75010988  0.19203920  0.52039863  1  0.081531  0  0.110737  0.145732  0  1.003194  0
H  H29  1  0.18795050  0.75637674  0.52361726  1  0.108315  0  0.111185  0.145843  0  1.002401  0
C  C30  1  0.60770461  0.09716011  0.69848596  1  1.646601  0  0.231409  0.680868  0  4.239314  0
C  C31  1  0.86234064  0.35760690  0.22144532  1  -0.102275  0  -0.041571  -0.192843  0  3.97045  0
C  C32  1  0.68879214  0.80429358  0.49143823  1  0.195572  0  -0.100277  -0.345753  0  3.869885  0
C  C33  1  0.29824666  0.70316498  0.97303658  1  -0.070442  0  -0.080344  -0.237319  0  3.61943  0
C  C34  1  0.70780818  0.29718284  0.97354277  1  -0.069704  0  -0.079308  -0.235031  0  3.617044  0
C  C35  1  0.35873148  0.85889072  0.22004571  1  -0.20253  0  -0.041685  -0.191122  0  3.966991  0
C  C36  1  0.14478709  0.63900534  0.77645600  1  0.082786  0  -0.046314  -0.190912  0  3.981116  0
C  C37  1  0.64901340  0.13806458  0.77809006  1  -0.095721  0  -0.047327  -0.19433  0  3.980956  0
C  C38  1  0.26309751  0.69134142  0.02234292  1  0.603719  0  0.084842  0.221041  0  3.773715  0
C  C39  1  0.69457784  0.26310939  0.02296767  1  0.604199  0  0.08508  0.219187  0  3.772594  0
C  C40  1  0.10564668  0.59878788  0.69680457  1  1.599375  0  0.232562  0.681939  0  4.233695  0
C  C41  1  0.28688413  0.78540339  0.07484616  1  0.084635  0  0.003624  0.007713  0  3.796936  0
C  C42  1  0.78823866  0.28709961  0.07633267  1  0.133305  0  0.003554  0.005538  0  3.802068  0
C  C43  1  0.17899345  0.70238265  0.97270787  1  0.604703  0  0.10583  0.189418  0  3.727086  0
C  C44  1  0.70625998  0.17852580  0.97433700  1  0.596109  0  0.106123  0.19469  0  3.720511  0
C  C45  1  0.21340025  0.71269060  0.92174407  1  0.099446  0  0.005324  0.083247  0  3.823969  0
C  C46  1  0.71818298  0.21178386  0.92336672  1  0.147793  0  0.003606  0.079326  0  3.827619  0
C  C47  1  0.20204003  0.79483828  0.02302014  1  -0.054549  0  -0.066914  -0.129758  0  3.636582  0
C  C48  1  0.79831654  0.20184184  0.02548464  1  -0.055721  0  -0.067599  -0.132195  0  3.640377  0
C  C49  1  0.23719941  0.80685248  0.97440226  1  -0.031068  0  -0.070504  -0.146026  0  3.621099  0
C  C50  1  0.81184019  0.23615452  0.97700252  1  -0.039666  0  -0.069793  -0.144046  0  3.621346  0
C  C51  1  0.32484712  0.82440073  0.15277329  1  -0.098738  0  -0.022277  -0.001712  0  4.074614  0
C  C52  1  0.82694670  0.32497801  0.15421386  1  -0.202891  0  -0.022837  0.000302  0  4.075466  0
C  C53  1  0.39860174  0.89927420  0.29959972  1  1.700458  0  0.232985  0.679406  0  4.236945  0
C  C54  1  0.90201873  0.39676459  0.30095715  1  1.708769  0  0.232455  0.679709  0  4.237049  0
C  C55  1  0.17640375  0.67341166  0.84371953  1  -0.278856  0  -0.029718  -0.031513  0  4.089956  0
C  C56  1  0.32013797  0.79566423  0.02317767  1  0.625442  0  0.115557  0.288624  0  3.731985  0
C  C57  1  0.68100145  0.17283085  0.84536036  1  -0.225591  0  -0.028183  -0.027231  0  4.08698  0
C  C58  1  0.72795819  0.29245250  0.46126821  1  -0.129554  0  -0.071907  -0.138824  0  3.973151  0
C  C59  1  0.28914870  0.73485409  0.46397571  1  0.020769  0  -0.071564  -0.136073  0  3.971059  0
C  C60  1  0.80567544  0.31960857  0.51209682  1  0.040561  0  -0.080216  -0.192476  0  3.875964  0
C  C61  1  0.30958374  0.81459703  0.50905228  1  -0.081106  0  -0.079771  -0.192167  0  3.870094  0
C  C62  1  0.79990666  0.31950263  0.02471597  1  0.613083  0  0.115406  0.28931  0  3.73195  0
C  C63  1  0.66706436  0.24081480  0.45904798  1  0.449917  0  0.097441  0.353037  0  4.075795  0
C  C64  1  0.23669240  0.67403736  0.46105324  1  0.420238  0  0.097592  0.350924  0  4.073221  0
C  C65  1  0.68671427  0.19206017  0.49245261  1  0.060705  0  -0.119724  -0.386555  0  3.85755  0
C  C66  1  0.18722745  0.69299074  0.49391974  1  0.079907  0  -0.118769  -0.382959  0  3.850491  0
C  C67  1  0.22781299  0.28131172  0.46204091  1  0.025547  0  -0.102764  -0.158718  0  4.01586  0
C  C68  1  0.28222666  0.22746502  0.46239096  1  0.067268  0  -0.103628  -0.159945  0  4.016824  0
C  C69  1  0.17489149  0.29066907  0.49114739  1  0.467017  0  0.066788  0.137893  0  4.061239  0
C  C70  1  0.32042941  0.20384258  0.51585106  1  0.500071  0  0.067215  0.139117  0  4.059602  0
C  C71  1  0.36308464  0.86906955  0.50478880  1  1.551399  0  0.221467  0.640881  0  4.176868  0
C  C72  1  0.86254685  0.37007854  0.50748497  1  1.565409  0  0.219981  0.638955  0  4.18254  0
C  C73  1  0.63206002  0.13810712  0.49453294  1  1.518873  0  0.212358  0.665282  0  4.182296  0
C  C74  1  0.13305321  0.63703083  0.49455086  1  1.521269  0  0.213375  0.664424  0  4.184714  0
C  C75  1  0.37054143  0.14218658  0.50698188  1  1.509503  0  0.215455  0.536295  0  4.220279  0
C  C76  1  0.12580722  0.35335170  0.49251281  1  1.510838  0  0.216219  0.538949  0  4.220966  0
C  C77  1  0.63343404  0.86065189  0.49464895  1  1.567223  0  0.220012  0.66769  0  4.17947  0
C  C78  1  0.85986328  0.63265720  0.50227255  1  1.582107  0  0.219185  0.668085  0  4.179555  0
C  C79  1  0.72378526  0.66784901  0.45669520  1  0.467816  0  0.115773  0.238729  0  4.058706  0
C  C80  1  0.66782245  0.72319485  0.45767361  1  0.325434  0  0.11553  0.238054  0  4.059234  0
C  C81  1  0.80254464  0.68697456  0.50482180  1  0.101795  0  -0.100707  -0.347855  0  3.871316  0
O  O82  1  0.50099804  0.00095649  0.49991677  1  -1.226229  0  -0.571756  -1.033581  0  2.53336  0
O  O83  1  0.10032976  0.66995385  0.53742153  1  -1.154151  0  -0.331528  -0.568669  0  2.281175  0
O  O84  1  0.66664851  0.10073270  0.53237925  1  -1.164878  0  -0.331112  -0.567099  0  2.283181  0
O  O85  1  0.53144689  0.07576224  0.67005086  1  -1.126005  0  -0.312844  -0.541949  0  2.277524  0
O  O86  1  0.09718150  0.52214921  0.66626870  1  -1.155327  0  -0.31324  -0.542958  0  2.267255  0
O  O87  1  0.41878685  0.97589867  0.33036733  1  -1.118529  0  -0.30822  -0.536396  0  2.272982  0
O  O88  1  0.97858295  0.40804994  0.33249524  1  -1.169756  0  -0.309104  -0.540297  0  2.271816  0
O  O89  1  0.00073105  0.50026454  0.50024615  1  -1.21591  0  -0.57172  -1.033123  0  2.533908  0
O  O90  1  0.65074864  0.08650124  0.66476101  1  -1.147719  0  -0.309133  -0.540163  0  2.26688  0
O  O91  1  0.08336754  0.64370335  0.66522061  1  -1.150923  0  -0.308489  -0.539086  0  2.272814  0
O  O92  1  0.40972513  0.85407162  0.33132936  1  -1.150243  0  -0.309946  -0.53681  0  2.277198  0
O  O93  1  0.85580565  0.41621411  0.33176888  1  -1.146766  0  -0.309504  -0.5337  0  2.280113  0
O  O94  1  0.37488554  0.94424130  0.54737106  1  -1.159543  0  -0.31652  -0.545791  0  2.280105  0
O  O95  1  0.93521345  0.39079789  0.55807149  1  -1.160714  0  -0.317312  -0.545077  0  2.277025  0
O  O96  1  0.55616082  0.13159294  0.45989332  1  -1.142277  0  -0.319728  -0.545373  0  2.328367  0
O  O97  1  0.12168710  0.56159206  0.45354151  1  -1.168611  0  -0.318115  -0.541398  0  2.338133  0
O  O98  1  0.39913159  0.12428516  0.56122017  1  -1.176017  0  -0.321925  -0.561093  0  2.346952  0
O  O99  1  0.08287299  0.35747072  0.52629586  1  -1.16801  0  -0.323236  -0.563883  0  2.343866  0
O  O100  1  0.66775056  0.93479277  0.53840893  1  -1.155575  0  -0.317873  -0.546818  0  2.267432  0
O  O101  1  0.93389090  0.66700762  0.54594458  1  -1.162759  0  -0.317791  -0.545964  0  2.263611  0
O  O102  1  0.38115530  0.11185261  0.44941507  1  -1.165116  0  -0.311275  -0.524052  0  2.347641  0
O  O103  1  0.12921382  0.39712606  0.46237291  1  -1.163248  0  -0.309533  -0.522658  0  2.351353  0
O  O104  1  0.55821056  0.83176968  0.45440961  1  -1.166606  0  -0.316482  -0.546674  0  2.333531  0
O  O105  1  0.39263633  0.83707884  0.45983164  1  -1.174022  0  -0.317462  -0.550236  0  2.329999  0
O  O106  1  0.83158627  0.55788205  0.45818219  1  -1.158958  0  -0.31596  -0.547679  0  2.338758  0
O  O107  1  0.58933320  0.24298176  0.42033650  1  -1.087272  0  -0.327416  -0.404342  0  2.261016  0
O  O108  1  0.23957003  0.59626513  0.42262207  1  -1.080192  0  -0.328145  -0.404656  0  2.261003  0
O  O109  1  0.16144758  0.24334072  0.51940432  1  -1.123004  0  -0.343444  -0.394835  0  2.320412  0
O  O110  1  0.31776639  0.23542464  0.58138471  1  -1.115492  0  -0.344512  -0.396677  0  2.319915  0
O  O111  1  0.83506152  0.38837997  0.45420173  1  -1.17576  0  -0.318222  -0.551596  0  2.324311  0
O  O112  1  0.27822715  0.63843088  0.05221505  1  -1.144747  0  -0.365682  -0.462909  0  2.236049  0
O  O113  1  0.64066552  0.27897956  0.05184076  1  -1.118934  0  -0.366016  -0.463209  0  2.234006  0
F  F114  1  0.68744462  0.59314315  0.40080043  1  -0.60543  0  -0.081651  -0.103301  0  1.373671  0
F  F115  1  0.65820798  0.10656654  0.94813547  1  -0.63059  0  -0.121001  -0.165068  0  1.291908  0
F  F116  1  0.10684305  0.65472698  0.94651084  1  -0.629695  0  -0.120328  -0.163313  0  1.293876  0
F  F117  1  0.59047736  0.68365276  0.42002789  1  -0.606266  0  -0.082525  -0.104754  0  1.373618  0
F  F118  1  0.39224084  0.84347497  0.04949847  1  -0.629653  0  -0.121186  -0.176441  0  1.277436  0
F  F119  1  0.84776860  0.39158725  0.05100143  1  -0.631873  0  -0.120361  -0.1762  0  1.278765  0
