# generated using pymatgen
data_H14Pb(C3O)8
_symmetry_space_group_name_H-M   'P 1'
_cell_length_a   7.11920039
_cell_length_b   12.39518171
_cell_length_c   12.39521262
_cell_angle_alpha   92.23153453
_cell_angle_beta   106.92496781
_cell_angle_gamma   106.92478150
_symmetry_Int_Tables_number   1
_chemical_formula_structural   H14Pb(C3O)8
_chemical_formula_sum   'H28 Pb2 C48 O16'
_cell_volume   991.91784793
_cell_formula_units_Z   2
loop_
 _symmetry_equiv_pos_site_id
 _symmetry_equiv_pos_as_xyz
  1  'x, y, z'
loop_
 _atom_site_type_symbol
 _atom_site_label
 _atom_site_symmetry_multiplicity
 _atom_site_fract_x
 _atom_site_fract_y
 _atom_site_fract_z
 _atom_site_occupancy
 _atom_site_hle17_bader_spin_density
 _atom_site_hle17_ddec_charge
 _atom_site_hle17_ddec_spin_density
 _atom_site_hle17_ddec_sum_bond_order
 _atom_site_hle17_magmom
 _atom_site_hse06_10hf_bader_spin_density
 _atom_site_hse06_10hf_ddec_charge
 _atom_site_hse06_10hf_ddec_spin_density
 _atom_site_hse06_10hf_ddec_sum_bond_order
 _atom_site_hse06_10hf_magmom
 _atom_site_hse06_bader_spin_density
 _atom_site_hse06_ddec_charge
 _atom_site_hse06_ddec_spin_density
 _atom_site_hse06_ddec_sum_bond_order
 _atom_site_hse06_magmom
 _atom_site_pbe_bader_spin_density
 _atom_site_pbe_cm5_charge
 _atom_site_pbe_ddec_charge
 _atom_site_pbe_ddec_spin_density
 _atom_site_pbe_ddec_sum_bond_order
 _atom_site_pbe_magmom
H  H0  1  0.65696310  0.76520295  0.38577672  1  0  0.109426  0  0.94191  0  0  0.121119  0  0.998894  0  0  0.124762  0  0.996885  0  0  0.110662  0.118466  0  1.000458  0
H  H1  1  0.84303003  0.61422128  0.23479431  1  0  0.109453  0  0.941968  0  0  0.121134  0  0.998963  0  0  0.124803  0  0.996923  0  0  0.110686  0.118506  0  1.000499  0
H  H2  1  0.34301248  0.23479294  0.61422425  1  0  0.109462  0  0.941967  0  0  0.121134  0  0.998966  0  0  0.124805  0  0.996921  0  0  0.110677  0.118487  0  1.000513  0
H  H3  1  0.15696906  0.38577992  0.76520277  1  0  0.109423  0  0.941909  0  0  0.1211  0  0.998912  0  0  0.12477  0  0.99687  0  0  0.110688  0.118453  0  1.000459  0
H  H4  1  0.64014450  0.95744135  0.34414692  1  0  0.102735  0  0.949586  0  0  0.114563  0  1.008611  0  0  0.117893  0  1.006444  0  0  0.10791  0.112163  0  1.010214  0
H  H5  1  0.85983133  0.65585248  0.04255416  1  0  0.102808  0  0.949571  0  0  0.114652  0  1.008567  0  0  0.117982  0  1.006397  0  0  0.107923  0.112223  0  1.010212  0
H  H6  1  0.35982375  0.04255194  0.65585432  1  0  0.102831  0  0.94948  0  0  0.114699  0  1.008453  0  0  0.118043  0  1.006264  0  0  0.107948  0.112265  0  1.010106  0
H  H7  1  0.14014077  0.34414773  0.95743838  1  0  0.102761  0  0.949598  0  0  0.114588  0  1.008617  0  0  0.117917  0  1.006449  0  0  0.107927  0.112192  0  1.010222  0
H  H8  1  0.97499126  0.80969425  0.79081112  1  0  0.105065  0  0.99645  0  0  0.11429  0  1.056849  0  0  0.11794  0  1.054693  0  0  0.102699  0.111663  0  1.05845  0
H  H9  1  0.52499983  0.20918821  0.19030204  1  0  0.105058  0  0.996509  0  0  0.11432  0  1.056869  0  0  0.11797  0  1.054713  0  0  0.102692  0.111686  0  1.058482  0
H  H10  1  0.02499858  0.19030092  0.20918734  1  0  0.105022  0  0.996557  0  0  0.114328  0  1.056861  0  0  0.117982  0  1.054698  0  0  0.102673  0.111697  0  1.058468  0
H  H11  1  0.47500216  0.79081553  0.80969645  1  0  0.105075  0  0.996464  0  0  0.114318  0  1.056843  0  0  0.117971  0  1.054681  0  0  0.102681  0.111689  0  1.058454  0
H  H12  1  0.07733975  0.96208268  0.94760615  1  0  0.081102  0  0.977378  0  0  0.092145  0  1.040547  0  0  0.094481  0  1.040069  0  0  0.099163  0.090464  0  1.040958  0
H  H13  1  0.42266140  0.05239279  0.03791718  1  0  0.081171  0  0.97748  0  0  0.092212  0  1.040629  0  0  0.094548  0  1.040151  0  0  0.099199  0.090526  0  1.041041  0
H  H14  1  0.92265745  0.03791253  0.05239354  1  0  0.081103  0  0.977376  0  0  0.092142  0  1.040554  0  0  0.094478  0  1.040075  0  0  0.099167  0.090458  0  1.040967  0
H  H15  1  0.57733026  0.94761088  0.96208201  1  0  0.081142  0  0.977442  0  0  0.092205  0  1.040573  0  0  0.094542  0  1.040091  0  0  0.099189  0.09052  0  1.040986  0
H  H16  1  0.02243549  0.14933652  0.90931572  1  0  0.084497  0  0.953621  0  0  0.09732  0  1.011803  0  0  0.099891  0  1.010949  0  0  0.099553  0.095491  0  1.01243  0
H  H17  1  0.47757144  0.09068145  0.85066555  1  0  0.084472  0  0.953623  0  0  0.097302  0  1.011816  0  0  0.099881  0  1.010942  0  0  0.099545  0.09547  0  1.012442  0
H  H18  1  0.97757198  0.85066127  0.09068661  1  0  0.08448  0  0.953604  0  0  0.097273  0  1.011843  0  0  0.099858  0  1.010957  0  0  0.099554  0.095444  0  1.012468  0
H  H19  1  0.52241490  0.90931794  0.14933254  1  0  0.084428  0  0.95361  0  0  0.097305  0  1.011751  0  0  0.099879  0  1.01089  0  0  0.099526  0.095466  0  1.012378  0
H  H20  1  0.88052587  0.18303838  0.71172503  1  0  0.102163  0  0.993384  0  0  0.112966  0  1.052028  0  0  0.116438  0  1.050142  0  0  0.099974  0.110491  0  1.053419  0
H  H21  1  0.61946970  0.28827311  0.81696190  1  0  0.102253  0  0.993358  0  0  0.113011  0  1.052047  0  0  0.116489  0  1.05016  0  0  0.099973  0.110534  0  1.053441  0
H  H22  1  0.11946340  0.81696098  0.28827839  1  0  0.102187  0  0.993417  0  0  0.113  0  1.052037  0  0  0.116474  0  1.050158  0  0  0.099968  0.110525  0  1.053434  0
H  H23  1  0.38052305  0.71172464  0.18303557  1  0  0.10221  0  0.993395  0  0  0.112977  0  1.052056  0  0  0.116457  0  1.050175  0  0  0.099969  0.110502  0  1.053454  0
H  H24  1  0.61648118  0.21699188  0.36467347  1  0  0.403968  0  0.879906  0  0  0.373097  0  0.960488  0  0  0.384712  0  0.947747  0  0  0.310385  0.364944  0  0.969371  0
H  H25  1  0.88352066  0.63532427  0.78301362  1  0  0.403795  0  0.880056  0  0  0.372965  0  0.960572  0  0  0.384576  0  0.947843  0  0  0.310368  0.364823  0  0.969432  0
H  H26  1  0.38352270  0.78301524  0.63532793  1  0  0.403735  0  0.880159  0  0  0.372926  0  0.960652  0  0  0.38454  0  0.94792  0  0  0.310321  0.364779  0  0.96952  0
H  H27  1  0.11648278  0.36467943  0.21698995  1  0  0.40398  0  0.879838  0  0  0.373101  0  0.96043  0  0  0.384715  0  0.947693  0  0  0.310406  0.364952  0  0.96931  0
Pb  Pb28  1  0.75000471  0.43823323  0.56176261  1  0  1.389956  0  1.383079  0  0  1.205146  0  1.777794  0  0  1.268859  0  1.731434  0  0  0.662391  1.158967  0  1.810243  0
Pb  Pb29  1  0.25000870  0.56176207  0.43823897  1  0  1.389962  0  1.38306  0  0  1.205173  0  1.777765  0  0  1.268881  0  1.731411  0  0  0.662397  1.159  0  1.810222  0
C  C30  1  0.78856351  0.69430097  0.58121829  1  0  0.681088  0  3.841717  0  0  0.623943  0  4.139869  0  0  0.660429  0  4.13075  0  0  0.225976  0.599141  0  4.145126  0
C  C31  1  0.71145107  0.41878099  0.30569767  1  0  0.681407  0  3.841557  0  0  0.624149  0  4.139836  0  0  0.660636  0  4.130713  0  0  0.22602  0.599334  0  4.145119  0
C  C32  1  0.21144986  0.30569690  0.41878179  1  0  0.681271  0  3.841611  0  0  0.62406  0  4.13982  0  0  0.660545  0  4.130703  0  0  0.226034  0.599266  0  4.145061  0
C  C33  1  0.28856078  0.58121942  0.69430149  1  0  0.681047  0  3.841575  0  0  0.623887  0  4.139749  0  0  0.660373  0  4.13063  0  0  0.225955  0.599088  0  4.144999  0
C  C34  1  0.78941561  0.81418518  0.56599755  1  0  -0.080008  0  3.668348  0  0  -0.068696  0  3.912143  0  0  -0.073926  0  3.931394  0  0  -0.004598  -0.065299  0  3.899175  0
C  C35  1  0.71059480  0.43400730  0.18581438  1  0  -0.079997  0  3.668572  0  0  -0.06863  0  3.912322  0  0  -0.073859  0  3.93158  0  0  -0.004543  -0.06524  0  3.899378  0
C  C36  1  0.21058450  0.18581259  0.43400275  1  0  -0.079965  0  3.668452  0  0  -0.068638  0  3.912226  0  0  -0.073868  0  3.931483  0  0  -0.004548  -0.065247  0  3.899252  0
C  C37  1  0.28941502  0.56599735  0.81418465  1  0  -0.080039  0  3.668595  0  0  -0.068706  0  3.912312  0  0  -0.073935  0  3.93157  0  0  -0.004587  -0.065314  0  3.899338  0
C  C38  1  0.70916796  0.83458534  0.45523215  1  0  -0.07995  0  3.739656  0  0  -0.106732  0  4.001299  0  0  -0.108295  0  4.020741  0  0  -0.083222  -0.105475  0  3.987975  0
C  C39  1  0.79082606  0.54476661  0.16541686  1  0  -0.079964  0  3.739911  0  0  -0.106747  0  4.001544  0  0  -0.108335  0  4.020982  0  0  -0.083238  -0.105506  0  3.988219  0
C  C40  1  0.29082084  0.16541317  0.54477034  1  0  -0.079978  0  3.739785  0  0  -0.106743  0  4.001427  0  0  -0.108329  0  4.020866  0  0  -0.083234  -0.105482  0  3.988076  0
C  C41  1  0.20917055  0.45523539  0.83458307  1  0  -0.07984  0  3.739796  0  0  -0.106633  0  4.001446  0  0  -0.108215  0  4.020871  0  0  -0.083222  -0.105378  0  3.988122  0
C  C42  1  0.69906227  0.94279028  0.43177739  1  0  -0.049517  0  3.728318  0  0  -0.080412  0  3.99099  0  0  -0.079392  0  4.010408  0  0  -0.078636  -0.080894  0  3.977616  0
C  C43  1  0.80093160  0.56822497  0.05720922  1  0  -0.049657  0  3.728253  0  0  -0.080564  0  3.990899  0  0  -0.079554  0  4.010344  0  0  -0.078691  -0.081023  0  3.977554  0
C  C44  1  0.30091478  0.05720560  0.56822463  1  0  -0.049576  0  3.728352  0  0  -0.080493  0  3.991008  0  0  -0.07949  0  4.010449  0  0  -0.078667  -0.080958  0  3.977658  0
C  C45  1  0.19906501  0.43177704  0.94278990  1  0  -0.04963  0  3.728272  0  0  -0.080527  0  3.99093  0  0  -0.079511  0  4.010371  0  0  -0.078685  -0.081014  0  3.977564  0
C  C46  1  0.76266574  0.03250747  0.51864659  1  0  -0.110951  0  3.708289  0  0  -0.095172  0  3.948115  0  0  -0.104076  0  3.971581  0  0  -0.009769  -0.089298  0  3.932281  0
C  C47  1  0.73732727  0.48135295  0.96749235  1  0  -0.110875  0  3.708547  0  0  -0.095092  0  3.948384  0  0  -0.103989  0  3.971834  0  0  -0.009731  -0.089213  0  3.932549  0
C  C48  1  0.23732110  0.96749018  0.48135553  1  0  -0.111063  0  3.708446  0  0  -0.095289  0  3.948352  0  0  -0.104194  0  3.971818  0  0  -0.009778  -0.089415  0  3.932517  0
C  C49  1  0.26267475  0.51864826  0.03250602  1  0  -0.110882  0  3.708287  0  0  -0.095118  0  3.948094  0  0  -0.104023  0  3.971558  0  0  -0.009739  -0.089246  0  3.932274  0
C  C50  1  0.84324498  0.01535051  0.63483595  1  0  0.059032  0  3.712529  0  0  0.068035  0  3.938385  0  0  0.069115  0  3.96304  0  0  0.003428  0.067325  0  3.921758  0
C  C51  1  0.65675897  0.36516510  0.98465066  1  0  0.059113  0  3.712413  0  0  0.068114  0  3.938272  0  0  0.06919  0  3.962926  0  0  0.00349  0.067407  0  3.921641  0
C  C52  1  0.15675317  0.98464639  0.36516479  1  0  0.059177  0  3.712451  0  0  0.068102  0  3.938424  0  0  0.069179  0  3.963084  0  0  0.003457  0.067403  0  3.921787  0
C  C53  1  0.34324448  0.63483864  0.01534888  1  0  0.059028  0  3.712377  0  0  0.068023  0  3.938212  0  0  0.069103  0  3.962871  0  0  0.00339  0.067314  0  3.921587  0
C  C54  1  0.86363224  0.90518612  0.65814861  1  0  0.053085  0  3.70625  0  0  0.063075  0  3.934544  0  0  0.063238  0  3.957966  0  0  0.002169  0.062866  0  3.918822  0
C  C55  1  0.63637549  0.34185181  0.09481631  1  0  0.053086  0  3.706137  0  0  0.063057  0  3.934449  0  0  0.06322  0  3.957868  0  0  0.002151  0.06286  0  3.918715  0
C  C56  1  0.13637030  0.09481335  0.34185299  1  0  0.053036  0  3.706151  0  0  0.063064  0  3.934451  0  0  0.063228  0  3.957871  0  0  0.002158  0.062858  0  3.918721  0
C  C57  1  0.36363290  0.65815027  0.90518316  1  0  0.053065  0  3.70617  0  0  0.063098  0  3.93437  0  0  0.063261  0  3.95779  0  0  0.002223  0.062903  0  3.918635  0
C  C58  1  0.95090003  0.89023672  0.77287890  1  0  -0.098967  0  3.713581  0  0  -0.121814  0  3.960581  0  0  -0.123829  0  3.980289  0  0  -0.091269  -0.120374  0  3.947246  0
C  C59  1  0.54909720  0.22712029  0.10976293  1  0  -0.09894  0  3.713606  0  0  -0.121814  0  3.960591  0  0  -0.123828  0  3.980296  0  0  -0.091262  -0.120378  0  3.947256  0
C  C60  1  0.04910009  0.10976109  0.22711818  1  0  -0.098963  0  3.713684  0  0  -0.121885  0  3.960665  0  0  -0.1239  0  3.980372  0  0  -0.091287  -0.120447  0  3.947328  0
C  C61  1  0.45089694  0.77288256  0.89023502  1  0  -0.099006  0  3.713627  0  0  -0.121886  0  3.960615  0  0  -0.123902  0  3.980322  0  0  -0.091323  -0.120455  0  3.947288  0
C  C62  1  0.00874865  0.97640087  0.86090709  1  0  -0.068383  0  3.797493  0  0  -0.08173  0  4.048232  0  0  -0.08457  0  4.071123  0  0  -0.091705  -0.079774  0  4.032586  0
C  C63  1  0.49125668  0.13909033  0.02360419  1  0  -0.068495  0  3.797637  0  0  -0.081849  0  4.048394  0  0  -0.084689  0  4.071281  0  0  -0.09175  -0.079877  0  4.032726  0
C  C64  1  0.99125241  0.02359859  0.13909426  1  0  -0.068321  0  3.79741  0  0  -0.081666  0  4.048165  0  0  -0.084506  0  4.071055  0  0  -0.091672  -0.079701  0  4.03251  0
C  C65  1  0.50873803  0.86090828  0.97639364  1  0  -0.068372  0  3.797665  0  0  -0.08174  0  4.048417  0  0  -0.08458  0  4.071309  0  0  -0.09171  -0.079772  0  4.032751  0
C  C66  1  0.97945504  0.08198574  0.83893429  1  0  -0.06333  0  3.801168  0  0  -0.078207  0  4.05343  0  0  -0.079985  0  4.076582  0  0  -0.091315  -0.076853  0  4.037548  0
C  C67  1  0.52055076  0.16106293  0.91801529  1  0  -0.063276  0  3.801084  0  0  -0.078168  0  4.053347  0  0  -0.079942  0  4.076499  0  0  -0.091277  -0.076799  0  4.037448  0
C  C68  1  0.02054801  0.91801204  0.16106731  1  0  -0.063353  0  3.800819  0  0  -0.07822  0  4.053093  0  0  -0.079991  0  4.076237  0  0  -0.091347  -0.07686  0  4.037208  0
C  C69  1  0.47944439  0.83893911  0.08198036  1  0  -0.06324  0  3.801061  0  0  -0.078169  0  4.053326  0  0  -0.079946  0  4.076484  0  0  -0.091241  -0.076789  0  4.037418  0
C  C70  1  0.89952421  0.10103281  0.72866297  1  0  -0.122947  0  3.737904  0  0  -0.143409  0  3.983987  0  0  -0.147597  0  4.005868  0  0  -0.097035  -0.140532  0  3.969097  0
C  C71  1  0.60047947  0.27133394  0.89897007  1  0  -0.123007  0  3.737856  0  0  -0.143432  0  3.983937  0  0  -0.147631  0  4.005825  0  0  -0.097043  -0.140556  0  3.969031  0
C  C72  1  0.10047437  0.89896744  0.27134205  1  0  -0.12299  0  3.737783  0  0  -0.143425  0  3.983868  0  0  -0.147621  0  4.005755  0  0  -0.097027  -0.140563  0  3.968987  0
C  C73  1  0.39952407  0.72866473  0.10102843  1  0  -0.123008  0  3.737877  0  0  -0.143443  0  3.983958  0  0  -0.147647  0  4.005851  0  0  -0.097038  -0.140579  0  3.969079  0
C  C74  1  0.74492007  0.14454721  0.48641720  1  0  0.666592  0  3.789632  0  0  0.613999  0  4.090419  0  0  0.648234  0  4.082211  0  0  0.238586  0.590744  0  4.095305  0
C  C75  1  0.75511217  0.51359138  0.85547307  1  0  0.666356  0  3.789533  0  0  0.613755  0  4.090358  0  0  0.64799  0  4.082153  0  0  0.238447  0.590488  0  4.095265  0
C  C76  1  0.25508575  0.85546072  0.51358860  1  0  0.666763  0  3.789285  0  0  0.614159  0  4.09013  0  0  0.648398  0  4.081914  0  0  0.238665  0.590903  0  4.095034  0
C  C77  1  0.24491672  0.48641581  0.14453733  1  0  0.666587  0  3.7896  0  0  0.614068  0  4.090273  0  0  0.648309  0  4.08206  0  0  0.238629  0.590814  0  4.095173  0
O  O78  1  0.65170278  0.61519509  0.50421663  1  0  -0.681034  0  2.054263  0  0  -0.598857  0  2.29637  0  0  -0.633323  0  2.289747  0  0  -0.284119  -0.574588  0  2.300047  0
O  O79  1  0.84831467  0.49578240  0.38480322  1  0  -0.681116  0  2.054338  0  0  -0.598915  0  2.296502  0  0  -0.633385  0  2.289884  0  0  -0.284109  -0.574633  0  2.300171  0
O  O80  1  0.34831303  0.38480453  0.49578073  1  0  -0.681052  0  2.054327  0  0  -0.598854  0  2.296453  0  0  -0.633325  0  2.289839  0  0  -0.284094  -0.574573  0  2.300089  0
O  O81  1  0.15170158  0.50422062  0.61519357  1  0  -0.680985  0  2.05431  0  0  -0.598795  0  2.296418  0  0  -0.633262  0  2.289802  0  0  -0.284109  -0.574525  0  2.300091  0
O  O82  1  0.92061948  0.67186253  0.66359201  1  0  -0.644129  0  1.997033  0  0  -0.582554  0  2.225915  0  0  -0.609604  0  2.216876  0  0  -0.301332  -0.563535  0  2.23144  0
O  O83  1  0.57939634  0.33640814  0.32814025  1  0  -0.644448  0  1.996937  0  0  -0.582797  0  2.225893  0  0  -0.609849  0  2.216847  0  0  -0.301405  -0.56377  0  2.231428  0
O  O84  1  0.07938648  0.32813782  0.33640859  1  0  -0.644403  0  1.996885  0  0  -0.582763  0  2.225807  0  0  -0.609815  0  2.216763  0  0  -0.301442  -0.563749  0  2.231332  0
O  O85  1  0.42062288  0.66359230  0.67186094  1  0  -0.644116  0  1.996847  0  0  -0.582565  0  2.225753  0  0  -0.609616  0  2.216712  0  0  -0.301315  -0.563547  0  2.231275  0
O  O86  1  0.83515627  0.23627074  0.55042211  1  0  -0.603518  0  2.000248  0  0  -0.549391  0  2.233538  0  0  -0.574405  0  2.225855  0  0  -0.278064  -0.532022  0  2.238454  0
O  O87  1  0.66488597  0.44955374  0.76372416  1  0  -0.60365  0  1.999307  0  0  -0.549504  0  2.232622  0  0  -0.574534  0  2.224943  0  0  -0.278102  -0.532119  0  2.237542  0
O  O88  1  0.16486206  0.76372555  0.44957065  1  0  -0.603692  0  1.999659  0  0  -0.549578  0  2.232997  0  0  -0.574596  0  2.225306  0  0  -0.278155  -0.532205  0  2.237928  0
O  O89  1  0.33516145  0.55043418  0.23627543  1  0  -0.603662  0  1.999757  0  0  -0.54957  0  2.233039  0  0  -0.574589  0  2.22535  0  0  -0.278165  -0.532195  0  2.237965  0
O  O90  1  0.62214836  0.13826802  0.38051812  1  0  -0.540981  0  2.115001  0  0  -0.490156  0  2.335685  0  0  -0.512565  0  2.324074  0  0  -0.320691  -0.47462  0  2.343288  0
O  O91  1  0.87782817  0.61948410  0.86173229  1  0  -0.540594  0  2.115693  0  0  -0.489778  0  2.336356  0  0  -0.512171  0  2.324745  0  0  -0.320508  -0.474252  0  2.343952  0
O  O92  1  0.37783544  0.86173467  0.61948698  1  0  -0.540721  0  2.115316  0  0  -0.489913  0  2.335961  0  0  -0.512323  0  2.324355  0  0  -0.320557  -0.474378  0  2.343563  0
O  O93  1  0.12216245  0.38052291  0.13827013  1  0  -0.540862  0  2.115251  0  0  -0.490061  0  2.335928  0  0  -0.512466  0  2.324314  0  0  -0.320644  -0.474533  0  2.343539  0
