# generated using pymatgen
data_CuH8C6(N5O2)2
_symmetry_space_group_name_H-M   'P 1'
_cell_length_a   4.87483280
_cell_length_b   11.53189828
_cell_length_c   11.04229319
_cell_angle_alpha   90.00001418
_cell_angle_beta   89.99757685
_cell_angle_gamma   94.02959683
_symmetry_Int_Tables_number   1
_chemical_formula_structural   CuH8C6(N5O2)2
_chemical_formula_sum   'Cu2 H16 C12 N20 O8'
_cell_volume   619.21981466
_cell_formula_units_Z   2
loop_
 _symmetry_equiv_pos_site_id
 _symmetry_equiv_pos_as_xyz
  1  'x, y, z'
loop_
 _atom_site_type_symbol
 _atom_site_label
 _atom_site_symmetry_multiplicity
 _atom_site_fract_x
 _atom_site_fract_y
 _atom_site_fract_z
 _atom_site_occupancy
 _atom_site_pbe_cm5_charge
 _atom_site_pbe_ddec_charge
 _atom_site_pbe_ddec_spin_density
 _atom_site_pbe_ddec_sum_bond_order
 _atom_site_pbe_magmom
Cu  Cu0  1  0.49996854  0.49999985  0.99999513  1  0.749555  0.780425  0.722585  2.214171  0.567
Cu  Cu1  1  0.00002516  0.00000418  0.49999669  1  0.749562  0.780456  0.72257  2.214358  0.567
H  H2  1  0.50296914  0.95650481  0.32863180  1  0.307566  0.338784  0.000233  0.966881  0.0
H  H3  1  0.99702424  0.54350554  0.82862221  1  0.307648  0.338919  0.000233  0.966937  0.0
H  H4  1  0.49705605  0.04349465  0.67137142  1  0.307635  0.338887  0.000233  0.966854  0.0
H  H5  1  0.00293842  0.45650294  0.17137195  1  0.307577  0.338831  0.000233  0.966916  0.0
H  H6  1  0.29017318  0.83456834  0.29316104  1  0.328287  0.336562  -4.1e-05  0.901553  0.0
H  H7  1  0.20983421  0.66542781  0.79314851  1  0.32826  0.336494  -4.1e-05  0.901702  0.0
H  H8  1  0.70987399  0.16544346  0.70685938  1  0.328194  0.336604  -4.1e-05  0.901474  0.0
H  H9  1  0.79014301  0.33456516  0.20684656  1  0.328296  0.336657  -4.1e-05  0.901498  0.0
H  H10  1  0.17627655  0.64565711  0.33977741  1  0.120857  0.13778  -0.000249  1.011301  0.0
H  H11  1  0.32370522  0.85435178  0.83976640  1  0.120822  0.137766  -0.000249  1.01149  0.0
H  H12  1  0.82369659  0.35435320  0.66022852  1  0.120837  0.13782  -0.000249  1.011414  0.0
H  H13  1  0.67631259  0.14565457  0.16024406  1  0.120826  0.137804  -0.000249  1.011418  0.0
H  H14  1  0.32557163  0.53093577  0.41464819  1  0.123551  0.125346  0.000104  1.023222  0.0
H  H15  1  0.17441405  0.96908172  0.91465075  1  0.123546  0.125362  0.000104  1.023033  0.0
H  H16  1  0.67441968  0.46907209  0.58534688  1  0.123522  0.12532  0.000103  1.023091  0.0
H  H17  1  0.82559933  0.03092198  0.08534341  1  0.123529  0.125293  0.000104  1.023063  0.0
C  C18  1  0.58360507  0.80866300  0.41820396  1  0.357  0.478544  0.002498  4.07149  0.004
C  C19  1  0.91639047  0.69135332  0.91818947  1  0.356941  0.478345  0.002503  4.071489  0.004
C  C20  1  0.41637893  0.19133524  0.58180560  1  0.356996  0.478647  0.002495  4.071133  0.004
C  C21  1  0.08360496  0.30867194  0.08179382  1  0.357096  0.47898  0.002497  4.071379  0.004
C  C22  1  0.37373896  0.61121182  0.36276993  1  -0.054209  -0.232004  0.009569  3.861373  0.01
C  C23  1  0.12627358  0.88878167  0.86277700  1  -0.054194  -0.231845  0.009576  3.860887  0.01
C  C24  1  0.62623992  0.38879506  0.63723691  1  -0.054129  -0.231894  0.009566  3.860864  0.01
C  C25  1  0.87374852  0.11120909  0.13723980  1  -0.05421  -0.231867  0.009575  3.860752  0.01
C  C26  1  0.53284912  0.58080441  0.24767192  1  0.207344  0.604444  -0.000284  4.176156  -0.002
C  C27  1  0.96711237  0.91918148  0.74766101  1  0.207353  0.604127  -0.000288  4.176432  -0.002
C  C28  1  0.46710655  0.41919706  0.75233311  1  0.207344  0.604323  -0.000289  4.176215  -0.002
C  C29  1  0.03291250  0.08081537  0.25234311  1  0.207498  0.604557  -0.000286  4.176544  -0.002
N  N30  1  0.80542138  0.84368910  0.48475333  1  -0.270798  -0.335242  0.04919  3.516934  0.064
N  N31  1  0.69452067  0.65632927  0.98476281  1  -0.270633  -0.335125  0.049212  3.517018  0.064
N  N32  1  0.19457124  0.15629533  0.51524174  1  -0.270776  -0.335292  0.049199  3.516846  0.064
N  N33  1  0.30543625  0.34370000  0.01524946  1  -0.270939  -0.335635  0.049201  3.517045  0.064
N  N34  1  0.89296701  0.74772786  0.54149890  1  -0.081565  -0.040902  0.002281  3.279678  0.003
N  N35  1  0.60697805  0.75225995  0.04149576  1  -0.081533  -0.040566  0.002283  3.279841  0.003
N  N36  1  0.10702460  0.25226524  0.45849797  1  -0.081616  -0.040868  0.002277  3.279331  0.003
N  N37  1  0.39301027  0.24774007  0.95849115  1  -0.081511  -0.040532  0.002281  3.278693  0.003
N  N38  1  0.73854016  0.65710739  0.51216945  1  -0.066531  -0.086878  0.003008  3.174623  0.004
N  N39  1  0.76143685  0.84288333  0.01216621  1  -0.066693  -0.087308  0.003018  3.174006  0.004
N  N40  1  0.26145287  0.34288051  0.48783829  1  -0.06659  -0.086935  0.00301  3.174635  0.004
N  N41  1  0.23858454  0.15711870  0.98782796  1  -0.066602  -0.087066  0.003007  3.174447  0.004
N  N42  1  0.53898546  0.69255176  0.43623414  1  -0.135065  0.028697  0.002909  3.721494  0.003
N  N43  1  0.96100828  0.80742979  0.93622969  1  -0.134945  0.028969  0.002906  3.722046  0.003
N  N44  1  0.46101876  0.30742669  0.56375549  1  -0.134982  0.028713  0.002908  3.721297  0.003
N  N45  1  0.03902245  0.19256451  0.06376265  1  -0.134983  0.028514  0.002912  3.721335  0.003
N  N46  1  0.42341923  0.87486589  0.35274528  1  -0.568387  -0.65857  -0.000837  3.356463  0.0
N  N47  1  0.07656894  0.62512133  0.85273246  1  -0.568535  -0.658727  -0.000835  3.356308  0.0
N  N48  1  0.57662679  0.12511899  0.64727153  1  -0.568449  -0.658935  -0.000839  3.355835  0.0
N  N49  1  0.92340356  0.37486640  0.14726261  1  -0.56848  -0.658922  -0.000838  3.356367  0.0
O  O50  1  0.78642282  0.59910643  0.24366682  1  -0.313694  -0.539214  0.001883  2.192689  0.004
O  O51  1  0.71353293  0.90089679  0.74368498  1  -0.313645  -0.53906  0.001884  2.193068  0.004
O  O52  1  0.21352945  0.40088373  0.75631557  1  -0.31366  -0.539176  0.001884  2.192907  0.004
O  O53  1  0.28650222  0.09910015  0.25631280  1  -0.313825  -0.539395  0.001886  2.19301  0.004
O  O54  1  0.37326378  0.53451106  0.16458285  1  -0.329119  -0.547556  0.068426  2.394142  0.099
O  O55  1  0.12674963  0.96549836  0.66457994  1  -0.329114  -0.547435  0.068446  2.394067  0.099
O  O56  1  0.62673781  0.46551425  0.83541946  1  -0.329121  -0.547499  0.068437  2.393843  0.099
O  O57  1  0.87330390  0.03449787  0.33541694  1  -0.329107  -0.547522  0.06843  2.394476  0.099
