# generated using pymatgen
data_Cd2H20C29O10
_symmetry_space_group_name_H-M   'P 1'
_cell_length_a   12.64769436
_cell_length_b   14.07123533
_cell_length_c   14.30927421
_cell_angle_alpha   117.24173045
_cell_angle_beta   113.82517340
_cell_angle_gamma   94.40265621
_symmetry_Int_Tables_number   1
_chemical_formula_structural   Cd2H20C29O10
_chemical_formula_sum   'Cd4 H40 C58 O20'
_cell_volume   1961.07276810
_cell_formula_units_Z   2
loop_
 _symmetry_equiv_pos_site_id
 _symmetry_equiv_pos_as_xyz
  1  'x, y, z'
loop_
 _atom_site_type_symbol
 _atom_site_label
 _atom_site_symmetry_multiplicity
 _atom_site_fract_x
 _atom_site_fract_y
 _atom_site_fract_z
 _atom_site_occupancy
 _atom_site_pbe_bader_charge
 _atom_site_pbe_bader_spin_density
 _atom_site_pbe_cm5_charge
 _atom_site_pbe_ddec_charge
 _atom_site_pbe_ddec_spin_density
 _atom_site_pbe_ddec_sum_bond_order
 _atom_site_pbe_magmom
Cd  Cd0  1  0.99999844  0.99999875  0.49999578  1  1.392263  0  0.798468  1.138417  0  2.119701  0
Cd  Cd1  1  0.00000168  0.50000351  0.50000708  1  1.390183  0  0.798488  1.137965  0  2.122196  0
Cd  Cd2  1  0.92307408  0.67320040  0.34632323  1  1.297817  0  0.770655  1.000055  0  2.028901  0
Cd  Cd3  1  0.07692817  0.32679820  0.65367428  1  1.297834  0  0.77069  1.000085  0  2.028783  0
H  H4  1  0.89297004  0.08102676  0.91512886  1  0.078721  0  0.099663  0.104866  0  1.035609  0
H  H5  1  0.52164211  0.83400418  0.91492635  1  0.066825  0  0.099522  0.104577  0  1.036009  0
H  H6  1  0.10703309  0.91897185  0.08486827  1  0.078511  0  0.099676  0.104893  0  1.035567  0
H  H7  1  0.47835895  0.16599355  0.08507382  1  0.066864  0  0.099533  0.104615  0  1.036004  0
H  H8  1  0.97388881  0.02433174  0.77381470  1  0.087715  0  0.100568  0.10094  0  1.049398  0
H  H9  1  0.29957443  0.74915456  0.77345684  1  0.106478  0  0.10053  0.101137  0  1.049599  0
H  H10  1  0.02611140  0.97566349  0.22618054  1  0.087666  0  0.100573  0.101019  0  1.049395  0
H  H11  1  0.70042665  0.25084821  0.22654912  1  0.10652  0  0.10051  0.101083  0  1.049658  0
H  H12  1  0.70895145  0.69350262  0.54950888  1  0.060698  0  0.10405  0.103177  0  1.017501  0
H  H13  1  0.34038114  0.85538182  0.54895654  1  0.063085  0  0.103992  0.103545  0  1.017161  0
H  H14  1  0.29104330  0.30649683  0.45048909  1  0.060731  0  0.104072  0.103219  0  1.017481  0
H  H15  1  0.65961277  0.14462267  0.45104621  1  0.063173  0  0.103968  0.103554  0  1.017099  0
H  H16  1  0.63085523  0.74732890  0.69252172  1  0.057729  0  0.104671  0.109412  0  0.994657  0
H  H17  1  0.56131982  0.94502263  0.69225344  1  0.047942  0  0.104492  0.109006  0  0.995084  0
H  H18  1  0.36914214  0.25267307  0.30747765  1  0.057698  0  0.104675  0.109432  0  0.99462  0
H  H19  1  0.43867495  0.05498186  0.30775031  1  0.047902  0  0.104504  0.1091  0  0.995051  0
H  H20  1  0.81722357  0.78589520  0.88253425  1  0.076117  0  0.097111  0.099683  0  1.037748  0
H  H21  1  0.56476690  0.09677369  0.88251305  1  0.074329  0  0.096592  0.099062  0  1.038095  0
H  H22  1  0.18276857  0.21410171  0.11746162  1  0.076219  0  0.09712  0.099676  0  1.037725  0
H  H23  1  0.43524226  0.90323244  0.11749806  1  0.074333  0  0.09654  0.098989  0  1.038038  0
H  H24  1  0.88603583  0.71510874  0.01987575  1  0.086245  0  0.110744  0.116903  0  0.982959  0
H  H25  1  0.63332869  0.30492722  0.01990985  1  0.097006  0  0.111011  0.117234  0  0.983763  0
H  H26  1  0.11395338  0.28488228  0.98011499  1  0.086269  0  0.110744  0.116866  0  0.982984  0
H  H27  1  0.36667702  0.69507640  0.98009608  1  0.096805  0  0.110977  0.117183  0  0.983906  0
H  H28  1  0.75834860  0.94174559  0.24023112  1  0.074087  0  0.098403  0.093087  0  1.027102  0
H  H29  1  0.98128243  0.29855291  0.24007543  1  0.082388  0  0.098144  0.092528  0  1.027083  0
H  H30  1  0.24165051  0.05825135  0.75976170  1  0.073969  0  0.098426  0.093135  0  1.027025  0
H  H31  1  0.01872061  0.70144563  0.75993002  1  0.082508  0  0.09815  0.092547  0  1.027074  0
H  H32  1  0.68587316  0.01062071  0.10256371  1  0.089542  0  0.09908  0.100483  0  1.028839  0
H  H33  1  0.91599466  0.09199225  0.10249822  1  0.082762  0  0.099107  0.100494  0  1.03024  0
H  H34  1  0.31412913  0.98938295  0.89743750  1  0.089568  0  0.099051  0.100461  0  1.028829  0
H  H35  1  0.08401219  0.90800717  0.89750342  1  0.082783  0  0.099086  0.100509  0  1.03036  0
H  H36  1  0.24041194  0.00384355  0.55880459  1  0.610052  0  0.323522  0.403365  0  0.878004  0
H  H37  1  0.81842601  0.55500522  0.55897145  1  0.609759  0  0.323858  0.403496  0  0.876942  0
H  H38  1  0.75958371  0.99615592  0.44118953  1  0.609941  0  0.323503  0.403339  0  0.878172  0
H  H39  1  0.18157393  0.44499674  0.44103094  1  0.609792  0  0.323876  0.403517  0  0.876925  0
H  H40  1  0.16181647  0.87440535  0.48831708  1  0.658768  0  0.286774  0.383846  0  0.965295  0
H  H41  1  0.82662510  0.61396218  0.48850566  1  0.652051  0  0.286599  0.383213  0  0.966273  0
H  H42  1  0.83818081  0.12559153  0.51168414  1  0.658669  0  0.28679  0.383849  0  0.965281  0
H  H43  1  0.17337171  0.38603812  0.51149065  1  0.652059  0  0.286604  0.383178  0  0.966335  0
C  C44  1  0.69890423  0.94921398  0.89832365  1  0.073392  0  0.015023  -0.008494  0  3.769165  0
C  C45  1  0.30109199  0.05078716  0.10167423  1  0.073255  0  0.015031  -0.008367  0  3.769108  0
C  C46  1  0.75632487  0.91820386  0.81557920  1  0.00292  0  0.002074  0.076866  0  3.901509  0
C  C47  1  0.55879278  0.89733056  0.81540850  1  -0.034996  0  0.002113  0.078105  0  3.900869  0
C  C48  1  0.24367479  0.08179726  0.18442131  1  0.00295  0  0.002073  0.076873  0  3.901465  0
C  C49  1  0.44120459  0.10267141  0.18459157  1  -0.034904  0  0.002099  0.078082  0  3.900821  0
C  C50  1  0.85338750  0.99491233  0.83684412  1  -0.027526  0  -0.092734  -0.138091  0  3.966963  0
C  C51  1  0.48302724  0.84178293  0.83660150  1  -0.048218  0  -0.092352  -0.138521  0  3.968641  0
C  C52  1  0.14661189  0.00508796  0.16315312  1  -0.027298  0  -0.092727  -0.138055  0  3.966885  0
C  C53  1  0.51696953  0.15821483  0.16339504  1  -0.048396  0  -0.09235  -0.138573  0  3.968646  0
C  C54  1  0.89930708  0.96369808  0.75715172  1  -0.055757  0  -0.080622  -0.069246  0  3.957404  0
C  C55  1  0.35749347  0.79310513  0.75677063  1  0.001217  0  -0.080515  -0.069293  0  3.958414  0
C  C56  1  0.10068823  0.03629800  0.24284283  1  -0.055849  0  -0.080645  -0.069439  0  3.957442  0
C  C57  1  0.64250498  0.20689259  0.24323070  1  0.001373  0  -0.080492  -0.069184  0  3.958433  0
C  C58  1  0.84905170  0.85502937  0.65361659  1  -0.021971  0  -0.024957  -0.050234  0  3.984649  0
C  C59  1  0.30431895  0.79805160  0.65311541  1  -0.048453  0  -0.024664  -0.049427  0  3.983934  0
C  C60  1  0.15094391  0.14496755  0.34637845  1  -0.021832  0  -0.024938  -0.050139  0  3.984647  0
C  C61  1  0.69567603  0.20194612  0.34688605  1  -0.048882  0  -0.024612  -0.049401  0  3.98412  0
C  C62  1  0.75222676  0.77730470  0.63198222  1  -0.068025  0  -0.091644  -0.104985  0  4.007816  0
C  C63  1  0.37951538  0.85417218  0.63148923  1  0.007636  0  -0.091712  -0.105606  0  4.008375  0
C  C64  1  0.24776943  0.22269389  0.36801588  1  -0.067953  0  -0.091668  -0.105033  0  4.007832  0
C  C65  1  0.62048258  0.14583651  0.36851898  1  0.007956  0  -0.091697  -0.105626  0  4.008356  0
C  C66  1  0.70763462  0.80831315  0.71225608  1  -0.054363  0  -0.093257  -0.137951  0  4.009358  0
C  C67  1  0.50426649  0.90372820  0.71195591  1  -0.099466  0  -0.093392  -0.138238  0  4.010121  0
C  C68  1  0.29236533  0.19168881  0.28774492  1  -0.054408  0  -0.093256  -0.137972  0  4.00931  0
C  C69  1  0.49572972  0.09627796  0.28805052  1  -0.099569  0  -0.093396  -0.138325  0  4.010102  0
C  C70  1  0.89579233  0.82472607  0.56634398  1  1.565455  0  0.218193  0.609545  0  4.154261  0
C  C71  1  0.17033147  0.74125295  0.56596020  1  1.579921  0  0.217315  0.608051  0  4.155382  0
C  C72  1  0.10420011  0.17526918  0.43364845  1  1.564958  0  0.218176  0.609461  0  4.154925  0
C  C73  1  0.82966380  0.25874814  0.43404500  1  1.57938  0  0.217306  0.608082  0  4.155466  0
C  C74  1  0.74447004  0.90226738  0.98086313  1  -0.074268  0  0.001524  0.076729  0  3.901353  0
C  C75  1  0.73579100  0.07869262  0.98084422  1  -0.060581  0  0.001653  0.07618  0  3.903751  0
C  C76  1  0.25552644  0.09772954  0.01913153  1  -0.074109  0  0.001523  0.076585  0  3.901549  0
C  C77  1  0.26421448  0.92131273  0.01915752  1  -0.060783  0  0.001666  0.076143  0  3.903977  0
C  C78  1  0.80170955  0.81933075  0.95941351  1  -0.00884  0  -0.094596  -0.140466  0  3.984795  0
C  C79  1  0.65712489  0.14021202  0.95943578  1  -0.020096  0  -0.093622  -0.139392  0  3.987078  0
C  C80  1  0.19827796  0.18066029  0.04057453  1  -0.008215  0  -0.094563  -0.14041  0  3.984757  0
C  C81  1  0.34287968  0.85979077  0.04056727  1  -0.019639  0  -0.09364  -0.139357  0  3.986857  0
C  C82  1  0.84137825  0.77955818  0.03660086  1  0.009059  0  -0.075699  -0.076113  0  3.959695  0
C  C83  1  0.69467327  0.25718203  0.03661998  1  -0.023206  0  -0.076677  -0.077547  0  3.960332  0
C  C84  1  0.15860867  0.22043369  0.96338875  1  0.008406  0  -0.075724  -0.076052  0  3.95969  0
C  C85  1  0.30533616  0.74281989  0.96338653  1  -0.022821  0  -0.076613  -0.077499  0  3.960297  0
C  C86  1  0.82648198  0.82351057  0.13851440  1  -0.108096  0  -0.019815  -0.040849  0  3.989573  0
C  C87  1  0.81148767  0.31512498  0.13841419  1  -0.034062  0  -0.019832  -0.040224  0  3.98902  0
C  C88  1  0.17350876  0.17648722  0.86147788  1  -0.108263  0  -0.019846  -0.040877  0  3.989527  0
C  C89  1  0.18852026  0.68487522  0.86159519  1  -0.034397  0  -0.019779  -0.039994  0  3.988918  0
C  C90  1  0.76929054  0.90655685  0.16058188  1  -0.035915  0  -0.082787  -0.076201  0  3.974581  0
C  C91  1  0.89070191  0.25410876  0.16045483  1  -0.028678  0  -0.08176  -0.074746  0  3.974435  0
C  C92  1  0.23070771  0.09344514  0.83941572  1  -0.036143  0  -0.08286  -0.076374  0  3.974481  0
C  C93  1  0.10930662  0.74589314  0.83955483  1  -0.028948  0  -0.081857  -0.074921  0  3.974466  0
C  C94  1  0.72858722  0.94488383  0.08271410  1  -0.034652  0  -0.089719  -0.131298  0  3.979369  0
C  C95  1  0.85349613  0.13790543  0.08265215  1  -0.079339  0  -0.090277  -0.131902  0  3.980954  0
C  C96  1  0.27141217  0.05511647  0.91728315  1  -0.034248  0  -0.089673  -0.131172  0  3.979276  0
C  C97  1  0.14650903  0.86209905  0.91735257  1  -0.079467  0  -0.090207  -0.131899  0  3.981178  0
C  C98  1  0.87121910  0.78265934  0.22212458  1  1.53932  0  0.201735  0.582501  0  4.183386  0
C  C99  1  0.85045183  0.43960158  0.22202317  1  1.513519  0  0.201483  0.582387  0  4.186237  0
C  C100  1  0.12877566  0.21733759  0.77786945  1  1.539309  0  0.201817  0.582689  0  4.183144  0
C  C101  1  0.14955758  0.56040033  0.77798542  1  1.513634  0  0.2015  0.582232  0  4.186308  0
O  O102  1  0.16499564  0.94614547  0.48768426  1  -1.226734  0  -0.574822  -0.755136  0  2.038708  0
O  O103  1  0.82281248  0.54157965  0.48787339  1  -1.219766  0  -0.575035  -0.754809  0  2.038579  0
O  O104  1  0.83500055  0.05385061  0.51230991  1  -1.226531  0  -0.574803  -0.755113  0  2.038854  0
O  O105  1  0.17718973  0.45841892  0.51212828  1  -1.219847  0  -0.575064  -0.754807  0  2.038609  0
O  O106  1  0.84866527  0.72122451  0.47543549  1  -1.1698  0  -0.324057  -0.57222  0  2.320792  0
O  O107  1  0.12657968  0.75394199  0.47511224  1  -1.166964  0  -0.323505  -0.571593  0  2.321372  0
O  O108  1  0.15132803  0.27877073  0.52455725  1  -1.169704  0  -0.324069  -0.572149  0  2.321163  0
O  O109  1  0.87341159  0.24606248  0.52489374  1  -1.166528  0  -0.323501  -0.571542  0  2.321354  0
O  O110  1  0.97709996  0.89949646  0.58501600  1  -1.181974  0  -0.327354  -0.584577  0  2.304889  0
O  O111  1  0.10763261  0.68533788  0.58473565  1  -1.192358  0  -0.327164  -0.58385  0  2.305693  0
O  O112  1  0.02289193  0.10050216  0.41497847  1  -1.181662  0  -0.327332  -0.584558  0  2.305071  0
O  O113  1  0.89236498  0.31466236  0.41526860  1  -1.19215  0  -0.327234  -0.584003  0  2.305634  0
O  O114  1  0.90999687  0.69907223  0.19354349  1  -1.131591  0  -0.315119  -0.514601  0  2.132609  0
O  O115  1  0.78319317  0.49468891  0.19350088  1  -1.124816  0  -0.31473  -0.514299  0  2.137203  0
O  O116  1  0.09000104  0.30092636  0.80645454  1  -1.131606  0  -0.315133  -0.514656  0  2.132496  0
O  O117  1  0.21681453  0.50531301  0.80650570  1  -1.125066  0  -0.314719  -0.514273  0  2.13724  0
O  O118  1  0.86606535  0.83169199  0.32145979  1  -1.184063  0  -0.353053  -0.634258  0  2.296877  0
O  O119  1  0.95492084  0.48980922  0.32130582  1  -1.1792  0  -0.353224  -0.634519  0  2.294846  0
O  O120  1  0.13393001  0.16830663  0.67853384  1  -1.184078  0  -0.353066  -0.634343  0  2.296919  0
O  O121  1  0.04508775  0.51019524  0.67870223  1  -1.178966  0  -0.353254  -0.634457  0  2.294894  0
