# generated using pymatgen
data_CuH10C6(N4Cl)2
_symmetry_space_group_name_H-M   'P 1'
_cell_length_a   6.65256062
_cell_length_b   7.32740092
_cell_length_c   11.24062228
_cell_angle_alpha   95.07773195
_cell_angle_beta   89.99982437
_cell_angle_gamma   90.00045196
_symmetry_Int_Tables_number   1
_chemical_formula_structural   CuH10C6(N4Cl)2
_chemical_formula_sum   'Cu2 H20 C12 N16 Cl4'
_cell_volume   545.78478557
_cell_formula_units_Z   2
loop_
 _symmetry_equiv_pos_site_id
 _symmetry_equiv_pos_as_xyz
  1  'x, y, z'
loop_
 _atom_site_type_symbol
 _atom_site_label
 _atom_site_symmetry_multiplicity
 _atom_site_fract_x
 _atom_site_fract_y
 _atom_site_fract_z
 _atom_site_occupancy
 _atom_site_hle17_ddec_charge
 _atom_site_hle17_ddec_spin_density
 _atom_site_hle17_ddec_sum_bond_order
 _atom_site_hle17_magmom
 _atom_site_hse06_10hf_ddec_charge
 _atom_site_hse06_10hf_ddec_spin_density
 _atom_site_hse06_10hf_ddec_sum_bond_order
 _atom_site_hse06_10hf_magmom
 _atom_site_hse06_ddec_charge
 _atom_site_hse06_ddec_spin_density
 _atom_site_hse06_ddec_sum_bond_order
 _atom_site_hse06_magmom
 _atom_site_pbe_cm5_charge
 _atom_site_pbe_ddec_charge
 _atom_site_pbe_ddec_spin_density
 _atom_site_pbe_ddec_sum_bond_order
 _atom_site_pbe_magmom
Cu  Cu0  1  0.00000451  0.00000137  0.00000097  1  0.757703  0.632838  1.924227  0.46  0.757292  0.733736  2.303974  0.575  0.851343  0.800512  2.223775  0.661  0.602972  0.707414  0.693723  2.353431  0.529
Cu  Cu1  1  0.49999791  0.49999943  0.99999758  1  0.757803  0.632837  1.924015  0.46  0.757384  0.733728  2.30374  0.575  0.851446  0.800525  2.22361  0.661  0.603015  0.707556  0.693739  2.353164  0.529
H  H2  1  0.46103584  0.99943318  0.11451824  1  0.13604  -0.000514  0.953269  0.0  0.144393  -0.000178  1.01731  0.0  0.148293  -0.000147  1.012178  0.0  0.133186  0.141542  -0.000177  1.020762  0.0
H  H3  1  0.96103265  0.50057232  0.88548705  1  0.136066  -0.000514  0.953211  0.0  0.144416  -0.000178  1.017239  0.0  0.148332  -0.000146  1.0121  0.0  0.133197  0.141558  -0.000177  1.020711  0.0
H  H4  1  0.53897258  0.00056732  0.88548527  1  0.136002  -0.000513  0.953355  0.0  0.144392  -0.000178  1.017338  0.0  0.148295  -0.000147  1.0122  0.0  0.133179  0.141534  -0.000177  1.020817  0.0
H  H5  1  0.03896524  0.49942679  0.11451193  1  0.136056  -0.000514  0.953196  0.0  0.144375  -0.000178  1.017263  0.0  0.148286  -0.000146  1.012125  0.0  0.13318  0.141509  -0.000177  1.020745  0.0
H  H6  1  0.53764195  0.27769209  0.40373328  1  0.085975  0.000109  0.92023  0.0  0.09767  0.000108  0.990103  0.0  0.09832  7.7e-05  0.989786  0.0  0.114678  0.097177  0.000127  0.990325  0.0
H  H7  1  0.03763374  0.22230888  0.59626876  1  0.086013  0.000108  0.920269  0.0  0.097708  0.000108  0.990138  0.0  0.09836  7.7e-05  0.989822  0.0  0.114696  0.097219  0.000127  0.990349  0.0
H  H8  1  0.46236196  0.72230566  0.59626829  1  0.085997  0.000108  0.920318  0.0  0.097685  0.000108  0.990202  0.0  0.098336  7.7e-05  0.989888  0.0  0.114698  0.097196  0.000127  0.99041  0.0
H  H9  1  0.96236716  0.77769159  0.40372763  1  0.08607  0.000108  0.920271  0.0  0.097761  0.000108  0.990134  0.0  0.098414  7.7e-05  0.989819  0.0  0.114738  0.097272  0.000127  0.990347  0.0
H  H10  1  0.67308538  0.13394097  0.29561214  1  0.097555  0.000206  0.956899  0.0  0.10503  0.000281  1.034385  0.0  0.107437  0.000207  1.031859  0.0  0.110239  0.103234  0.000329  1.036188  0.0
H  H11  1  0.17308148  0.36605643  0.70438763  1  0.097561  0.000206  0.956901  0.0  0.10505  0.000281  1.0344  0.0  0.107457  0.000206  1.031879  0.0  0.110236  0.103252  0.000329  1.036205  0.0
H  H12  1  0.32692003  0.86605542  0.70439203  1  0.097537  0.000208  0.956921  0.0  0.105001  0.000281  1.034436  0.0  0.107406  0.000206  1.031918  0.0  0.110215  0.103204  0.000329  1.036239  0.0
H  H13  1  0.82691491  0.63394677  0.29560713  1  0.097602  0.000207  0.956832  0.0  0.10506  0.000281  1.034349  0.0  0.107469  0.000206  1.031826  0.0  0.110228  0.103265  0.000329  1.036145  0.0
H  H14  1  0.72768740  0.03455599  0.49364901  1  0.072794  3.5e-05  0.957029  0.0  0.084701  4.1e-05  1.030699  0.0  0.085815  2.2e-05  1.02996  0.0  0.092796  0.083837  6e-05  1.031286  0.0
H  H15  1  0.22768403  0.46544575  0.50635444  1  0.072746  3.6e-05  0.957139  0.0  0.08469  4.1e-05  1.030761  0.0  0.085804  2.2e-05  1.030025  0.0  0.092809  0.083822  6e-05  1.031361  0.0
H  H16  1  0.27230899  0.96544040  0.50635516  1  0.072743  3.5e-05  0.95712  0.0  0.084683  4.2e-05  1.03077  0.0  0.085802  2.2e-05  1.030028  0.0  0.092808  0.083808  6e-05  1.031371  0.0
H  H17  1  0.77230785  0.53455883  0.49364218  1  0.072757  3.5e-05  0.957095  0.0  0.084697  4.1e-05  1.030742  0.0  0.085815  2.2e-05  1.030001  0.0  0.092814  0.083837  6e-05  1.031329  0.0
H  H18  1  0.59698806  0.86218976  0.40576379  1  0.076597  -1.1e-05  0.960158  0.0  0.093481  2e-06  1.025475  0.0  0.093882  -3e-06  1.026477  0.0  0.095136  0.093081  6e-06  1.024897  0.0
H  H19  1  0.09698485  0.63780741  0.59423914  1  0.076591  -9e-06  0.960185  0.0  0.093463  2e-06  1.025514  0.0  0.093868  -3e-06  1.026515  0.0  0.095108  0.093063  6e-06  1.024939  0.0
H  H20  1  0.40300833  0.13780663  0.59424037  1  0.076533  -9e-06  0.960187  0.0  0.093432  2e-06  1.025491  0.0  0.093838  -3e-06  1.026491  0.0  0.095088  0.093031  6e-06  1.024919  0.0
H  H21  1  0.90300703  0.36219306  0.40575724  1  0.076525  -9e-06  0.960187  0.0  0.093422  2e-06  1.025486  0.0  0.093827  -3e-06  1.026486  0.0  0.095086  0.093027  6e-06  1.024914  0.0
C  C22  1  0.34003737  0.04113263  0.17597086  1  0.179234  -0.005318  3.577636  -0.002  0.100259  -0.001035  3.839462  0.0  0.115641  -0.002378  3.851092  -0.001  0.180251  0.090955  -3e-05  3.831674  0.001
C  C23  1  0.84002348  0.45886681  0.82402954  1  0.179364  -0.005318  3.577996  -0.002  0.100443  -0.001033  3.839799  0.0  0.11581  -0.002378  3.851449  -0.001  0.180357  0.091132  -3e-05  3.832008  0.001
C  C24  1  0.65996654  0.95886650  0.82403257  1  0.179398  -0.005314  3.577575  -0.002  0.100386  -0.001035  3.839459  0.0  0.115766  -0.002378  3.851102  -0.001  0.180284  0.091072  -3.1e-05  3.831681  0.001
C  C25  1  0.15997592  0.54113365  0.17596684  1  0.179255  -0.005319  3.577931  -0.002  0.100353  -0.001034  3.839788  0.0  0.115721  -0.002378  3.851438  -0.001  0.1803  0.091052  -3e-05  3.831989  0.001
C  C26  1  0.54905183  0.13790000  0.36013925  1  -0.013937  0.000652  3.595175  0.001  -0.088789  0.000607  3.850463  0.001  -0.085037  0.000451  3.859944  0.001  -0.049582  -0.090899  0.000728  3.843794  0.001
C  C27  1  0.04904514  0.36209416  0.63986060  1  -0.014025  0.000658  3.595303  0.001  -0.088886  0.000608  3.850607  0.001  -0.085142  0.00045  3.860114  0.001  -0.049635  -0.090998  0.000729  3.843941  0.001
C  C28  1  0.45095057  0.86209776  0.63986499  1  -0.014021  0.000652  3.59525  0.001  -0.088829  0.000607  3.850502  0.001  -0.085086  0.000451  3.860014  0.001  -0.049602  -0.090933  0.000728  3.843821  0.001
C  C29  1  0.95095426  0.63790494  0.36013571  1  -0.014232  0.000652  3.595343  0.001  -0.089015  0.000607  3.850593  0.001  -0.085281  0.000451  3.860115  0.001  -0.049679  -0.091127  0.000728  3.843927  0.001
C  C30  1  0.58156918  0.99966721  0.45212047  1  -0.135097  0.000129  3.693142  0.0  -0.180861  0.000139  3.96298  0.0  -0.182572  8e-05  3.977312  0.0  -0.168816  -0.179317  0.000201  3.952651  0.0
C  C31  1  0.08156899  0.50033126  0.54788080  1  -0.135021  0.000121  3.693068  0.0  -0.180828  0.000139  3.962975  0.0  -0.18251  8.1e-05  3.97724  0.0  -0.168783  -0.17928  0.000201  3.952672  0.0
C  C32  1  0.41842872  0.00033055  0.54788377  1  -0.134887  0.000125  3.693117  0.0  -0.180734  0.000138  3.963031  0.0  -0.182419  8.1e-05  3.977287  0.0  -0.168773  -0.179207  0.000201  3.952782  0.0
C  C33  1  0.91842740  0.49966920  0.45211470  1  -0.134853  0.000128  3.693015  0.0  -0.180703  0.000138  3.962929  0.0  -0.182386  8.1e-05  3.97719  0.0  -0.168787  -0.179176  0.000201  3.952632  0.0
N  N34  1  0.14304859  0.03845926  0.15472111  1  -0.253073  0.058824  3.29317  0.075  -0.209762  0.046281  3.614396  0.062  -0.240831  0.039092  3.633801  0.056  -0.253396  -0.192764  0.04953  3.603895  0.064
N  N35  1  0.64304968  0.46153939  0.84527968  1  -0.253238  0.058828  3.293583  0.075  -0.209996  0.046278  3.614887  0.062  -0.241071  0.03909  3.634315  0.056  -0.253575  -0.19301  0.04953  3.604399  0.064
N  N36  1  0.85695983  0.96153987  0.84528143  1  -0.253221  0.058825  3.293189  0.075  -0.20997  0.046283  3.614522  0.062  -0.24104  0.039093  3.63392  0.056  -0.253526  -0.192984  0.049531  3.604043  0.064
N  N37  1  0.35694972  0.53846107  0.15471671  1  -0.253185  0.058827  3.293511  0.075  -0.209919  0.046281  3.614775  0.062  -0.240995  0.039092  3.634201  0.056  -0.253528  -0.192943  0.049531  3.604296  0.064
N  N38  1  0.04862346  0.10040337  0.25749106  1  -0.032086  -0.00237  2.928923  -0.002  -0.025988  0.000614  3.233637  0.0  -0.020576  -0.000505  3.244129  -0.001  -0.06801  -0.029089  0.001407  3.227088  0.001
N  N39  1  0.54861971  0.39959217  0.74251154  1  -0.032123  -0.002383  2.928967  -0.002  -0.026026  0.000618  3.233679  0.0  -0.02061  -0.000504  3.244167  -0.001  -0.067979  -0.02913  0.001407  3.227134  0.001
N  N40  1  0.95138045  0.89959438  0.74251051  1  -0.032031  -0.002379  2.929031  -0.002  -0.025948  0.000618  3.233732  0.0  -0.020534  -0.000504  3.244222  -0.001  -0.067971  -0.029046  0.001407  3.227188  0.001
N  N41  1  0.45137969  0.60040555  0.25748381  1  -0.031957  -0.002377  2.928945  -0.002  -0.025836  0.000617  3.233595  0.0  -0.020421  -0.000504  3.244083  -0.001  -0.067929  -0.028934  0.001407  3.227049  0.001
N  N42  1  0.18145059  0.14164006  0.33998706  1  -0.101211  0.003888  2.86269  0.005  -0.111265  0.003006  3.144229  0.004  -0.110552  0.001922  3.153271  0.003  -0.067681  -0.111139  0.003878  3.137835  0.005
N  N43  1  0.68144668  0.35835739  0.66001625  1  -0.101096  0.003896  2.862693  0.005  -0.111084  0.003005  3.144169  0.004  -0.110364  0.001922  3.153207  0.003  -0.067621  -0.110959  0.003878  3.137772  0.005
N  N44  1  0.81855483  0.85835770  0.66001630  1  -0.101282  0.003903  2.862924  0.005  -0.111223  0.003005  3.144327  0.004  -0.110508  0.001922  3.153366  0.003  -0.067659  -0.111092  0.003878  3.137926  0.005
N  N45  1  0.31855272  0.64164034  0.33997909  1  -0.101304  0.003899  2.862679  0.005  -0.111294  0.003005  3.144175  0.004  -0.11058  0.001922  3.15321  0.003  -0.067704  -0.111172  0.003878  3.137781  0.005
N  N46  1  0.36485052  0.10466492  0.29056118  1  0.040315  0.002064  3.500272  0.003  0.163882  0.001413  3.683271  0.002  0.152555  0.001215  3.705153  0.002  -0.115689  0.169718  0.001551  3.670865  0.002
N  N47  1  0.86484836  0.39533739  0.70944467  1  0.040229  0.002061  3.500454  0.003  0.163761  0.00141  3.683479  0.002  0.152416  0.001214  3.705401  0.002  -0.115705  0.1696  0.001551  3.67107  0.002
N  N48  1  0.63515339  0.89533421  0.70944136  1  0.040362  0.002056  3.500337  0.003  0.163894  0.001409  3.683367  0.002  0.152574  0.001213  3.70524  0.002  -0.115634  0.169735  0.001551  3.670957  0.002
N  N49  1  0.13514803  0.60466171  0.29055342  1  0.040384  0.002059  3.500339  0.003  0.163867  0.001411  3.683435  0.002  0.152552  0.001214  3.705307  0.002  -0.115659  0.169704  0.001551  3.671027  0.002
Cl  Cl50  1  0.77558427  0.80215477  0.07984261  1  -0.531977  0.125888  0.993391  0.157  -0.551428  0.081856  1.299561  0.11  -0.588097  0.059709  1.275879  0.088  -0.304597  -0.530058  0.095529  1.316172  0.121
Cl  Cl51  1  0.27558644  0.69785406  0.92015526  1  -0.531978  0.125886  0.993369  0.157  -0.551398  0.081856  1.299486  0.11  -0.588081  0.059708  1.275825  0.088  -0.304585  -0.530032  0.095524  1.316102  0.121
Cl  Cl52  1  0.22441813  0.19785393  0.92015869  1  -0.531988  0.125883  0.993439  0.157  -0.55143  0.081853  1.299592  0.11  -0.588086  0.059708  1.275886  0.088  -0.304598  -0.530061  0.095521  1.316216  0.121
Cl  Cl53  1  0.72441146  0.30215465  0.07984515  1  -0.531984  0.125891  0.993361  0.157  -0.551418  0.081859  1.299508  0.11  -0.588099  0.059709  1.275844  0.088  -0.304586  -0.530056  0.095527  1.316126  0.121
