# generated using pymatgen
data_Na2H22W(C4O7)3
_symmetry_space_group_name_H-M   'P 1'
_cell_length_a   7.89508963
_cell_length_b   19.03970717
_cell_length_c   15.70605655
_cell_angle_alpha   89.99920570
_cell_angle_beta   93.40292465
_cell_angle_gamma   89.99998417
_symmetry_Int_Tables_number   1
_chemical_formula_structural   Na2H22W(C4O7)3
_chemical_formula_sum   'Na8 H88 W4 C48 O84'
_cell_volume   2356.77466912
_cell_formula_units_Z   4
loop_
 _symmetry_equiv_pos_site_id
 _symmetry_equiv_pos_as_xyz
  1  'x, y, z'
loop_
 _atom_site_type_symbol
 _atom_site_label
 _atom_site_symmetry_multiplicity
 _atom_site_fract_x
 _atom_site_fract_y
 _atom_site_fract_z
 _atom_site_occupancy
 _atom_site_pbe_bader_charge
 _atom_site_pbe_bader_spin_density
 _atom_site_pbe_cm5_charge
 _atom_site_pbe_ddec_charge
 _atom_site_pbe_ddec_spin_density
 _atom_site_pbe_ddec_sum_bond_order
 _atom_site_pbe_magmom
Na  Na0  1  0.57822708  0.14500126  0.09086739  1  0.889311  0  0.684862  0.868243  0  0.547747  0
Na  Na1  1  0.42174357  0.64499684  0.40913336  1  0.889243  0  0.684885  0.86825  0  0.547728  0
Na  Na2  1  0.42176684  0.85500277  0.90913360  1  0.889293  0  0.684859  0.868201  0  0.547849  0
Na  Na3  1  0.57824913  0.35500456  0.59087269  1  0.889298  0  0.68485  0.868196  0  0.547831  0
Na  Na4  1  0.92026844  0.87535445  0.15362575  1  0.887453  0  0.704705  0.870631  0  0.550618  0
Na  Na5  1  0.07972873  0.37535399  0.34638222  1  0.887499  0  0.704702  0.870633  0  0.550653  0
Na  Na6  1  0.07977249  0.12463592  0.84638225  1  0.887356  0  0.704682  0.870676  0  0.550588  0
Na  Na7  1  0.92024349  0.62464373  0.65360544  1  0.887481  0  0.704657  0.870683  0  0.550579  0
H  H8  1  0.86073349  0.07141560  0.00140818  1  0.641993  0  0.293348  0.408625  0  0.922147  0
H  H9  1  0.13924445  0.57141585  0.49859358  1  0.642046  0  0.29337  0.408542  0  0.922226  0
H  H10  1  0.13923902  0.92857372  0.99860750  1  0.641735  0  0.293365  0.408497  0  0.922301  0
H  H11  1  0.86076459  0.42857295  0.50139763  1  0.641764  0  0.293354  0.408509  0  0.922299  0
H  H12  1  0.93429795  0.08599275  0.09761051  1  0.633377  0  0.297588  0.381384  0  0.958711  0
H  H13  1  0.06567876  0.58599566  0.40238876  1  0.633173  0  0.297578  0.381432  0  0.958621  0
H  H14  1  0.06567454  0.91399237  0.90240326  1  0.633309  0  0.29752  0.381343  0  0.958737  0
H  H15  1  0.93433916  0.41399523  0.59760206  1  0.633138  0  0.297508  0.381368  0  0.958715  0
H  H16  1  0.50101104  0.86481473  0.41372355  1  0.087525  0  0.121175  0.157921  0  0.948989  0
H  H17  1  0.49898985  0.36482565  0.08628064  1  0.087689  0  0.121128  0.157893  0  0.948993  0
H  H18  1  0.49905267  0.13518878  0.58627934  1  0.086854  0  0.121172  0.157892  0  0.948957  0
H  H19  1  0.50099003  0.63519834  0.91371169  1  0.086925  0  0.121172  0.157938  0  0.948913  0
H  H20  1  0.51881151  0.95152716  0.37709649  1  0.104471  0  0.11866  0.158771  0  0.956549  0
H  H21  1  0.48116958  0.45153342  0.12291724  1  0.104805  0  0.118662  0.15878  0  0.956426  0
H  H22  1  0.48124969  0.04847792  0.62291015  1  0.104459  0  0.1186  0.158758  0  0.956555  0
H  H23  1  0.51879134  0.54848741  0.87708157  1  0.104047  0  0.118699  0.15881  0  0.956566  0
H  H24  1  0.93902881  0.88533670  0.39003052  1  0.640673  0  0.308666  0.363776  0  0.947347  0
H  H25  1  0.06096204  0.38532847  0.10997416  1  0.640651  0  0.308623  0.363624  0  0.947384  0
H  H26  1  0.06103880  0.11467626  0.60998139  1  0.640996  0  0.308646  0.363858  0  0.947247  0
H  H27  1  0.93900634  0.61468134  0.89000958  1  0.641293  0  0.308651  0.363768  0  0.947323  0
H  H28  1  0.53268333  0.78897493  0.24757761  1  0.120875  0  0.11351  0.154345  0  0.999052  0
H  H29  1  0.46731217  0.28897403  0.25243042  1  0.120984  0  0.113578  0.154412  0  0.998948  0
H  H30  1  0.46740179  0.21103750  0.75241058  1  0.120975  0  0.113582  0.154434  0  0.999095  0
H  H31  1  0.53263722  0.71104208  0.74755725  1  0.121358  0  0.113592  0.154375  0  0.999003  0
H  H32  1  0.35839173  0.77089249  0.30953499  1  0.088934  0  0.117427  0.140859  0  1.010417  0
H  H33  1  0.64159730  0.27089626  0.19046829  1  0.089052  0  0.117459  0.140919  0  1.010435  0
H  H34  1  0.64171243  0.22910629  0.69045436  1  0.088227  0  0.117385  0.140864  0  1.010415  0
H  H35  1  0.35836364  0.72911880  0.80953243  1  0.088753  0  0.117426  0.140923  0  1.010422  0
H  H36  1  0.30820577  0.74659716  0.06261344  1  0.654991  0  0.305223  0.372532  0  0.952491  0
H  H37  1  0.69181615  0.24659735  0.43739250  1  0.654764  0  0.305214  0.372558  0  0.952474  0
H  H38  1  0.69184146  0.25338954  0.93739091  1  0.654622  0  0.305194  0.372413  0  0.952587  0
H  H39  1  0.30812690  0.75339407  0.56259563  1  0.656265  0  0.305168  0.372592  0  0.952453  0
H  H40  1  0.94526008  0.20902537  0.19387989  1  0.129488  0  0.109365  0.140381  0  1.019458  0
H  H41  1  0.05469548  0.70903195  0.30610428  1  0.12923  0  0.10938  0.140411  0  1.019252  0
H  H42  1  0.05471616  0.79096920  0.80612825  1  0.129341  0  0.109428  0.140418  0  1.019234  0
H  H43  1  0.94530594  0.29097103  0.69388609  1  0.129529  0  0.109382  0.140437  0  1.019186  0
H  H44  1  0.12360274  0.23898017  0.25796304  1  0.084846  0  0.116898  0.144597  0  1.006795  0
H  H45  1  0.87634532  0.73897881  0.24201793  1  0.084493  0  0.11685  0.144501  0  1.006858  0
H  H46  1  0.87637224  0.76101125  0.74204571  1  0.08476  0  0.116929  0.144478  0  1.006864  0
H  H47  1  0.12365608  0.26101839  0.75797053  1  0.084561  0  0.116917  0.144536  0  1.006809  0
H  H48  1  0.16323070  0.22074431  0.00596957  1  0.643743  0  0.301765  0.375963  0  0.9666  0
H  H49  1  0.83672491  0.72074615  0.49401403  1  0.64394  0  0.301735  0.37601  0  0.966468  0
H  H50  1  0.83675948  0.77925341  0.99403832  1  0.643992  0  0.301829  0.376049  0  0.966639  0
H  H51  1  0.16325877  0.27925788  0.50597776  1  0.644346  0  0.301709  0.37591  0  0.966651  0
H  H52  1  0.99458886  0.06034712  0.34881499  1  0.100045  0  0.115793  0.155428  0  0.959839  0
H  H53  1  0.00537230  0.56035269  0.15116332  1  0.099592  0  0.1159  0.155502  0  0.95961  0
H  H54  1  0.00536562  0.93964272  0.65117473  1  0.099726  0  0.115854  0.155489  0  0.959613  0
H  H55  1  0.99464445  0.43964399  0.84883702  1  0.099244  0  0.115913  0.155506  0  0.959663  0
H  H56  1  0.97237746  0.15165870  0.36612433  1  0.105085  0  0.121093  0.157792  0  0.951226  0
H  H57  1  0.02758550  0.65166366  0.13386478  1  0.104818  0  0.121135  0.157902  0  0.951068  0
H  H58  1  0.02758603  0.84833114  0.63387774  1  0.104943  0  0.121116  0.157889  0  0.950961  0
H  H59  1  0.97242106  0.34833196  0.86613146  1  0.104869  0  0.121109  0.157861  0  0.951108  0
H  H60  1  0.56469136  0.06698192  0.30662242  1  0.659286  0  0.309321  0.365715  0  0.961176  0
H  H61  1  0.43527380  0.56698332  0.19337196  1  0.659506  0  0.309266  0.365598  0  0.961279  0
H  H62  1  0.43527332  0.93301475  0.69337140  1  0.659525  0  0.309266  0.365579  0  0.961342  0
H  H63  1  0.56473657  0.43301860  0.80662502  1  0.659575  0  0.309251  0.365555  0  0.961374  0
H  H64  1  0.54889324  0.12339385  0.90324677  1  0.628593  0  0.30587  0.373984  0  0.960977  0
H  H65  1  0.45111283  0.62338787  0.59676547  1  0.628382  0  0.305867  0.373991  0  0.961053  0
H  H66  1  0.45107008  0.87660913  0.09673874  1  0.628163  0  0.305894  0.37404  0  0.960778  0
H  H67  1  0.54892319  0.37661248  0.40325959  1  0.62818  0  0.305869  0.374027  0  0.960881  0
H  H68  1  0.40123471  0.08469900  0.94173456  1  0.645326  0  0.299508  0.398469  0  0.933832  0
H  H69  1  0.59875961  0.58470128  0.55826248  1  0.645395  0  0.299465  0.398424  0  0.93389  0
H  H70  1  0.59877458  0.91529400  0.05828149  1  0.645397  0  0.299479  0.398411  0  0.933897  0
H  H71  1  0.40123040  0.41529645  0.44172821  1  0.645355  0  0.299472  0.398403  0  0.933902  0
H  H72  1  0.76055889  0.01129842  0.09595237  1  0.647169  0  0.292317  0.393426  0  0.947161  0
H  H73  1  0.23942135  0.51130114  0.40405354  1  0.647086  0  0.292376  0.393455  0  0.947101  0
H  H74  1  0.23940361  0.98868775  0.90407705  1  0.646754  0  0.292375  0.393283  0  0.947271  0
H  H75  1  0.76060661  0.48869029  0.59592609  1  0.646817  0  0.292317  0.393255  0  0.947327  0
H  H76  1  0.64807366  0.97223883  0.16253022  1  0.62972  0  0.306816  0.385862  0  0.939908  0
H  H77  1  0.35191256  0.47224151  0.33747933  1  0.629885  0  0.306855  0.385931  0  0.9399  0
H  H78  1  0.35191804  0.02772844  0.83750255  1  0.630147  0  0.306803  0.386014  0  0.939703  0
H  H79  1  0.64809636  0.52773468  0.66249915  1  0.626098  0  0.306889  0.38618  0  0.939455  0
H  H80  1  0.73513777  0.73491142  0.09895591  1  0.664841  0  0.300464  0.401551  0  0.931403  0
H  H81  1  0.26484602  0.23492034  0.40104701  1  0.665059  0  0.300495  0.401517  0  0.93141  0
H  H82  1  0.26486889  0.26508263  0.90104988  1  0.664846  0  0.300466  0.401476  0  0.93147  0
H  H83  1  0.73513137  0.76508054  0.59894907  1  0.664919  0  0.300451  0.401463  0  0.931513  0
H  H84  1  0.65443883  0.80951231  0.06613235  1  0.642014  0  0.295597  0.386163  0  0.957268  0
H  H85  1  0.34556819  0.30951554  0.43387676  1  0.641963  0  0.295513  0.386013  0  0.957431  0
H  H86  1  0.34556284  0.19048279  0.93388222  1  0.641963  0  0.295592  0.38613  0  0.957278  0
H  H87  1  0.65441931  0.69048481  0.56611641  1  0.641894  0  0.295518  0.386023  0  0.957435  0
H  H88  1  0.76909160  0.29608212  0.06412599  1  0.63999  0  0.292539  0.382585  0  0.956951  0
H  H89  1  0.23087206  0.79607400  0.43586530  1  0.639975  0  0.292459  0.382575  0  0.956967  0
H  H90  1  0.23088329  0.70391981  0.93587384  1  0.639978  0  0.292481  0.382597  0  0.95696  0
H  H91  1  0.76915223  0.20391322  0.56412760  1  0.639805  0  0.29254  0.382766  0  0.956684  0
H  H92  1  0.86547474  0.22852357  0.04131044  1  0.655809  0  0.300422  0.381936  0  0.956134  0
H  H93  1  0.13448987  0.72851439  0.45868046  1  0.655355  0  0.300511  0.382047  0  0.955972  0
H  H94  1  0.13453457  0.77148203  0.95870624  1  0.655848  0  0.30042  0.381938  0  0.956149  0
H  H95  1  0.86548613  0.27148071  0.54130412  1  0.655718  0  0.300455  0.381964  0  0.956063  0
W  W96  1  0.25683647  0.00007477  0.17160878  1  2.822241  0  1.650006  2.16587  0  4.867877  0
W  W97  1  0.74314877  0.50007487  0.32839529  1  2.823231  0  1.650079  2.166021  0  4.867608  0
W  W98  1  0.74317274  0.99992663  0.82839835  1  2.822353  0  1.649892  2.165807  0  4.867772  0
W  W99  1  0.25684135  0.49993126  0.67160623  1  2.823405  0  1.649867  2.165794  0  4.86756  0
C  C100  1  0.21467736  0.89860293  0.31667828  1  1.593039  0  0.222211  0.538902  0  4.133925  0
C  C101  1  0.78530973  0.39860518  0.18332574  1  1.594597  0  0.222131  0.538827  0  4.134018  0
C  C102  1  0.78539018  0.10139322  0.68332790  1  1.593815  0  0.22213  0.538913  0  4.134468  0
C  C103  1  0.21465497  0.60140567  0.81667063  1  1.592998  0  0.222056  0.538555  0  4.134223  0
C  C104  1  0.39251246  0.88118337  0.28439369  1  0.502122  0  0.074556  0.268322  0  3.83094  0
C  C105  1  0.60747965  0.38118387  0.21561290  1  0.501953  0  0.074598  0.268472  0  3.830375  0
C  C106  1  0.60755252  0.11882066  0.71560923  1  0.501102  0  0.074515  0.268673  0  3.830642  0
C  C107  1  0.39248503  0.61883119  0.78438219  1  0.50173  0  0.074624  0.268698  0  3.830676  0
C  C108  1  0.52772372  0.89630073  0.35736091  1  -0.035784  0  -0.151299  -0.38274  0  3.820559  0
C  C109  1  0.47226592  0.39630437  0.14264572  1  -0.036097  0  -0.151283  -0.382799  0  3.820302  0
C  C110  1  0.47234000  0.10370540  0.64264326  1  -0.03509  0  -0.151311  -0.382816  0  3.820106  0
C  C111  1  0.52769875  0.60371489  0.85734811  1  -0.033941  0  -0.151345  -0.382639  0  3.820272  0
C  C112  1  0.71120234  0.88293201  0.33757218  1  1.545577  0  0.246684  0.67851  0  4.022457  0
C  C113  1  0.28878850  0.38292898  0.16243312  1  1.54561  0  0.246636  0.678504  0  4.022466  0
C  C114  1  0.28886780  0.11707517  0.66243916  1  1.545269  0  0.246708  0.67882  0  4.022469  0
C  C115  1  0.71117228  0.61708293  0.83755168  1  1.544783  0  0.246511  0.678316  0  4.02328  0
C  C116  1  0.40147670  0.80338002  0.25729660  1  -0.057964  0  -0.164918  -0.403251  0  3.843506  0
C  C117  1  0.59851758  0.30338084  0.24270895  1  -0.05819  0  -0.165109  -0.403539  0  3.843345  0
C  C118  1  0.59860592  0.19662664  0.74269471  1  -0.057455  0  -0.165154  -0.403948  0  3.844494  0
C  C119  1  0.40143700  0.69663527  0.75728969  1  -0.058841  0  -0.165337  -0.403969  0  3.844205  0
C  C120  1  0.29181463  0.78532466  0.17828364  1  1.545288  0  0.237307  0.67207  0  4.063326  0
C  C121  1  0.70818968  0.28532219  0.32171888  1  1.54556  0  0.237442  0.672419  0  4.062901  0
C  C122  1  0.70825661  0.21467832  0.82171118  1  1.546698  0  0.238166  0.673646  0  4.061628  0
C  C123  1  0.29175605  0.71469024  0.67828270  1  1.545977  0  0.23783  0.67326  0  4.062318  0
C  C124  1  0.27153426  0.11766251  0.30260218  1  1.593014  0  0.223982  0.545907  0  4.11869  0
C  C125  1  0.72843239  0.61765566  0.19739128  1  1.593177  0  0.224047  0.546289  0  4.118478  0
C  C126  1  0.72843693  0.88233522  0.69740838  1  1.59463  0  0.224202  0.546423  0  4.118062  0
C  C127  1  0.27157921  0.38234207  0.80260191  1  1.593061  0  0.224208  0.546296  0  4.118781  0
C  C128  1  0.09861329  0.12584828  0.25170408  1  0.503228  0  0.076165  0.267001  0  3.839874  0
C  C129  1  0.90135462  0.62584672  0.24828501  1  0.502819  0  0.07606  0.266432  0  3.840268  0
C  C130  1  0.90136163  0.87414630  0.74830021  1  0.503258  0  0.076009  0.26666  0  3.839879  0
C  C131  1  0.09865447  0.37415153  0.75171066  1  0.502945  0  0.076034  0.266467  0  3.840345  0
C  C132  1  0.07922663  0.19933473  0.21116806  1  -0.067502  0  -0.166607  -0.4041  0  3.84651  0
C  C133  1  0.92073142  0.69933574  0.28881548  1  -0.06645  0  -0.166488  -0.403916  0  3.84623  0
C  C134  1  0.92074832  0.80065932  0.78883814  1  -0.067177  0  -0.166729  -0.40392  0  3.84635  0
C  C135  1  0.07927128  0.30066356  0.71117556  1  -0.066755  0  -0.166624  -0.40395  0  3.846197  0
C  C136  1  0.18285513  0.20606851  0.13360782  1  1.504164  0  0.23948  0.677076  0  4.055381  0
C  C137  1  0.81710168  0.70606698  0.36637573  1  1.503206  0  0.239429  0.677301  0  4.054834  0
C  C138  1  0.81712365  0.79392712  0.86640103  1  1.50385  0  0.239396  0.676737  0  4.055197  0
C  C139  1  0.18289721  0.29393232  0.63361457  1  1.503109  0  0.239367  0.676899  0  4.055204  0
C  C140  1  0.96410122  0.11041137  0.31685238  1  -0.052454  0  -0.153161  -0.38581  0  3.834076  0
C  C141  1  0.03586025  0.61041288  0.18313389  1  -0.052017  0  -0.153218  -0.385763  0  3.834105  0
C  C142  1  0.03586223  0.88958268  0.68314523  1  -0.052086  0  -0.153199  -0.38596  0  3.833967  0
C  C143  1  0.96415141  0.38958484  0.81686503  1  -0.051762  0  -0.153235  -0.385821  0  3.834297  0
C  C144  1  0.78136538  0.10753477  0.28225549  1  1.54519  0  0.246217  0.680693  0  4.025305  0
C  C145  1  0.21859232  0.60753098  0.21773512  1  1.547082  0  0.246153  0.680509  0  4.025645  0
C  C146  1  0.21859680  0.89246873  0.71774209  1  1.545252  0  0.246172  0.680574  0  4.025787  0
C  C147  1  0.78142060  0.39247094  0.78226320  1  1.54559  0  0.246092  0.680519  0  4.025595  0
O  O148  1  0.13502626  0.94849083  0.27649744  1  -1.176757  0  -0.340439  -0.601484  0  2.386167  0
O  O149  1  0.86495852  0.44849350  0.22350618  1  -1.17696  0  -0.340429  -0.601469  0  2.3862  0
O  O150  1  0.86501844  0.05149902  0.72350747  1  -1.177109  0  -0.340432  -0.601435  0  2.386337  0
O  O151  1  0.13502401  0.55150948  0.77649704  1  -1.176566  0  -0.340387  -0.601353  0  2.386178  0
O  O152  1  0.41768302  0.92639720  0.21357338  1  -1.085826  0  -0.392893  -0.621188  0  2.338365  0
O  O153  1  0.58230932  0.42639528  0.28643478  1  -1.085931  0  -0.392929  -0.621121  0  2.337915  0
O  O154  1  0.58236294  0.07361261  0.78643094  1  -1.085495  0  -0.392786  -0.621261  0  2.33804  0
O  O155  1  0.41766428  0.57361926  0.71356311  1  -1.085631  0  -0.392897  -0.6213  0  2.338005  0
O  O156  1  0.15510950  0.86625447  0.37788263  1  -1.184843  0  -0.284499  -0.50372  0  2.214432  0
O  O157  1  0.84487488  0.36625937  0.12211857  1  -1.186109  0  -0.284482  -0.503721  0  2.214452  0
O  O158  1  0.84497332  0.13374326  0.62212842  1  -1.18494  0  -0.284375  -0.503855  0  2.214598  0
O  O159  1  0.15507834  0.63375568  0.87787175  1  -1.185102  0  -0.28438  -0.503578  0  2.214653  0
O  O160  1  0.81801269  0.89424110  0.40507846  1  -1.141319  0  -0.331072  -0.476349  0  2.235242  0
O  O161  1  0.18197817  0.39423054  0.09492436  1  -1.141353  0  -0.331066  -0.47628  0  2.235323  0
O  O162  1  0.18205614  0.10578342  0.59492966  1  -1.140814  0  -0.331202  -0.476727  0  2.235527  0
O  O163  1  0.81798641  0.60578662  0.90505991  1  -1.141148  0  -0.331071  -0.476391  0  2.23573  0
O  O164  1  0.75757324  0.86352612  0.26791514  1  -1.190322  0  -0.361102  -0.566313  0  2.204396  0
O  O165  1  0.24242006  0.36352598  0.23209202  1  -1.190474  0  -0.361034  -0.566238  0  2.204309  0
O  O166  1  0.24250968  0.13646320  0.73210610  1  -1.19054  0  -0.361008  -0.566321  0  2.204202  0
O  O167  1  0.75753178  0.63647595  0.76788681  1  -1.190619  0  -0.360937  -0.566203  0  2.20455  0
O  O168  1  0.37526787  0.75075029  0.12083270  1  -1.166183  0  -0.320307  -0.470516  0  2.307598  0
O  O169  1  0.62474522  0.25074950  0.37917558  1  -1.16617  0  -0.320344  -0.470633  0  2.307497  0
O  O170  1  0.62479200  0.24923956  0.87916690  1  -1.166106  0  -0.320598  -0.470838  0  2.307118  0
O  O171  1  0.37519660  0.74925033  0.62081571  1  -1.167402  0  -0.320401  -0.470915  0  2.307528  0
O  O172  1  0.14032790  0.80132564  0.16830111  1  -1.193042  0  -0.384119  -0.597719  0  2.191751  0
O  O173  1  0.85967895  0.30132066  0.33169393  1  -1.193088  0  -0.384113  -0.597794  0  2.191694  0
O  O174  1  0.85974712  0.19868102  0.83169126  1  -1.193884  0  -0.384392  -0.598393  0  2.191009  0
O  O175  1  0.14026181  0.69869282  0.66831770  1  -1.193512  0  -0.384184  -0.598116  0  2.191261  0
O  O176  1  0.35862502  0.06299597  0.28008329  1  -1.1735  0  -0.332206  -0.602918  0  2.406219  0
O  O177  1  0.64134274  0.56299226  0.21991942  1  -1.174049  0  -0.332428  -0.603205  0  2.406133  0
O  O178  1  0.64135756  0.93700543  0.71992503  1  -1.17388  0  -0.332391  -0.603149  0  2.405837  0
O  O179  1  0.35865625  0.43701229  0.78008107  1  -1.174195  0  -0.332476  -0.603114  0  2.406028  0
O  O180  1  0.08835474  0.07443032  0.18560402  1  -1.077406  0  -0.388694  -0.603644  0  2.362491  0
O  O181  1  0.91162694  0.57443116  0.31439022  1  -1.078245  0  -0.38858  -0.60349  0  2.362507  0
O  O182  1  0.91163542  0.92556373  0.81440132  1  -1.077318  0  -0.388628  -0.603453  0  2.362362  0
O  O183  1  0.08837457  0.42556919  0.68560843  1  -1.078223  0  -0.388535  -0.603439  0  2.362609  0
O  O184  1  0.31709220  0.15741440  0.36172481  1  -1.165946  0  -0.287408  -0.481943  0  2.197071  0
O  O185  1  0.68286951  0.65740341  0.13826430  1  -1.165814  0  -0.287281  -0.481956  0  2.197207  0
O  O186  1  0.68286128  0.84258017  0.63829163  1  -1.1675  0  -0.287417  -0.48214  0  2.196986  0
O  O187  1  0.31715848  0.34258854  0.86171978  1  -1.165708  0  -0.287362  -0.482025  0  2.197351  0
O  O188  1  0.09008532  0.21743682  0.06145020  1  -1.185639  0  -0.317724  -0.509191  0  2.326065  0
O  O189  1  0.90986901  0.71743904  0.43853335  1  -1.185216  0  -0.317845  -0.509587  0  2.326273  0
O  O190  1  0.90989978  0.78256143  0.93855691  1  -1.186021  0  -0.317787  -0.509186  0  2.326252  0
O  O191  1  0.09012103  0.28256394  0.56145925  1  -1.185703  0  -0.317792  -0.509265  0  2.326363  0
O  O192  1  0.33888247  0.20145592  0.13716255  1  -1.138167  0  -0.35485  -0.572268  0  2.159984  0
O  O193  1  0.66107560  0.70144833  0.36282101  1  -1.138175  0  -0.354679  -0.572114  0  2.159483  0
O  O194  1  0.66109507  0.79853708  0.86284818  1  -1.138173  0  -0.354734  -0.572085  0  2.159833  0
O  O195  1  0.33892455  0.29854414  0.63716805  1  -1.138166  0  -0.354652  -0.571976  0  2.159687  0
O  O196  1  0.68950816  0.06279142  0.32570562  1  -1.176146  0  -0.329925  -0.484159  0  2.254838  0
O  O197  1  0.31046191  0.56279975  0.17427550  1  -1.175983  0  -0.329701  -0.48392  0  2.254968  0
O  O198  1  0.31046146  0.93719738  0.67427560  1  -1.175745  0  -0.329679  -0.483859  0  2.255123  0
O  O199  1  0.68954847  0.43720113  0.82572275  1  -1.175934  0  -0.329677  -0.483879  0  2.255001  0
O  O200  1  0.72117838  0.14339277  0.22264742  1  -1.184364  0  -0.35374  -0.557689  0  2.201864  0
O  O201  1  0.27876315  0.64337577  0.27735889  1  -1.185985  0  -0.353894  -0.557661  0  2.201705  0
O  O202  1  0.27877511  0.85662964  0.77736902  1  -1.184533  0  -0.353872  -0.557617  0  2.201856  0
O  O203  1  0.72125227  0.35662931  0.72263632  1  -1.18446  0  -0.353818  -0.557599  0  2.201791  0
O  O204  1  0.12094665  0.95345762  0.09730423  1  -0.993985  0  -0.609111  -0.826548  0  1.877724  0
O  O205  1  0.87904448  0.45345806  0.40269833  1  -0.993933  0  -0.609121  -0.826611  0  1.877754  0
O  O206  1  0.87906765  0.04653905  0.90270495  1  -0.994296  0  -0.609102  -0.826601  0  1.877639  0
O  O207  1  0.12094559  0.54654177  0.59729810  1  -0.994166  0  -0.609073  -0.826572  0  1.877614  0
O  O208  1  0.40657550  0.03913235  0.10865823  1  -0.929008  0  -0.589112  -0.776423  0  1.79617  0
O  O209  1  0.59341628  0.53913246  0.39134690  1  -0.928933  0  -0.589151  -0.776495  0  1.796157  0
O  O210  1  0.59342227  0.96087535  0.89134668  1  -0.928921  0  -0.589052  -0.776426  0  1.796201  0
O  O211  1  0.40658784  0.46087630  0.60865883  1  -0.928901  0  -0.58904  -0.776376  0  1.796126  0
O  O212  1  0.82974298  0.08502953  0.05995787  1  -1.272012  0  -0.632654  -0.802602  0  2.031957  0
O  O213  1  0.17022995  0.58503396  0.44004384  1  -1.271795  0  -0.632685  -0.802557  0  2.032062  0
O  O214  1  0.17022700  0.91495559  0.94005838  1  -1.271758  0  -0.632568  -0.802414  0  2.032324  0
O  O215  1  0.82978544  0.41495431  0.55994818  1  -1.271628  0  -0.632577  -0.80243  0  2.03221  0
O  O216  1  0.47999283  0.12559650  0.95279388  1  -1.273314  0  -0.646743  -0.79698  0  2.089954  0
O  O217  1  0.51998779  0.62559495  0.54720940  1  -1.273225  0  -0.646697  -0.796931  0  2.089975  0
O  O218  1  0.52000360  0.87440280  0.04720463  1  -1.272954  0  -0.646765  -0.796996  0  2.089833  0
O  O219  1  0.48000494  0.37440540  0.45279919  1  -1.272985  0  -0.646699  -0.796978  0  2.089879  0
O  O220  1  0.73200115  0.96410530  0.12042034  1  -1.277681  0  -0.651837  -0.810451  0  2.053313  0
O  O221  1  0.26798249  0.46410798  0.37958844  1  -1.27773  0  -0.651912  -0.810602  0  2.053291  0
O  O222  1  0.26798923  0.03587772  0.87960665  1  -1.277521  0  -0.651866  -0.810549  0  2.053158  0
O  O223  1  0.73202264  0.53588135  0.62039184  1  -1.273572  0  -0.6519  -0.810709  0  2.052987  0
O  O224  1  0.76310761  0.78175804  0.07445078  1  -1.29193  0  -0.610014  -0.79301  0  2.06545  0
O  O225  1  0.23689424  0.28176423  0.42556120  1  -1.292036  0  -0.609935  -0.79282  0  2.065661  0
O  O226  1  0.23689660  0.21824073  0.92556386  1  -1.291885  0  -0.609988  -0.792847  0  2.065555  0
O  O227  1  0.76308814  0.71824085  0.57442737  1  -1.291729  0  -0.609918  -0.792758  0  2.065569  0
O  O228  1  0.75104034  0.24985702  0.03495430  1  -1.288231  0  -0.595132  -0.784279  0  2.028161  0
O  O229  1  0.24892310  0.74984862  0.46503734  1  -1.287944  0  -0.59517  -0.784408  0  2.028053  0
O  O230  1  0.24895999  0.75014018  0.96505323  1  -1.288327  0  -0.595073  -0.784296  0  2.028123  0
O  O231  1  0.75106565  0.25013598  0.53495459  1  -1.288105  0  -0.595145  -0.784445  0  2.028009  0
