# generated using pymatgen
data_CuH5C6BrN3
_symmetry_space_group_name_H-M   'P 1'
_cell_length_a   9.92721875
_cell_length_b   12.19673126
_cell_length_c   12.32015812
_cell_angle_alpha   90.00024107
_cell_angle_beta   90.00022227
_cell_angle_gamma   91.65123471
_symmetry_Int_Tables_number   1
_chemical_formula_structural   CuH5C6BrN3
_chemical_formula_sum   'Cu8 H40 C48 Br8 N24'
_cell_volume   1491.10061320
_cell_formula_units_Z   8
loop_
 _symmetry_equiv_pos_site_id
 _symmetry_equiv_pos_as_xyz
  1  'x, y, z'
loop_
 _atom_site_type_symbol
 _atom_site_label
 _atom_site_symmetry_multiplicity
 _atom_site_fract_x
 _atom_site_fract_y
 _atom_site_fract_z
 _atom_site_occupancy
 _atom_site_pbe_bader_spin_density
 _atom_site_pbe_cm5_charge
 _atom_site_pbe_ddec_charge
 _atom_site_pbe_ddec_spin_density
 _atom_site_pbe_ddec_sum_bond_order
 _atom_site_pbe_magmom
Cu  Cu0  1  0.46856197  0.66725881  0.62717264  1  0  0.443607  0.32261  0  2.407321  0
Cu  Cu1  1  0.03143978  0.83274136  0.12717385  1  0  0.443621  0.322669  0  2.407282  0
Cu  Cu2  1  0.53143948  0.33273808  0.37282466  1  0  0.443617  0.32266  0  2.407341  0
Cu  Cu3  1  0.96855980  0.16726045  0.87282750  1  0  0.44362  0.322692  0  2.407318  0
Cu  Cu4  1  0.32374518  0.75415894  0.00277314  1  0  0.413559  0.322067  0  2.577616  0
Cu  Cu5  1  0.17626012  0.74584563  0.50277784  1  0  0.413606  0.322113  0  2.577544  0
Cu  Cu6  1  0.67625646  0.24584451  0.99722821  1  0  0.413578  0.322083  0  2.577532  0
Cu  Cu7  1  0.82374148  0.25415619  0.49722514  1  0  0.413609  0.322141  0  2.577518  0
H  H8  1  0.99398329  0.41789821  0.80282166  1  0  0.264384  0.257964  0  1.048129  0
H  H9  1  0.50601776  0.08210329  0.30282662  1  0  0.264395  0.25798  0  1.04811  0
H  H10  1  0.00601630  0.58210359  0.19718294  1  0  0.264427  0.258038  0  1.04821  0
H  H11  1  0.49398182  0.91789851  0.69717636  1  0  0.26438  0.25793  0  1.048176  0
H  H12  1  0.03718432  0.51900636  0.89383707  1  0  0.275136  0.256527  0  1.021183  0
H  H13  1  0.46281372  0.98099496  0.39383943  1  0  0.275144  0.256499  0  1.021209  0
H  H14  1  0.96282044  0.48100038  0.10616347  1  0  0.275089  0.256402  0  1.02129  0
H  H15  1  0.53718382  0.01900602  0.60616355  1  0  0.275146  0.25653  0  1.021188  0
H  H16  1  0.68621090  0.62345818  0.47319759  1  0  0.111034  0.084242  0  1.005575  0
H  H17  1  0.81379181  0.87654237  0.97320245  1  0  0.110996  0.084198  0  1.005471  0
H  H18  1  0.31379050  0.37653707  0.52679646  1  0  0.111017  0.084228  0  1.005472  0
H  H19  1  0.18620778  0.12345943  0.02679890  1  0  0.111026  0.084248  0  1.005591  0
H  H20  1  0.93190376  0.58971837  0.48458980  1  0  0.098515  0.110671  0  1.044063  0
H  H21  1  0.56810212  0.91028553  0.98459241  1  0  0.098529  0.11067  0  1.044107  0
H  H22  1  0.06809966  0.41027689  0.51540668  1  0  0.098531  0.110696  0  1.044124  0
H  H23  1  0.43189854  0.08971874  0.01540975  1  0  0.098531  0.110663  0  1.044145  0
H  H24  1  0.90370974  0.64514909  0.83076157  1  0  0.093091  0.112004  0  1.059828  0
H  H25  1  0.59629024  0.85485084  0.33076307  1  0  0.093141  0.112023  0  1.059897  0
H  H26  1  0.09629174  0.35484863  0.16923411  1  0  0.093138  0.112019  0  1.059851  0
H  H27  1  0.40370836  0.14515178  0.66923909  1  0  0.093098  0.112012  0  1.059837  0
H  H28  1  0.66047523  0.68038973  0.80363742  1  0  0.100102  0.077322  0  1.049859  0
H  H29  1  0.83952454  0.81960761  0.30364197  1  0  0.10011  0.077332  0  1.049882  0
H  H30  1  0.33952620  0.31960634  0.19635744  1  0  0.100113  0.077332  0  1.049886  0
H  H31  1  0.16047300  0.18039337  0.69636019  1  0  0.100123  0.077352  0  1.049876  0
H  H32  1  0.67441163  0.34489138  0.77734487  1  0  0.099287  0.085285  0  1.039262  0
H  H33  1  0.82558214  0.15510671  0.27734220  1  0  0.099282  0.085314  0  1.039184  0
H  H34  1  0.32558992  0.65510879  0.22265404  1  0  0.099312  0.085296  0  1.039255  0
H  H35  1  0.17441442  0.84489509  0.72266158  1  0  0.099299  0.085298  0  1.039159  0
H  H36  1  0.50871389  0.44211753  0.66517986  1  0  0.10351  0.107274  0  1.034323  0
H  H37  1  0.99128553  0.05788583  0.16517649  1  0  0.103486  0.107253  0  1.034333  0
H  H38  1  0.49128758  0.55788018  0.33481824  1  0  0.103516  0.107257  0  1.034335  0
H  H39  1  0.00871211  0.94211843  0.83482486  1  0  0.103476  0.107257  0  1.034343  0
H  H40  1  0.26056735  0.46892211  0.95269938  1  0  0.107846  0.121171  0  1.025004  0
H  H41  1  0.23942915  0.03108034  0.45269917  1  0  0.107883  0.121209  0  1.024957  0
H  H42  1  0.73943420  0.53107806  0.04729791  1  0  0.107833  0.121143  0  1.02503  0
H  H43  1  0.76056835  0.96891899  0.54730299  1  0  0.107881  0.121231  0  1.024959  0
H  H44  1  0.43568741  0.36697494  0.05222236  1  0  0.10149  0.074484  0  1.042005  0
H  H45  1  0.06430600  0.13302330  0.55222219  1  0  0.101496  0.074497  0  1.042034  0
H  H46  1  0.56431315  0.63302605  0.94777575  1  0  0.101492  0.074493  0  1.041972  0
H  H47  1  0.93569245  0.86697440  0.44778160  1  0  0.101496  0.074523  0  1.042008  0
C  C48  1  0.08054530  0.58556843  0.67164126  1  0  0.228717  0.195381  0  3.940461  0
C  C49  1  0.41945578  0.91443604  0.17164159  1  0  0.228732  0.195378  0  3.94045  0
C  C50  1  0.91945514  0.41442846  0.32835603  1  0  0.228707  0.195465  0  3.940487  0
C  C51  1  0.58054390  0.08556905  0.82836058  1  0  0.228749  0.195416  0  3.94049  0
C  C52  1  0.27158706  0.52308037  0.73567145  1  0  0.233467  0.21585  0  3.950967  0
C  C53  1  0.22841432  0.97692356  0.23566982  1  0  0.233449  0.215826  0  3.951139  0
C  C54  1  0.72841343  0.47691816  0.26432666  1  0  0.233459  0.215993  0  3.950822  0
C  C55  1  0.77158526  0.02307825  0.76433154  1  0  0.233445  0.215876  0  3.951043  0
C  C56  1  0.73825629  0.62615377  0.55104327  1  0  0.03755  0.089996  0  3.911144  0
C  C57  1  0.76174638  0.87384659  0.05104699  1  0  0.037584  0.090128  0  3.910794  0
C  C58  1  0.26174509  0.37384066  0.44895403  1  0  0.037529  0.090018  0  3.910917  0
C  C59  1  0.23825323  0.12615604  0.94895599  1  0  0.037545  0.090002  0  3.910933  0
C  C60  1  0.87486173  0.60600148  0.55804010  1  0  -0.08057  -0.144805  0  3.933328  0
C  C61  1  0.62514202  0.89400055  0.05804267  1  0  -0.08059  -0.144871  0  3.933402  0
C  C62  1  0.12514166  0.39399296  0.44195638  1  0  -0.080535  -0.144869  0  3.933441  0
C  C63  1  0.37485763  0.10600372  0.94196031  1  0  -0.080634  -0.144861  0  3.93341  0
C  C64  1  0.93779483  0.60793100  0.66007867  1  0  0.006671  0.059232  0  4.012414  0
C  C65  1  0.56220641  0.89207146  0.16008103  1  0  0.006675  0.059324  0  4.01221  0
C  C66  1  0.06220559  0.39206506  0.33991700  1  0  0.006599  0.059251  0  4.012386  0
C  C67  1  0.43779322  0.10793198  0.83992113  1  0  0.006665  0.059226  0  4.012389  0
C  C68  1  0.85910799  0.63531292  0.75038751  1  0  -0.085273  -0.153084  0  3.93068  0
C  C69  1  0.64089262  0.86468748  0.25039082  1  0  -0.085344  -0.153215  0  3.930652  0
C  C70  1  0.14089145  0.36468397  0.24960735  1  0  -0.085295  -0.153158  0  3.930473  0
C  C71  1  0.35910799  0.13531515  0.74961216  1  0  -0.085306  -0.153151  0  3.930584  0
C  C72  1  0.72382978  0.65592361  0.73603525  1  0  0.033942  0.090603  0  3.92394  0
C  C73  1  0.77617169  0.84407427  0.23603971  1  0  0.033946  0.090725  0  3.923811  0
C  C74  1  0.27617363  0.34407165  0.26395961  1  0  0.03395  0.090688  0  3.923619  0
C  C75  1  0.22382585  0.15592671  0.76396327  1  0  0.033914  0.090622  0  3.923778  0
C  C76  1  0.58124237  0.37363214  0.81336868  1  0  0.030959  0.083401  0  3.920148  0
C  C77  1  0.91875259  0.12636611  0.31336780  1  0  0.030967  0.083389  0  3.920197  0
C  C78  1  0.41875915  0.62636721  0.18663024  1  0  0.030918  0.083388  0  3.920211  0
C  C79  1  0.08124393  0.87363405  0.68663680  1  0  0.030962  0.083536  0  3.919953  0
C  C80  1  0.48832122  0.42847601  0.75108130  1  0  -0.08459  -0.160009  0  3.958378  0
C  C81  1  0.01167727  0.07152476  0.25107974  1  0  -0.08458  -0.160009  0  3.958369  0
C  C82  1  0.51167927  0.57152252  0.24891681  1  0  -0.08461  -0.160027  0  3.958435  0
C  C83  1  0.98832028  0.92847622  0.74892324  1  0  -0.084551  -0.160028  0  3.958291  0
C  C84  1  0.36900669  0.46431150  0.79953024  1  0  0.006475  0.054867  0  4.011172  0
C  C85  1  0.13099310  0.03569111  0.29952728  1  0  0.006498  0.05492  0  4.011169  0
C  C86  1  0.63099481  0.53568703  0.20046787  1  0  0.006508  0.054907  0  4.01109  0
C  C87  1  0.86900545  0.96430987  0.70047408  1  0  0.00654  0.054891  0  4.011284  0
C  C88  1  0.34921494  0.44160895  0.91023897  1  0  -0.080399  -0.14221  0  3.931493  0
C  C89  1  0.15078238  0.05839414  0.41023860  1  0  -0.080422  -0.142218  0  3.931539  0
C  C90  1  0.65078560  0.55839122  0.08975914  1  0  -0.080377  -0.142171  0  3.931508  0
C  C91  1  0.84921411  0.94160519  0.58976357  1  0  -0.08047  -0.1423  0  3.931546  0
C  C92  1  0.44681093  0.38561030  0.96608894  1  0  0.032002  0.083593  0  3.960327  0
C  C93  1  0.05318554  0.11438893  0.46608849  1  0  0.03194  0.083492  0  3.960251  0
C  C94  1  0.55318962  0.61438987  0.03390998  1  0  0.031979  0.083522  0  3.960336  0
C  C95  1  0.94681193  0.88560959  0.53391529  1  0  0.031989  0.083528  0  3.960108  0
Br  Br96  1  0.41629421  0.78275905  0.81910702  1  0  -0.284383  -0.51297  0  1.584088  0
Br  Br97  1  0.08371462  0.71724444  0.31911035  1  0  -0.284405  -0.513022  0  1.584074  0
Br  Br98  1  0.58370629  0.21723948  0.18089271  1  0  -0.284382  -0.512976  0  1.584101  0
Br  Br99  1  0.91628698  0.28275737  0.68089100  1  0  -0.284411  -0.513039  0  1.584136  0
Br  Br100  1  0.41617645  0.79848149  0.48102779  1  0  -0.274631  -0.453854  0  1.71358  0
Br  Br101  1  0.08382807  0.70152023  0.98102796  1  0  -0.274625  -0.453848  0  1.713585  0
Br  Br102  1  0.58382515  0.20152032  0.51897275  1  0  -0.274615  -0.453858  0  1.713598  0
Br  Br103  1  0.91617456  0.29848240  0.01897177  1  0  -0.274618  -0.453843  0  1.713588  0
N  N104  1  0.18001067  0.62041361  0.60603762  1  0  -0.267825  -0.190089  0  3.560668  0
N  N105  1  0.31999109  0.87959057  0.10603587  1  0  -0.26789  -0.190181  0  3.560783  0
N  N106  1  0.81999078  0.37958328  0.39395967  1  0  -0.267778  -0.190077  0  3.560635  0
N  N107  1  0.68000856  0.12041370  0.89396467  1  0  -0.26786  -0.190123  0  3.560846  0
N  N108  1  0.29963473  0.58312863  0.64722308  1  0  -0.283852  -0.213493  0  3.597924  0
N  N109  1  0.20036624  0.91687573  0.14722030  1  0  -0.283762  -0.213332  0  3.597706  0
N  N110  1  0.70036572  0.41686826  0.35277503  1  0  -0.283879  -0.213627  0  3.597844  0
N  N111  1  0.79963445  0.08312936  0.85277943  1  0  -0.28385  -0.213543  0  3.597898  0
N  N112  1  0.13562722  0.52507240  0.75435445  1  0  -0.135165  0.101204  0  3.750291  0
N  N113  1  0.36437226  0.97493242  0.25435485  1  0  -0.135221  0.101016  0  3.750387  0
N  N114  1  0.86437430  0.47492695  0.24564366  1  0  -0.135206  0.101008  0  3.750101  0
N  N115  1  0.63562435  0.02507102  0.74564650  1  0  -0.135123  0.101272  0  3.750182  0
N  N116  1  0.07075492  0.46552256  0.83621031  1  0  -0.507252  -0.514099  0  3.263783  0
N  N117  1  0.42924502  0.03447940  0.33621315  1  0  -0.507244  -0.513985  0  3.263789  0
N  N118  1  0.92924773  0.53448090  0.16379023  1  0  -0.507223  -0.513992  0  3.263906  0
N  N119  1  0.57075252  0.96552158  0.66378902  1  0  -0.507279  -0.514109  0  3.263788  0
N  N120  1  0.66133354  0.64932586  0.63846578  1  0  -0.37008  -0.203441  0  3.692676  0
N  N121  1  0.83866948  0.85067242  0.13847045  1  0  -0.370103  -0.203611  0  3.692534  0
N  N122  1  0.33866985  0.35066858  0.36152908  1  0  -0.370096  -0.203519  0  3.692445  0
N  N123  1  0.16132808  0.14932938  0.86153171  1  0  -0.370057  -0.203499  0  3.69247  0
N  N124  1  0.56158572  0.35157470  0.92010506  1  0  -0.367322  -0.217661  0  3.675392  0
N  N125  1  0.93840876  0.14842401  0.42010352  1  0  -0.367283  -0.217629  0  3.675148  0
N  N126  1  0.43841588  0.64842711  0.07989386  1  0  -0.367308  -0.21764  0  3.675422  0
N  N127  1  0.06158873  0.85157533  0.57990027  1  0  -0.36736  -0.217787  0  3.675239  0
