# generated using pymatgen
data_CdH35C26N4ClO8
_symmetry_space_group_name_H-M   'P 1'
_cell_length_a   11.56505860
_cell_length_b   12.04665256
_cell_length_c   14.85903667
_cell_angle_alpha   99.63991717
_cell_angle_beta   109.23441325
_cell_angle_gamma   93.43400543
_symmetry_Int_Tables_number   1
_chemical_formula_structural   CdH35C26N4ClO8
_chemical_formula_sum   'Cd2 H70 C52 N8 Cl2 O16'
_cell_volume   1912.22640854
_cell_formula_units_Z   2
loop_
 _symmetry_equiv_pos_site_id
 _symmetry_equiv_pos_as_xyz
  1  'x, y, z'
loop_
 _atom_site_type_symbol
 _atom_site_label
 _atom_site_symmetry_multiplicity
 _atom_site_fract_x
 _atom_site_fract_y
 _atom_site_fract_z
 _atom_site_occupancy
 _atom_site_pbe_bader_charge
 _atom_site_pbe_bader_spin_density
 _atom_site_pbe_cm5_charge
 _atom_site_pbe_ddec_charge
 _atom_site_pbe_ddec_spin_density
 _atom_site_pbe_ddec_sum_bond_order
 _atom_site_pbe_magmom
Cd  Cd0  1  0.00446088  0.21445669  0.31224714  1  1.206351  0  0.706855  0.785588  0  2.334855  0
Cd  Cd1  1  0.99553708  0.78554220  0.68774739  1  1.20634  0  0.70686  0.785559  0  2.334848  0
H  H2  1  0.89392475  0.10105432  0.61413549  1  0.095063  0  0.109964  0.118874  0  1.021715  0
H  H3  1  0.10608514  0.89895129  0.38586639  1  0.09507  0  0.109971  0.118913  0  1.021689  0
H  H4  1  0.73099382  0.94127902  0.51810080  1  0.111497  0  0.091598  0.092484  0  1.069275  0
H  H5  1  0.26901082  0.05872830  0.48190266  1  0.111064  0  0.09163  0.092523  0  1.069191  0
H  H6  1  0.67180789  0.89718239  0.33442133  1  0.069209  0  0.107262  0.110729  0  1.006299  0
H  H7  1  0.32819158  0.10282070  0.66558158  1  0.069145  0  0.107311  0.110844  0  1.006329  0
H  H8  1  0.70923417  0.93834626  0.19085017  1  0.02985  0  0.100608  0.080193  0  0.983251  0
H  H9  1  0.29076276  0.06165175  0.80915071  1  0.029818  0  0.100631  0.08021  0  0.983243  0
H  H10  1  0.71196513  0.08858745  0.20722351  1  0.100526  0  0.120662  0.119862  0  0.965102  0
H  H11  1  0.28803180  0.91141057  0.79277535  1  0.100495  0  0.120636  0.119801  0  0.965051  0
H  H12  1  0.78036194  0.13257134  0.10002700  1  0.086606  0  0.112836  0.106155  0  0.979841  0
H  H13  1  0.21963534  0.86742923  0.89997163  1  0.086662  0  0.112837  0.106166  0  0.979843  0
H  H14  1  0.78339577  0.99063490  0.04197815  1  0.017687  0  0.098877  0.077006  0  0.989879  0
H  H15  1  0.21659865  0.00936483  0.95801897  1  0.017793  0  0.09891  0.077101  0  0.989787  0
H  H16  1  0.01781237  0.04626770  0.08445735  1  0.040315  0  0.100731  0.064797  0  1.020884  0
H  H17  1  0.98218169  0.95372948  0.91554134  1  0.040127  0  0.100723  0.064746  0  1.021021  0
H  H18  1  0.91219472  0.10295417  0.99235913  1  0.049743  0  0.099246  0.068314  0  0.991409  0
H  H19  1  0.08780325  0.89704470  0.00763944  1  0.049781  0  0.099253  0.068308  0  0.991421  0
H  H20  1  0.17955079  0.18843107  0.14038573  1  0.074211  0  0.091222  0.066285  0  1.009653  0
H  H21  1  0.82044510  0.81156611  0.85961006  1  0.074552  0  0.091211  0.066286  0  1.009655  0
H  H22  1  0.15160506  0.33099324  0.17216700  1  0.064334  0  0.100663  0.075199  0  1.004454  0
H  H23  1  0.84839151  0.66900224  0.82782872  1  0.06436  0  0.100651  0.075193  0  1.004428  0
H  H24  1  0.95599318  0.92002856  0.28052077  1  0.082262  0  0.105133  0.088736  0  1.031933  0
H  H25  1  0.04400351  0.07996776  0.71947712  1  0.082191  0  0.105159  0.088858  0  1.031902  0
H  H26  1  0.03966067  0.96262638  0.20923748  1  0.048914  0  0.097128  0.086487  0  1.016711  0
H  H27  1  0.96033498  0.03736912  0.79075599  1  0.048842  0  0.097125  0.086515  0  1.016786  0
H  H28  1  0.94316304  0.75807519  0.16875146  1  0.055066  0  0.098046  0.064665  0  1.009466  0
H  H29  1  0.05683022  0.24192287  0.83124108  1  0.055069  0  0.098059  0.064654  0  1.009397  0
H  H30  1  0.79471191  0.80138809  0.12336481  1  0.027605  0  0.09583  0.058909  0  0.97835  0
H  H31  1  0.20528112  0.19860824  0.87663349  1  0.027523  0  0.095861  0.058924  0  0.9783  0
H  H32  1  0.20301191  0.31833712  0.02870160  1  0.036665  0  0.100694  0.066861  0  0.963384  0
H  H33  1  0.79697881  0.68165584  0.97129296  1  0.036655  0  0.100694  0.066809  0  0.963396  0
H  H34  1  0.04085783  0.32842084  0.99233361  1  0.029243  0  0.0941  0.059484  0  0.980283  0
H  H35  1  0.95913866  0.67158058  0.00766494  1  0.029209  0  0.094115  0.059462  0  0.980266  0
H  H36  1  0.90953398  0.55884433  0.14432906  1  0.132801  0  0.110617  0.117031  0  1.014295  0
H  H37  1  0.09046171  0.44115792  0.85567411  1  0.132832  0  0.11059  0.116831  0  1.014277  0
H  H38  1  0.12511008  0.66451807  0.19463611  1  0.072206  0  0.109474  0.10218  0  0.980584  0
H  H39  1  0.87488923  0.33547740  0.80536031  1  0.072194  0  0.109465  0.102203  0  0.980563  0
H  H40  1  0.29186589  0.61558611  0.33572264  1  0.092929  0  0.108741  0.120824  0  1.018453  0
H  H41  1  0.70813287  0.38441190  0.66427534  1  0.0929  0  0.108738  0.120843  0  1.018414  0
H  H42  1  0.35871179  0.50254301  0.44970055  1  0.120351  0  0.115722  0.11065  0  1.005229  0
H  H43  1  0.64128803  0.49746264  0.55029944  1  0.120213  0  0.115719  0.110628  0  1.005292  0
H  H44  1  0.28626741  0.35836252  0.41142105  1  0.151815  0  0.10659  0.109478  0  1.036894  0
H  H45  1  0.71373755  0.64164056  0.58858057  1  0.151792  0  0.106612  0.109534  0  1.036809  0
H  H46  1  0.14301650  0.54415387  0.60260179  1  0.103212  0  0.121613  0.112519  0  0.982968  0
H  H47  1  0.85698548  0.45584752  0.39739951  1  0.1033  0  0.121612  0.112558  0  0.98303  0
H  H48  1  0.11654614  0.57529638  0.48569011  1  0.090621  0  0.117096  0.10978  0  0.982301  0
H  H49  1  0.88345962  0.42470585  0.51431226  1  0.090458  0  0.117132  0.109807  0  0.982347  0
H  H50  1  0.23259992  0.73538652  0.62016354  1  0.09882  0  0.100324  0.076517  0  1.033798  0
H  H51  1  0.76740401  0.26461571  0.37983837  1  0.098838  0  0.100331  0.076461  0  1.033838  0
H  H52  1  0.35368094  0.65503969  0.66418796  1  0.066113  0  0.101291  0.064104  0  0.994884  0
H  H53  1  0.64632196  0.34496169  0.33581693  1  0.066168  0  0.10127  0.064001  0  0.994963  0
H  H54  1  0.50633165  0.75422667  0.63122003  1  0.052375  0  0.095971  0.06432  0  0.984168  0
H  H55  1  0.49367547  0.24577214  0.36878491  1  0.052389  0  0.095958  0.064326  0  0.984049  0
H  H56  1  0.41030877  0.86028245  0.59137821  1  0.039612  0  0.092059  0.058452  0  0.998012  0
H  H57  1  0.58969755  0.13971721  0.40862665  1  0.039284  0  0.092037  0.058418  0  0.99805  0
H  H58  1  0.42691889  0.81104941  0.42681358  1  0.033188  0  0.093738  0.058604  0  0.974218  0
H  H59  1  0.57308377  0.18895027  0.57319102  1  0.033115  0  0.093716  0.058541  0  0.974245  0
H  H60  1  0.57467052  0.85082762  0.52249661  1  0.064983  0  0.092735  0.065902  0  1.032637  0
H  H61  1  0.42533408  0.14917291  0.47750590  1  0.06504  0  0.092769  0.065937  0  1.032636  0
H  H62  1  0.42199443  0.49802022  0.62552800  1  0.071925  0  0.120929  0.109443  0  0.958398  0
H  H63  1  0.57800732  0.50197947  0.37447434  1  0.071939  0  0.120941  0.10953  0  0.958345  0
H  H64  1  0.30939835  0.44026962  0.66904613  1  0.130783  0  0.127235  0.125064  0  0.958552  0
H  H65  1  0.69060223  0.55972838  0.33095366  1  0.130786  0  0.127221  0.125077  0  0.958551  0
H  H66  1  0.42930357  0.29248086  0.66007462  1  0.046298  0  0.10064  0.066036  0  0.961313  0
H  H67  1  0.57069725  0.70751884  0.33992547  1  0.046294  0  0.100656  0.066044  0  0.961305  0
H  H68  1  0.30475093  0.25213345  0.54631108  1  0.085791  0  0.102375  0.072195  0  1.020489  0
H  H69  1  0.69525002  0.74786710  0.45368781  1  0.085759  0  0.102376  0.072195  0  1.020492  0
H  H70  1  0.16611659  0.38686206  0.50987965  1  0.549088  0  0.300381  0.252518  0  1.01366  0
H  H71  1  0.83388435  0.61313849  0.49011991  1  0.549097  0  0.30039  0.252524  0  1.01357  0
C  C72  1  0.03290846  0.23318791  0.54310002  1  1.581443  0  0.197517  0.534954  0  4.253618  0
C  C73  1  0.96710004  0.76681431  0.45689969  1  1.58135  0  0.19755  0.535116  0  4.253184  0
C  C74  1  0.92927857  0.13725849  0.48800791  1  0.498126  0  0.113049  0.112675  0  3.962881  0
C  C75  1  0.07073049  0.86274119  0.51199226  1  0.498883  0  0.113168  0.112791  0  3.962717  0
C  C76  1  0.86815544  0.07836014  0.53558770  1  0.008861  0  -0.074475  -0.126283  0  3.928325  0
C  C77  1  0.13185537  0.92164547  0.46441306  1  0.008236  0  -0.074605  -0.126512  0  3.92831  0
C  C78  1  0.77500002  0.99062918  0.48047242  1  -0.151155  0  -0.071261  -0.025904  0  3.974433  0
C  C79  1  0.22500884  0.00937557  0.51953311  1  -0.150637  0  -0.071263  -0.025846  0  3.974528  0
C  C80  1  0.74324476  0.96606165  0.37964352  1  0.056719  0  -0.081042  -0.169284  0  3.945064  0
C  C81  1  0.25675633  0.03394655  0.62035445  1  0.056728  0  -0.081133  -0.169492  0  3.945075  0
C  C82  1  0.80532595  0.03131773  0.33644336  1  0.49685  0  0.125533  0.242598  0  3.958262  0
C  C83  1  0.19467281  0.96868028  0.66355664  1  0.496964  0  0.125579  0.242605  0  3.95817  0
C  C84  1  0.76817808  0.01998570  0.22745048  1  0.300804  0  -0.059616  -0.151899  0  3.934636  0
C  C85  1  0.23181793  0.98001233  0.77254815  1  0.300539  0  -0.059608  -0.151808  0  3.934629  0
C  C86  1  0.83817215  0.06357853  0.09885119  1  0.298689  0  -0.076562  -0.106131  0  3.920742  0
C  C87  1  0.16182215  0.93642036  0.90114510  1  0.298258  0  -0.076632  -0.106329  0  3.920838  0
C  C88  1  0.94589697  0.10346738  0.07084646  1  0.427564  0  -0.075612  0.012789  0  3.900953  0
C  C89  1  0.05409697  0.89652895  0.92915074  1  0.427707  0  -0.075581  0.012901  0  3.901083  0
C  C90  1  0.11586875  0.25147699  0.11825878  1  0.418757  0  -0.080741  -0.015265  0  3.947581  0
C  C91  1  0.88412519  0.74851935  0.88173774  1  0.418201  0  -0.080786  -0.015393  0  3.947677  0
C  C92  1  0.94635752  0.93687958  0.20817001  1  0.262426  0  -0.078807  -0.121235  0  3.913065  0
C  C93  1  0.05363654  0.06311761  0.79182531  1  0.262928  0  -0.078809  -0.121452  0  3.913291  0
C  C94  1  0.89368827  0.82517322  0.13620331  1  0.423015  0  -0.069702  0.015764  0  3.916746  0
C  C95  1  0.10630122  0.17482399  0.86379152  1  0.42262  0  -0.069781  0.015793  0  3.916684  0
C  C96  1  0.11231765  0.27311984  0.01974608  1  0.428471  0  -0.073831  -0.008688  0  3.955791  0
C  C97  1  0.88767435  0.72687566  0.98025050  1  0.42868  0  -0.073874  -0.008559  0  3.955722  0
C  C98  1  0.83859565  0.38698623  0.21747581  1  1.61883  0  0.1857  0.522434  0  4.29178  0
C  C99  1  0.16140019  0.61302365  0.78252913  1  1.618829  0  0.185571  0.522348  0  4.292011  0
C  C100  1  0.96875457  0.44890483  0.24515721  1  0.477651  0  0.115419  0.123991  0  3.941387  0
C  C101  1  0.03124272  0.55109572  0.75484614  1  0.477694  0  0.115378  0.12392  0  3.941163  0
C  C102  1  0.98826142  0.53793861  0.20033242  1  -0.07616  0  -0.07227  -0.125869  0  3.942641  0
C  C103  1  0.01173333  0.46205686  0.79966890  1  -0.076189  0  -0.072237  -0.125528  0  3.942516  0
C  C104  1  0.10620107  0.59614769  0.22953879  1  0.019495  0  -0.067709  -0.02431  0  3.986471  0
C  C105  1  0.89380067  0.40385201  0.77046153  1  0.019438  0  -0.067713  -0.024329  0  3.986667  0
C  C106  1  0.19976649  0.56852219  0.30665336  1  -0.013268  0  -0.083685  -0.172582  0  3.942483  0
C  C107  1  0.80023020  0.43147414  0.69334386  1  -0.01326  0  -0.083683  -0.172649  0  3.942405  0
C  C108  1  0.17349924  0.47939521  0.34882686  1  0.487783  0  0.116571  0.235301  0  3.97101  0
C  C109  1  0.82650055  0.52060366  0.65116948  1  0.487797  0  0.116569  0.23522  0  3.970991  0
C  C110  1  0.27241964  0.44726191  0.43190413  1  0.157665  0  -0.063499  -0.154176  0  3.781161  0
C  C111  1  0.72758039  0.55273864  0.56809655  1  0.157946  0  -0.06352  -0.154184  0  3.781183  0
C  C112  1  0.18810652  0.56185005  0.55133371  1  0.21673  0  -0.06245  -0.093976  0  3.791183  0
C  C113  1  0.81189753  0.43815303  0.44866902  1  0.217054  0  -0.062469  -0.094139  0  3.791278  0
C  C114  1  0.28122525  0.66646230  0.59730815  1  0.396022  0  -0.074811  -0.000117  0  3.931175  0
C  C115  1  0.71877844  0.33353823  0.40269481  1  0.395828  0  -0.07473  0.000197  0  3.931172  0
C  C116  1  0.43720333  0.77680273  0.56748403  1  0.441575  0  -0.073611  0.002884  0  3.953522  0
C  C117  1  0.56280458  0.22319523  0.43252100  1  0.44194  0  -0.073543  0.002938  0  3.953303  0
C  C118  1  0.49361374  0.78559282  0.49034611  1  0.421458  0  -0.076264  -0.008894  0  3.955432  0
C  C119  1  0.50639008  0.21440855  0.50965767  1  0.421452  0  -0.0763  -0.008902  0  3.955411  0
C  C120  1  0.34346506  0.43242941  0.60766256  1  0.203576  0  -0.055114  -0.095149  0  3.78802  0
C  C121  1  0.65653577  0.56757029  0.39233753  1  0.203595  0  -0.055067  -0.095275  0  3.78802  0
C  C122  1  0.38471403  0.31632449  0.58895611  1  0.4308  0  -0.065688  0.007006  0  3.922931  0
C  C123  1  0.61528887  0.68367690  0.41104474  1  0.430798  0  -0.065693  0.007043  0  3.9229  0
N  N124  1  0.89702580  0.11327497  0.39070718  1  -1.240615  0  -0.322828  -0.29076  0  3.496502  0
N  N125  1  0.10297960  0.88672472  0.60929139  1  -1.240812  0  -0.322864  -0.290707  0  3.496652  0
N  N126  1  0.87480528  0.03445018  0.19617864  1  -1.013553  0  -0.337625  -0.10068  0  3.482344  0
N  N127  1  0.12519073  0.96554785  0.80381864  1  -1.01286  0  -0.337607  -0.100644  0  3.4824  0
N  N128  1  0.06093754  0.41810253  0.31557782  1  -1.230951  0  -0.322239  -0.315954  0  3.421991  0
N  N129  1  0.93906157  0.58189802  0.68442397  1  -1.230924  0  -0.322238  -0.315885  0  3.421953  0
N  N130  1  0.23995384  0.45522800  0.52314224  1  -1.00858  0  -0.341707  -0.011639  0  3.505698  0
N  N131  1  0.76004746  0.54477509  0.47685844  1  -1.008769  0  -0.341791  -0.01162  0  3.505711  0
Cl  Cl132  1  0.21061133  0.14758549  0.32771975  1  -0.67768  0  -0.340293  -0.545586  0  1.091716  0
Cl  Cl133  1  0.78939029  0.85241336  0.67227908  1  -0.677686  0  -0.340285  -0.545574  0  1.091754  0
O  O134  1  0.06477264  0.29186268  0.48754650  1  -1.188099  0  -0.334544  -0.562269  0  2.361289  0
O  O135  1  0.93522901  0.70814298  0.51245193  1  -1.188109  0  -0.334512  -0.562289  0  2.361103  0
O  O136  1  0.07715499  0.24899452  0.63333500  1  -1.139754  0  -0.328308  -0.52784  0  2.076521  0
O  O137  1  0.92285670  0.75100431  0.36666371  1  -1.139789  0  -0.328356  -0.527971  0  2.076261  0
O  O138  1  0.99839820  0.21636980  0.12417229  1  -1.044621  0  -0.232361  -0.232515  0  2.517611  0
O  O139  1  0.00159611  0.78362907  0.87582736  1  -1.044567  0  -0.232278  -0.232401  0  2.517696  0
O  O140  1  0.91158512  0.83267663  0.04673591  1  -1.061034  0  -0.235239  -0.232384  0  2.542918  0
O  O141  1  0.08840162  0.16732060  0.95325822  1  -1.060882  0  -0.23528  -0.2324  0  2.542974  0
O  O142  1  0.82974134  0.29059467  0.24274785  1  -1.165529  0  -0.344627  -0.563639  0  2.32293  0
O  O143  1  0.17025511  0.70939999  0.75724437  1  -1.165612  0  -0.344529  -0.56354  0  2.323524  0
O  O144  1  0.75126987  0.43749180  0.17631892  1  -1.163893  0  -0.358849  -0.552898  0  2.035959  0
O  O145  1  0.24873450  0.56252649  0.82370215  1  -1.163793  0  -0.358805  -0.552936  0  2.035647  0
O  O146  1  0.33286500  0.69240865  0.52741247  1  -1.066204  0  -0.233479  -0.228618  0  2.53349  0
O  O147  1  0.66714156  0.30759271  0.47259134  1  -1.066338  0  -0.233534  -0.228675  0  2.533633  0
O  O148  1  0.47003497  0.32215945  0.53858716  1  -1.060327  0  -0.233899  -0.232123  0  2.516556  0
O  O149  1  0.52996860  0.67784024  0.46141498  1  -1.060284  0  -0.233911  -0.232138  0  2.51662  0
