# generated using pymatgen
data_AgH22C16S2NO3
_symmetry_space_group_name_H-M   'P 1'
_cell_length_a   8.75431211
_cell_length_b   12.31107902
_cell_length_c   19.74447860
_cell_angle_alpha   90.00031993
_cell_angle_beta   90.00020880
_cell_angle_gamma   90.00001843
_symmetry_Int_Tables_number   1
_chemical_formula_structural   AgH22C16S2NO3
_chemical_formula_sum   'Ag4 H88 C64 S8 N4 O12'
_cell_volume   2127.96173612
_cell_formula_units_Z   4
loop_
 _symmetry_equiv_pos_site_id
 _symmetry_equiv_pos_as_xyz
  1  'x, y, z'
loop_
 _atom_site_type_symbol
 _atom_site_label
 _atom_site_symmetry_multiplicity
 _atom_site_fract_x
 _atom_site_fract_y
 _atom_site_fract_z
 _atom_site_occupancy
 _atom_site_pbe_bader_charge
 _atom_site_pbe_bader_spin_density
 _atom_site_pbe_cm5_charge
 _atom_site_pbe_ddec_charge
 _atom_site_pbe_ddec_spin_density
 _atom_site_pbe_ddec_sum_bond_order
 _atom_site_pbe_magmom
Ag  Ag0  1  0.73560799  0.65504022  0.01670058  1  0.504635  0  0.369452  0.237341  0  2.151965  0
Ag  Ag1  1  0.26438735  0.34495828  0.51669970  1  0.504701  0  0.36945  0.237342  0  2.151968  0
Ag  Ag2  1  0.76438890  0.15504403  0.51670078  1  0.504613  0  0.369422  0.237315  0  2.151958  0
Ag  Ag3  1  0.23561101  0.84495366  0.01670051  1  0.504686  0  0.369435  0.237328  0  2.151981  0
H  H4  1  0.47847191  0.47854119  0.87059296  1  0.047897  0  0.092479  0.099379  0  1.052975  0
H  H5  1  0.52152521  0.52145722  0.37059405  1  0.04793  0  0.092471  0.09936  0  1.052999  0
H  H6  1  0.02152601  0.97854220  0.37059293  1  0.047912  0  0.092468  0.099359  0  1.052994  0
H  H7  1  0.97847454  0.02145864  0.87059459  1  0.047501  0  0.092496  0.099402  0  1.05299  0
H  H8  1  0.44085536  0.54220695  0.94996460  1  0.080448  0  0.095755  0.109466  0  1.00182  0
H  H9  1  0.55914698  0.45779297  0.44996502  1  0.08042  0  0.095754  0.109443  0  1.001849  0
H  H10  1  0.05914758  0.04220708  0.44996389  1  0.080437  0  0.095751  0.109434  0  1.001845  0
H  H11  1  0.94085476  0.95779284  0.94996573  1  0.080411  0  0.095733  0.109445  0  1.001845  0
H  H12  1  0.35719469  0.70806950  0.89626070  1  0.056183  0  0.08384  0.055985  0  1.019923  0
H  H13  1  0.64280835  0.29192994  0.39625814  1  0.056221  0  0.083842  0.056009  0  1.019927  0
H  H14  1  0.14281016  0.20806803  0.39625860  1  0.056234  0  0.083856  0.056016  0  1.019931  0
H  H15  1  0.85719059  0.79193223  0.89625821  1  0.056242  0  0.08386  0.056  0  1.019931  0
H  H16  1  0.12337256  0.64549553  0.84588834  1  0.010317  0  0.085995  0.082431  0  1.012988  0
H  H17  1  0.87662778  0.35450753  0.34588790  1  0.010345  0  0.086  0.082473  0  1.012944  0
H  H18  1  0.37662843  0.14549167  0.34588764  1  0.01036  0  0.086005  0.082473  0  1.012935  0
H  H19  1  0.62337191  0.85450895  0.84588709  1  0.010351  0  0.085995  0.082448  0  1.012962  0
H  H20  1  0.17466409  0.55067229  0.90887089  1  0.042168  0  0.087538  0.087532  0  1.006343  0
H  H21  1  0.82533563  0.44932890  0.40887069  1  0.042164  0  0.087538  0.087554  0  1.006318  0
H  H22  1  0.32533737  0.05067004  0.40886959  1  0.042165  0  0.087543  0.087558  0  1.006312  0
H  H23  1  0.67466235  0.94932952  0.90887098  1  0.042146  0  0.087528  0.087537  0  1.006302  0
H  H24  1  0.27551343  0.42286671  0.82322604  1  -0.014064  0  0.083128  0.076169  0  1.011417  0
H  H25  1  0.72448558  0.57713533  0.32322715  1  -0.014123  0  0.083125  0.076199  0  1.011361  0
H  H26  1  0.22448521  0.92286371  0.32322431  1  -0.014112  0  0.083134  0.076201  0  1.011354  0
H  H27  1  0.77551266  0.07713753  0.82322787  1  -0.014166  0  0.083158  0.076249  0  1.011274  0
H  H28  1  0.08657447  0.45670929  0.80327354  1  -0.00982  0  0.081487  0.070526  0  1.037064  0
H  H29  1  0.91342209  0.54329258  0.30327381  1  -0.009804  0  0.081469  0.070513  0  1.037055  0
H  H30  1  0.41342288  0.95670633  0.30327261  1  -0.009824  0  0.081475  0.07051  0  1.037103  0
H  H31  1  0.58657482  0.04329473  0.80327423  1  -0.00989  0  0.081467  0.070488  0  1.037092  0
H  H32  1  0.17610830  0.58713452  0.71572126  1  0.012965  0  0.091679  0.061131  0  0.949407  0
H  H33  1  0.82388525  0.41286819  0.21572043  1  0.012639  0  0.09172  0.061199  0  0.949427  0
H  H34  1  0.32388929  0.08713308  0.21572148  1  0.013004  0  0.091697  0.061149  0  0.949445  0
H  H35  1  0.67610997  0.91286882  0.71572122  1  0.012976  0  0.091701  0.06119  0  0.949473  0
H  H36  1  0.49878715  0.51945505  0.75620006  1  0.024759  0  0.081322  0.078935  0  1.057566  0
H  H37  1  0.50120902  0.48054559  0.25620046  1  0.024689  0  0.08131  0.078936  0  1.057606  0
H  H38  1  0.00121075  0.01945354  0.25619976  1  0.02474  0  0.081321  0.078859  0  1.057618  0
H  H39  1  0.99878656  0.98054791  0.75620127  1  0.024718  0  0.081331  0.078953  0  1.057552  0
H  H40  1  0.45069060  0.60966618  0.69097283  1  0.038534  0  0.082991  0.080377  0  1.002233  0
H  H41  1  0.54930503  0.39033550  0.19097198  1  0.038515  0  0.082989  0.080401  0  1.002201  0
H  H42  1  0.04930794  0.10966468  0.19097109  1  0.038518  0  0.083016  0.080395  0  1.002097  0
H  H43  1  0.95068998  0.89033700  0.69097220  1  0.038566  0  0.083004  0.080404  0  1.002185  0
H  H44  1  0.52825282  0.71071546  0.79350604  1  -0.009363  0  0.07811  0.067209  0  1.046655  0
H  H45  1  0.47174708  0.28928388  0.29350471  1  -0.009366  0  0.078105  0.067214  0  1.046655  0
H  H46  1  0.97174866  0.21071568  0.29350447  1  -0.009333  0  0.078131  0.067243  0  1.046653  0
H  H47  1  0.02825125  0.78928772  0.79350476  1  -0.00931  0  0.078127  0.067257  0  1.046695  0
H  H48  1  0.33378631  0.73725812  0.77579769  1  0.024794  0  0.083458  0.076322  0  1.003549  0
H  H49  1  0.66621345  0.26274350  0.27579506  1  0.024842  0  0.083428  0.076329  0  1.003474  0
H  H50  1  0.16621642  0.23725584  0.27579613  1  0.024828  0  0.083459  0.076344  0  1.003539  0
H  H51  1  0.83378448  0.76274579  0.77579509  1  0.024848  0  0.083461  0.076348  0  1.00348  0
H  H52  1  0.13647730  0.41708503  0.66671989  1  0.055406  0  0.094835  0.110879  0  1.006929  0
H  H53  1  0.86351813  0.58291644  0.16672073  1  0.055471  0  0.094811  0.110807  0  1.006854  0
H  H54  1  0.36352118  0.91708449  0.16671889  1  0.055429  0  0.094809  0.110826  0  1.006903  0
H  H55  1  0.63647882  0.08291697  0.66671971  1  0.055429  0  0.0948  0.110814  0  1.006949  0
H  H56  1  0.27441752  0.35180423  0.71792610  1  0.080537  0  0.094574  0.103229  0  1.038795  0
H  H57  1  0.72557833  0.64819850  0.21792593  1  0.080471  0  0.094554  0.103169  0  1.038807  0
H  H58  1  0.22558021  0.85180204  0.21792437  1  0.080516  0  0.094566  0.103195  0  1.038791  0
H  H59  1  0.77441907  0.14819988  0.71792513  1  0.080464  0  0.094565  0.103192  0  1.038781  0
H  H60  1  0.44499716  0.23765799  0.65081766  1  0.066683  0  0.096742  0.110764  0  1.013605  0
H  H61  1  0.55499700  0.76234333  0.15081762  1  0.066695  0  0.096762  0.110822  0  1.013548  0
H  H62  1  0.05499769  0.73765982  0.15081818  1  0.066754  0  0.096769  0.11084  0  1.01355  0
H  H63  1  0.94500104  0.26234069  0.65081912  1  0.066735  0  0.096759  0.110783  0  1.013602  0
H  H64  1  0.58772890  0.30017869  0.59885449  1  0.131718  0  0.100786  0.13132  0  1.041151  0
H  H65  1  0.41226369  0.69982135  0.09885350  1  0.131636  0  0.100778  0.131361  0  1.041106  0
H  H66  1  0.91226416  0.80018061  0.09885559  1  0.131679  0  0.100797  0.131378  0  1.041113  0
H  H67  1  0.08773528  0.19981782  0.59885695  1  0.131388  0  0.100788  0.131338  0  1.041108  0
H  H68  1  0.47344420  0.23381808  0.77087909  1  0.077476  0  0.09617  0.094972  0  1.040929  0
H  H69  1  0.52655780  0.76618431  0.27087699  1  0.077455  0  0.096159  0.094973  0  1.040875  0
H  H70  1  0.02655620  0.73381991  0.27087957  1  0.077492  0  0.096189  0.094991  0  1.040882  0
H  H71  1  0.97344238  0.26617680  0.77088309  1  0.077538  0  0.096187  0.095031  0  1.040843  0
H  H72  1  0.59446730  0.30095484  0.87658683  1  0.04624  0  0.104717  0.109281  0  0.982089  0
H  H73  1  0.40554472  0.69904768  0.37658632  1  0.045996  0  0.104783  0.109379  0  0.982016  0
H  H74  1  0.90553834  0.80095432  0.37658842  1  0.046207  0  0.104753  0.109378  0  0.981967  0
H  H75  1  0.09446682  0.19904171  0.87658929  1  0.046181  0  0.104715  0.10928  0  0.982021  0
H  H76  1  0.87094547  0.52125023  0.75936226  1  0.059255  0  0.105033  0.111116  0  0.996622  0
H  H77  1  0.12905872  0.47874881  0.25936459  1  0.059318  0  0.105041  0.111105  0  0.996541  0
H  H78  1  0.62905221  0.02124957  0.25936520  1  0.05926  0  0.105024  0.111109  0  0.996591  0
H  H79  1  0.37094741  0.97874785  0.75936266  1  0.059212  0  0.105025  0.111113  0  0.996684  0
H  H80  1  0.75621299  0.44964189  0.65348535  1  0.139128  0  0.102802  0.113062  0  1.019724  0
H  H81  1  0.24378119  0.55035783  0.15348660  1  0.139066  0  0.102827  0.113083  0  1.019728  0
H  H82  1  0.74378288  0.94964295  0.15348821  1  0.139021  0  0.10283  0.11306  0  1.019769  0
H  H83  1  0.25621701  0.05035839  0.65348678  1  0.139094  0  0.102818  0.113039  0  1.019766  0
H  H84  1  0.90245048  0.50191458  0.89007525  1  0.091678  0  0.107648  0.132901  0  0.987638  0
H  H85  1  0.09755479  0.49808806  0.39007355  1  0.091324  0  0.107662  0.132936  0  0.987617  0
H  H86  1  0.59755056  0.00191553  0.39007662  1  0.091678  0  0.107644  0.132899  0  0.987662  0
H  H87  1  0.40245129  0.99808143  0.89007723  1  0.091634  0  0.107633  0.132924  0  0.987597  0
H  H88  1  0.76296967  0.42486627  0.93472597  1  0.106687  0  0.103437  0.120247  0  0.979661  0
H  H89  1  0.23703826  0.57513433  0.43472628  1  0.106662  0  0.103453  0.120258  0  0.979634  0
H  H90  1  0.73703079  0.92486733  0.43472881  1  0.10657  0  0.103425  0.120269  0  0.979638  0
H  H91  1  0.26297142  0.07513083  0.93472799  1  0.106625  0  0.103436  0.120259  0  0.979654  0
C  C92  1  0.47739942  0.55651254  0.89753886  1  -0.112751  0  -0.150176  -0.209339  0  3.827121  0
C  C93  1  0.52260134  0.44348611  0.39753968  1  -0.11275  0  -0.150165  -0.209292  0  3.827113  0
C  C94  1  0.02260194  0.05651347  0.39753910  1  -0.112682  0  -0.150147  -0.209247  0  3.827069  0
C  C95  1  0.97739996  0.94348680  0.89753994  1  -0.112247  0  -0.150167  -0.209385  0  3.827221  0
C  C96  1  0.36629862  0.63630067  0.86332783  1  0.015475  0  -0.094354  0.034984  0  3.842576  0
C  C97  1  0.63370300  0.36370011  0.36332753  1  0.015379  0  -0.094365  0.034926  0  3.842539  0
C  C98  1  0.13370478  0.13629838  0.36332724  1  0.015367  0  -0.094367  0.034921  0  3.842677  0
C  C99  1  0.86629456  0.86370159  0.86332762  1  0.015388  0  -0.094371  0.034976  0  3.842567  0
C  C100  1  0.20764992  0.58235735  0.85888839  1  -0.053393  0  -0.167271  -0.176129  0  3.898956  0
C  C101  1  0.79234938  0.41764339  0.35888803  1  -0.053386  0  -0.167289  -0.176218  0  3.898932  0
C  C102  1  0.29235000  0.08235428  0.35888805  1  -0.053408  0  -0.167264  -0.176173  0  3.898969  0
C  C103  1  0.70764931  0.91764483  0.85888837  1  -0.053388  0  -0.167267  -0.176166  0  3.898876  0
C  C104  1  0.20253335  0.49074451  0.80639152  1  0.034048  0  -0.168274  -0.176377  0  3.913467  0
C  C105  1  0.79746324  0.50925820  0.30639149  1  0.034066  0  -0.168286  -0.176379  0  3.913452  0
C  C106  1  0.29746633  0.99074071  0.30639193  1  0.034013  0  -0.168308  -0.17639  0  3.913437  0
C  C107  1  0.70253368  0.00926037  0.80639159  1  0.034026  0  -0.168304  -0.176355  0  3.913345  0
C  C108  1  0.25702621  0.52604493  0.73558804  1  0.015734  0  -0.091213  0.0473  0  3.833439  0
C  C109  1  0.74297094  0.47395959  0.23558932  1  0.016063  0  -0.091241  0.047152  0  3.833598  0
C  C110  1  0.24297381  0.02604266  0.23558762  1  0.01573  0  -0.091208  0.047211  0  3.833538  0
C  C111  1  0.75702562  0.97396023  0.73558973  1  0.015849  0  -0.091229  0.047089  0  3.833823  0
C  C112  1  0.41380041  0.58032128  0.74094115  1  -0.039062  0  -0.176545  -0.181574  0  3.925467  0
C  C113  1  0.58619564  0.41968247  0.24094097  1  -0.038925  0  -0.176522  -0.181569  0  3.925537  0
C  C114  1  0.08620082  0.08031898  0.24094048  1  -0.039048  0  -0.176554  -0.181452  0  3.925309  0
C  C115  1  0.91379980  0.91968233  0.74094164  1  -0.039083  0  -0.176562  -0.181569  0  3.925606  0
C  C116  1  0.41414447  0.67334991  0.79215006  1  -0.010229  0  -0.171653  -0.18191  0  3.941119  0
C  C117  1  0.58585428  0.32665267  0.29214803  1  -0.010287  0  -0.171619  -0.181918  0  3.941078  0
C  C118  1  0.08585722  0.17334842  0.29214939  1  -0.010237  0  -0.171679  -0.182  0  3.94118  0
C  C119  1  0.91414267  0.82665416  0.79214820  1  -0.010249  0  -0.171659  -0.181988  0  3.941216  0
C  C120  1  0.25090558  0.42576675  0.68869627  1  -0.124405  0  -0.149183  -0.214135  0  3.817661  0
C  C121  1  0.74908890  0.57423491  0.18869689  1  -0.124468  0  -0.149117  -0.213947  0  3.817485  0
C  C122  1  0.24909195  0.92576619  0.18869559  1  -0.12447  0  -0.149166  -0.214033  0  3.817513  0
C  C123  1  0.75090709  0.07423628  0.68869656  1  -0.124397  0  -0.14914  -0.213985  0  3.817536  0
C  C124  1  0.51424073  0.31095536  0.64331701  1  -0.129015  0  -0.149889  -0.244459  0  3.900863  0
C  C125  1  0.48575565  0.68904265  0.14331609  1  -0.129103  0  -0.149906  -0.244591  0  3.90094  0
C  C126  1  0.98575499  0.81095810  0.14331772  1  -0.129138  0  -0.149932  -0.244633  0  3.901  0
C  C127  1  0.01424254  0.18904235  0.64331842  1  -0.128548  0  -0.149897  -0.244483  0  3.900895  0
C  C128  1  0.60313661  0.33969480  0.70533700  1  -0.031904  0  -0.015142  0.120342  0  3.986691  0
C  C129  1  0.39686485  0.66030782  0.20533736  1  -0.031725  0  -0.015152  0.120293  0  3.986665  0
C  C130  1  0.89686306  0.83969589  0.20533808  1  -0.03167  0  -0.015133  0.1203  0  3.986688  0
C  C131  1  0.10313841  0.16030429  0.70533882  1  -0.031888  0  -0.015114  0.120267  0  3.986658  0
C  C132  1  0.56207481  0.29605552  0.76822029  1  -0.055059  0  -0.09303  -0.138078  0  3.988899  0
C  C133  1  0.43792717  0.70394116  0.26821986  1  -0.054998  0  -0.093085  -0.138097  0  3.989031  0
C  C134  1  0.93792536  0.79605662  0.26822093  1  -0.055031  0  -0.093066  -0.13804  0  3.988778  0
C  C135  1  0.06207548  0.20394006  0.76822328  1  -0.055048  0  -0.093108  -0.138127  0  3.988805  0
C  C136  1  0.63004614  0.33391681  0.82767501  1  -0.035507  0  -0.093705  -0.141191  0  4.00104  0
C  C137  1  0.36996775  0.66608528  0.32767484  1  -0.035116  0  -0.093752  -0.14136  0  4.000887  0
C  C138  1  0.86995796  0.83391627  0.32767655  1  -0.035601  0  -0.093726  -0.141334  0  4.000873  0
C  C139  1  0.13004679  0.16608012  0.82767735  1  -0.035479  0  -0.093679  -0.141152  0  4.000859  0
C  C140  1  0.73813688  0.41785584  0.82558909  1  -0.020999  0  -0.021197  0.101931  0  4.025491  0
C  C141  1  0.26187014  0.58214217  0.32558846  1  -0.021195  0  -0.021109  0.10208  0  4.025335  0
C  C142  1  0.76186382  0.91785528  0.32559147  1  -0.02093  0  -0.021102  0.102043  0  4.025382  0
C  C143  1  0.23813864  0.08214029  0.82559064  1  -0.021136  0  -0.021136  0.101876  0  4.025467  0
C  C144  1  0.78655163  0.45609835  0.76193343  1  -0.08192  0  -0.089707  -0.136533  0  3.98483  0
C  C145  1  0.21345716  0.54390234  0.26193460  1  -0.08197  0  -0.089758  -0.136607  0  3.985143  0
C  C146  1  0.71344856  0.95609778  0.26193573  1  -0.081929  0  -0.089765  -0.13661  0  3.984991  0
C  C147  1  0.28655222  0.04389966  0.76193484  1  -0.081927  0  -0.089766  -0.136577  0  3.98505  0
C  C148  1  0.72156740  0.41674247  0.70250809  1  -0.092167  0  -0.08788  -0.128986  0  3.957507  0
C  C149  1  0.27843061  0.58325444  0.20250849  1  -0.09207  0  -0.087914  -0.128947  0  3.957523  0
C  C150  1  0.77843000  0.91674273  0.20250999  1  -0.092019  0  -0.087918  -0.128932  0  3.957592  0
C  C151  1  0.22156915  0.08325581  0.70250963  1  -0.092126  0  -0.087898  -0.1289  0  3.957599  0
C  C152  1  0.78295393  0.47476666  0.88952609  1  -0.144988  0  -0.141516  -0.244859  0  3.923371  0
C  C153  1  0.21705362  0.52523273  0.38952670  1  -0.144552  0  -0.141527  -0.244886  0  3.923244  0
C  C154  1  0.71704618  0.97476690  0.38952890  1  -0.144928  0  -0.141507  -0.244886  0  3.923242  0
C  C155  1  0.28295566  0.02523005  0.88952794  1  -0.144828  0  -0.141483  -0.244842  0  3.923243  0
S  S156  1  0.67530419  0.60318597  0.89737501  1  0.01095  0  0.003128  0.086079  0  2.985459  0
S  S157  1  0.32469772  0.39681186  0.39737585  1  0.010918  0  0.003114  0.086064  0  2.985477  0
S  S158  1  0.82469810  0.10318697  0.39737624  1  0.010953  0  0.003111  0.086061  0  2.985346  0
S  S159  1  0.17530152  0.89681086  0.89737613  1  0.010918  0  0.003131  0.086109  0  2.985384  0
S  S160  1  0.38532018  0.42169369  0.61742277  1  0.022423  0  -0.01038  0.078109  0  2.990836  0
S  S161  1  0.61467484  0.57830733  0.11742218  1  0.022422  0  -0.010371  0.078138  0  2.990849  0
S  S162  1  0.11467447  0.92169310  0.11742137  1  0.022358  0  -0.010368  0.078137  0  2.990801  0
S  S163  1  0.88532284  0.07830630  0.61742308  1  0.022363  0  -0.010389  0.078106  0  2.990785  0
N  N164  1  0.08427073  0.61714182  0.02864460  1  0.80604  0  0.084177  0.701977  0  4.418101  0
N  N165  1  0.91572585  0.38285598  0.52864692  1  0.806092  0  0.084145  0.701857  0  4.418269  0
N  N166  1  0.41573333  0.11714810  0.52864909  1  0.806067  0  0.084116  0.701852  0  4.41821  0
N  N167  1  0.58426553  0.88285051  0.02864901  1  0.805939  0  0.084135  0.701828  0  4.418266  0
O  O168  1  0.00243508  0.69061410  0.99948570  1  -0.57186  0  -0.215778  -0.438415  0  2.111596  0
O  O169  1  0.99756081  0.30938708  0.49948529  1  -0.571798  0  -0.215715  -0.438299  0  2.111709  0
O  O170  1  0.49756147  0.19061839  0.49948366  1  -0.571952  0  -0.215796  -0.438415  0  2.111779  0
O  O171  1  0.50243556  0.80938035  0.99948327  1  -0.571886  0  -0.215839  -0.438432  0  2.111803  0
O  O172  1  0.22701755  0.63393080  0.03395408  1  -0.549782  0  -0.197176  -0.428665  0  2.013877  0
O  O173  1  0.77297793  0.36606786  0.53395408  1  -0.549888  0  -0.197256  -0.428671  0  2.01388  0
O  O174  1  0.27298428  0.13393218  0.53395631  1  -0.549714  0  -0.197169  -0.428583  0  2.013869  0
O  O175  1  0.72701463  0.86606648  0.03395640  1  -0.549688  0  -0.197176  -0.428568  0  2.013869  0
O  O176  1  0.02350989  0.53223790  0.05123148  1  -0.51594  0  -0.207211  -0.45064  0  1.890118  0
O  O177  1  0.97648687  0.46775766  0.55124027  1  -0.515966  0  -0.207163  -0.450618  0  1.890123  0
O  O178  1  0.47650117  0.03225394  0.55124619  1  -0.515914  0  -0.207126  -0.450575  0  1.89005  0
O  O179  1  0.52349902  0.96774568  0.05124632  1  -0.515872  0  -0.207097  -0.450547  0  1.890064  0
