# generated using pymatgen
data_HgTeH17C13S2NO2
_symmetry_space_group_name_H-M   'P 1'
_cell_length_a   7.31462798
_cell_length_b   10.28736669
_cell_length_c   22.03480000
_cell_angle_alpha   81.48483783
_cell_angle_beta   88.29869553
_cell_angle_gamma   73.08908215
_symmetry_Int_Tables_number   1
_chemical_formula_structural   HgTeH17C13S2NO2
_chemical_formula_sum   'Hg4 Te4 H68 C52 S8 N4 O8'
_cell_volume   1568.73787440
_cell_formula_units_Z   4
loop_
 _symmetry_equiv_pos_site_id
 _symmetry_equiv_pos_as_xyz
  1  'x, y, z'
loop_
 _atom_site_type_symbol
 _atom_site_label
 _atom_site_symmetry_multiplicity
 _atom_site_fract_x
 _atom_site_fract_y
 _atom_site_fract_z
 _atom_site_occupancy
 _atom_site_hle17_bader_spin_density
 _atom_site_hle17_ddec_charge
 _atom_site_hle17_ddec_spin_density
 _atom_site_hle17_ddec_sum_bond_order
 _atom_site_hle17_magmom
 _atom_site_hse06_10hf_bader_spin_density
 _atom_site_hse06_10hf_ddec_charge
 _atom_site_hse06_10hf_ddec_spin_density
 _atom_site_hse06_10hf_ddec_sum_bond_order
 _atom_site_hse06_10hf_magmom
 _atom_site_hse06_bader_spin_density
 _atom_site_hse06_ddec_charge
 _atom_site_hse06_ddec_spin_density
 _atom_site_hse06_ddec_sum_bond_order
 _atom_site_hse06_magmom
 _atom_site_pbe_bader_charge
 _atom_site_pbe_bader_spin_density
 _atom_site_pbe_cm5_charge
 _atom_site_pbe_ddec_charge
 _atom_site_pbe_ddec_spin_density
 _atom_site_pbe_ddec_sum_bond_order
 _atom_site_pbe_magmom
Hg  Hg0  1  0.25656817  0.47793834  0.71364284  1  0  0.30884  0  2.250955  0  0  0.210704  0  2.725503  0  0  0.243415  0  2.712079  0  0.348278  0  0.308485  0.18933  0  2.734543  0
Hg  Hg1  1  0.74343432  0.52206742  0.28635737  1  0  0.308854  0  2.250922  0  0  0.21072  0  2.725471  0  0  0.243417  0  2.712074  0  0.348185  0  0.308488  0.18935  0  2.734509  0
Hg  Hg2  1  0.71703488  0.55128791  0.74419373  1  0  0.289928  0  2.279068  0  0  0.194122  0  2.755308  0  0  0.225673  0  2.744201  0  0.340329  0  0.297838  0.173192  0  2.763165  0
Hg  Hg3  1  0.28297763  0.44870655  0.25580581  1  0  0.289906  0  2.279053  0  0  0.194091  0  2.755278  0  0  0.225645  0  2.744175  0  0.340328  0  0.297839  0.173162  0  2.763129  0
Te  Te4  1  0.02551746  0.30549706  0.74336170  1  0  0.126715  0  2.363976  0  0  0.124194  0  2.835794  0  0  0.110826  0  2.830516  0  0.339198  0  0.099667  0.131817  0  2.841451  0
Te  Te5  1  0.97448573  0.69450355  0.25663795  1  0  0.126717  0  2.364005  0  0  0.124187  0  2.835801  0  0  0.110822  0  2.830522  0  0.339238  0  0.099662  0.131814  0  2.84145  0
Te  Te6  1  0.43842302  0.49569164  0.82397263  1  0  0.098405  0  2.38616  0  0  0.100701  0  2.853561  0  0  0.086518  0  2.849033  0  0.327653  0  0.089232  0.108239  0  2.856804  0
Te  Te7  1  0.56157798  0.50431103  0.17602691  1  0  0.098407  0  2.386171  0  0  0.100695  0  2.853601  0  0  0.086513  0  2.849074  0  0.327669  0  0.089221  0.108238  0  2.856838  0
H  H8  1  0.78273530  0.46441617  0.51263640  1  0  0.063715  0  0.953293  0  0  0.074589  0  1.0276  0  0  0.075416  0  1.027001  0  0.061484  0  0.09438  0.073931  0  1.028076  0
H  H9  1  0.21726980  0.53558650  0.48736218  1  0  0.063736  0  0.953325  0  0  0.074567  0  1.02764  0  0  0.075389  0  1.027041  0  0.061453  0  0.094385  0.073913  0  1.028116  0
H  H10  1  0.84809142  0.57138374  0.55944088  1  0  0.064437  0  0.943685  0  0  0.074661  0  1.019283  0  0  0.075381  0  1.019178  0  0.068722  0  0.091731  0.073994  0  1.019623  0
H  H11  1  0.15191066  0.42862304  0.44055563  1  0  0.064449  0  0.943797  0  0  0.074699  0  1.019313  0  0  0.075419  0  1.019205  0  0.068725  0  0.091768  0.074031  0  1.019658  0
H  H12  1  0.90220861  0.68737019  0.45927205  1  0  0.07644  0  0.948194  0  0  0.097095  0  1.005171  0  0  0.097723  0  1.005847  0  0.020128  0  0.092473  0.096592  0  1.004756  0
H  H13  1  0.09778978  0.31263556  0.54072366  1  0  0.076428  0  0.948136  0  0  0.097057  0  1.005176  0  0  0.097685  0  1.005857  0  0.020159  0  0.092475  0.096553  0  1.004758  0
H  H14  1  0.72486358  0.63562918  0.42409216  1  0  0.065781  0  0.977551  0  0  0.07523  0  1.054994  0  0  0.075826  0  1.056001  0  0.043588  0  0.076671  0.074832  0  1.054135  0
H  H15  1  0.27513331  0.36437349  0.57590696  1  0  0.065743  0  0.977574  0  0  0.075228  0  1.055008  0  0  0.075825  0  1.05602  0  0.043611  0  0.076673  0.074832  0  1.054142  0
H  H16  1  0.55364669  0.87456190  0.43350387  1  0  0.069446  0  0.960551  0  0  0.08888  0  1.02171  0  0  0.089748  0  1.021865  0  0.04129  0  0.090796  0.088088  0  1.021824  0
H  H17  1  0.44634817  0.12543564  0.56649563  1  0  0.06948  0  0.960327  0  0  0.088885  0  1.021527  0  0  0.089757  0  1.021679  0  0.041113  0  0.090788  0.088093  0  1.021648  0
H  H18  1  0.65568729  0.85940170  0.50746566  1  0  0.067407  0  0.941686  0  0  0.085195  0  1.004841  0  0  0.085903  0  1.005488  0  0.013536  0  0.087642  0.08469  0  1.004155  0
H  H19  1  0.34430931  0.14060508  0.49253227  1  0  0.067377  0  0.941807  0  0  0.0852  0  1.00488  0  0  0.085912  0  1.005522  0  0.013535  0  0.08766  0.084698  0  1.004195  0
H  H20  1  0.35438669  0.81517609  0.53650422  1  0  0.066515  0  0.958608  0  0  0.083294  0  1.021602  0  0  0.084188  0  1.021007  0  0.055309  0  0.096762  0.08265  0  1.021905  0
H  H21  1  0.64561240  0.18482453  0.46349547  1  0  0.066523  0  0.958611  0  0  0.083295  0  1.021614  0  0  0.08419  0  1.021018  0  0.055297  0  0.096762  0.08265  0  1.021918  0
H  H22  1  0.35634810  0.72781654  0.47207094  1  0  0.06217  0  0.956543  0  0  0.074668  0  1.030229  0  0  0.075323  0  1.030106  0  0.062561  0  0.09281  0.074081  0  1.030442  0
H  H23  1  0.64365182  0.27218202  0.52792889  1  0  0.062194  0  0.956495  0  0  0.074683  0  1.030187  0  0  0.075338  0  1.030063  0  0.062585  0  0.092817  0.074103  0  1.030394  0
H  H24  1  0.22780977  0.83454688  0.70074130  1  0  0.060463  0  0.966228  0  0  0.068953  0  1.045837  0  0  0.069265  0  1.045952  0  0.078518  0  0.088741  0.069735  0  1.044745  0
H  H25  1  0.77219318  0.16544758  0.29925697  1  0  0.06052  0  0.966231  0  0  0.068996  0  1.045823  0  0  0.069309  0  1.045937  0  0.078565  0  0.088761  0.06978  0  1.044729  0
H  H26  1  0.06852301  0.98625046  0.72298689  1  0  0.065406  0  0.957079  0  0  0.074779  0  1.033506  0  0  0.07643  0  1.031745  0  0.075616  0  0.093578  0.072773  0  1.036466  0
H  H27  1  0.93147815  0.01374502  0.27701224  1  0  0.065456  0  0.957103  0  0  0.074793  0  1.033568  0  0  0.076442  0  1.031809  0  0.075524  0  0.093574  0.072787  0  1.036529  0
H  H28  1  0.22433660  0.09589063  0.64314837  1  0  0.072956  0  0.953611  0  0  0.091894  0  1.014571  0  0  0.092656  0  1.015401  0  0.055047  0  0.088488  0.090991  0  1.01474  0
H  H29  1  0.77566319  0.90410486  0.35684986  1  0  0.072875  0  0.953578  0  0  0.091858  0  1.014512  0  0  0.092621  0  1.015341  0  0.054907  0  0.088473  0.090954  0  1.01468  0
H  H30  1  0.28999721  0.94889017  0.60500775  1  0  0.064842  0  0.964654  0  0  0.076888  0  1.036983  0  0  0.078115  0  1.036634  0  0.03211  0  0.081695  0.076065  0  1.037023  0
H  H31  1  0.71000175  0.05110737  0.39499035  1  0  0.064871  0  0.964575  0  0  0.076926  0  1.0369  0  0  0.078155  0  1.036548  0  0.032088  0  0.081722  0.076101  0  1.036941  0
H  H32  1  0.02278481  0.09872815  0.53979719  1  0  0.072012  0  0.946289  0  0  0.09288  0  1.003505  0  0  0.09348  0  1.004214  0  0.054003  0  0.091679  0.092405  0  1.00297  0
H  H33  1  0.97721196  0.90127144  0.46020033  1  0  0.071957  0  0.946301  0  0  0.092892  0  1.003477  0  0  0.093495  0  1.004179  0  0.05357  0  0.091656  0.092417  0  1.002943  0
H  H34  1  0.89828313  0.16502549  0.60388468  1  0  0.070537  0  0.962868  0  0  0.083927  0  1.035601  0  0  0.085543  0  1.034909  0  0.057006  0  0.082179  0.082924  0  1.035697  0
H  H35  1  0.10171571  0.83496896  0.39611544  1  0  0.07048  0  0.962853  0  0  0.083925  0  1.03556  0  0  0.085542  0  1.034867  0  0.056926  0  0.08219  0.082923  0  1.035657  0
H  H36  1  0.74119418  0.99220589  0.59336140  1  0  0.064126  0  0.951844  0  0  0.082746  0  1.013139  0  0  0.083326  0  1.012981  0  0.016986  0  0.098979  0.081909  0  1.01378  0
H  H37  1  0.25880192  0.00778857  0.40663648  1  0  0.06421  0  0.951801  0  0  0.082786  0  1.013126  0  0  0.083372  0  1.012963  0  0.017015  0  0.099032  0.081917  0  1.0138  0
H  H38  1  0.95225128  0.87990730  0.56681277  1  0  0.058662  0  0.945085  0  0  0.069834  0  1.020201  0  0  0.071184  0  1.018581  0  0.038239  0  0.092415  0.068847  0  1.021229  0
H  H39  1  0.04775042  0.12009024  0.43318711  1  0  0.058648  0  0.945039  0  0  0.069818  0  1.020151  0  0  0.071172  0  1.018531  0  0.037858  0  0.092411  0.068832  0  1.021175  0
H  H40  1  0.12951941  0.35891718  0.97499583  1  0  0.089576  0  0.996199  0  0  0.103947  0  1.059368  0  0  0.106425  0  1.05887  0  0.031823  0  0.093291  0.102167  0  1.059835  0
H  H41  1  0.87047189  0.64108242  0.02500764  1  0  0.089642  0  0.99619  0  0  0.104008  0  1.059347  0  0  0.106497  0  1.058838  0  0.031523  0  0.093355  0.102227  0  1.059813  0
H  H42  1  0.33939314  0.12079988  0.00182421  1  0  0.077672  0  0.958907  0  0  0.093446  0  1.014553  0  0  0.095525  0  1.013372  0  0.071022  0  0.095773  0.091873  0  1.015501  0
H  H43  1  0.66059310  0.87919868  0.99817847  1  0  0.077781  0  0.958821  0  0  0.093559  0  1.014448  0  0  0.095621  0  1.013289  0  0.071069  0  0.095798  0.091986  0  1.015397  0
H  H44  1  0.41400571  0.96203031  0.92496227  1  0  0.088281  0  0.998609  0  0  0.099135  0  1.066904  0  0  0.102051  0  1.065702  0  0.064187  0  0.094092  0.097151  0  1.067677  0
H  H45  1  0.58598820  0.03796621  0.07504139  1  0  0.088238  0  0.998553  0  0  0.099109  0  1.066835  0  0  0.102027  0  1.06564  0  0.064299  0  0.094082  0.097124  0  1.067608  0
H  H46  1  0.40198504  0.84320016  0.78119877  1  0  0.089802  0  0.957749  0  0  0.104545  0  1.031595  0  0  0.105016  0  1.031426  0  0.069593  0  0.094885  0.104047  0  1.031943  0
H  H47  1  0.59802143  0.15680251  0.21879844  1  0  0.08981  0  0.957783  0  0  0.104558  0  1.031626  0  0  0.10503  0  1.031453  0  0.069624  0  0.094871  0.104053  0  1.031981  0
H  H48  1  0.30764878  0.83307317  0.85707159  1  0  0.074185  0  0.951983  0  0  0.091594  0  1.021016  0  0  0.091979  0  1.020692  0  0.046962  0  0.09025  0.091274  0  1.021201  0
H  H49  1  0.69235619  0.16692642  0.14292812  1  0  0.074201  0  0.952018  0  0  0.091606  0  1.02105  0  0  0.091991  0  1.020726  0  0.046924  0  0.090247  0.091287  0  1.021234  0
H  H50  1  0.52840016  0.87689107  0.84224843  1  0  0.074525  0  0.96189  0  0  0.089338  0  1.035462  0  0  0.089743  0  1.035285  0  0.051034  0  0.09063  0.08902  0  1.035709  0
H  H51  1  0.47160316  0.12311263  0.15775328  1  0  0.07455  0  0.961861  0  0  0.089378  0  1.035405  0  0  0.089783  0  1.035227  0  0.051049  0  0.09065  0.08906  0  1.03565  0
H  H52  1  0.82148139  0.65076165  0.88382074  1  0  0.094057  0  0.94262  0  0  0.113022  0  1.006033  0  0  0.113601  0  1.005638  0  0.063771  0  0.095738  0.112335  0  1.006631  0
H  H53  1  0.17852467  0.34924205  0.11618094  1  0  0.09409  0  0.942637  0  0  0.113054  0  1.006048  0  0  0.113634  0  1.00565  0  0.063777  0  0.09574  0.112369  0  1.006646  0
H  H54  1  0.04795273  0.57624954  0.92271123  1  0  0.067531  0  0.96329  0  0  0.082284  0  1.039488  0  0  0.082814  0  1.038799  0  0.048934  0  0.087965  0.081848  0  1.040021  0
H  H55  1  0.95205129  0.42374902  0.07728992  1  0  0.067455  0  0.963343  0  0  0.082241  0  1.039517  0  0  0.082767  0  1.038832  0  0.048951  0  0.087934  0.081805  0  1.040051  0
H  H56  1  0.84513420  0.51603086  0.94745889  1  0  0.080542  0  0.956234  0  0  0.097528  0  1.023009  0  0  0.0985  0  1.022067  0  0.060648  0  0.094174  0.096811  0  1.023665  0
H  H57  1  0.15487281  0.48397387  0.05254135  1  0  0.080553  0  0.956253  0  0  0.097525  0  1.023036  0  0  0.098494  0  1.022103  0  0.06074  0  0.094183  0.096819  0  1.023678  0
H  H58  1  0.80671225  0.97455323  0.80956402  1  0  0.097003  0  1.014593  0  0  0.102704  0  1.090635  0  0  0.10615  0  1.089183  0  0.101453  0  0.085856  0.100274  0  1.091393  0
H  H59  1  0.19327548  0.02544842  0.19043799  1  0  0.097076  0  1.014472  0  0  0.102778  0  1.090513  0  0  0.106225  0  1.089059  0  0.101394  0  0.085905  0.100349  0  1.09127  0
H  H60  1  0.93487510  0.92466693  0.91530891  1  0  0.0743  0  0.949512  0  0  0.090486  0  1.004366  0  0  0.092975  0  1.002542  0  0.052023  0  0.094288  0.088676  0  1.005795  0
H  H61  1  0.06511483  0.07533266  0.08469276  1  0  0.074365  0  0.949385  0  0  0.090495  0  1.004308  0  0  0.092981  0  1.002486  0  0.051984  0  0.094273  0.088684  0  1.005738  0
H  H62  1  0.84870759  0.09994409  0.98491796  1  0  0.09842  0  0.983595  0  0  0.111091  0  1.047325  0  0  0.113293  0  1.047797  0  0.068532  0  0.097245  0.10955  0  1.046961  0
H  H63  1  0.15129108  0.90005755  0.01508258  1  0  0.098478  0  0.983596  0  0  0.111145  0  1.047325  0  0  0.113361  0  1.047779  0  0.068534  0  0.097287  0.109603  0  1.046961  0
H  H64  1  0.60827475  0.41811196  0.03643421  1  0  0.093475  0  0.975948  0  0  0.10409  0  1.051446  0  0  0.106063  0  1.049624  0  0.088503  0  0.096958  0.102706  0  1.052618  0
H  H65  1  0.39172857  0.58189174  0.96356614  1  0  0.093506  0  0.975983  0  0  0.104119  0  1.051461  0  0  0.106092  0  1.049637  0  0.088486  0  0.096975  0.102736  0  1.052634  0
H  H66  1  0.82503779  0.28800153  0.02365802  1  0  0.069688  0  0.960746  0  0  0.085499  0  1.033575  0  0  0.08625  0  1.032443  0  -0.002207  0  0.090971  0.084871  0  1.034462  0
H  H67  1  0.17496458  0.71200114  0.97634241  1  0  0.069668  0  0.960835  0  0  0.085496  0  1.033636  0  0  0.086245  0  1.032509  0  -0.002203  0  0.090961  0.084869  0  1.034522  0
H  H68  1  0.60532891  0.24447118  0.03643649  1  0  0.073416  0  0.959565  0  0  0.092443  0  1.025699  0  0  0.092883  0  1.025206  0  0.046758  0  0.093703  0.092059  0  1.026033  0
H  H69  1  0.39466989  0.75553354  0.96356338  1  0  0.073442  0  0.959549  0  0  0.092441  0  1.025714  0  0  0.09288  0  1.025221  0  0.046693  0  0.093689  0.092056  0  1.026048  0
H  H70  1  0.52189356  0.16612641  0.67924508  1  0  0.088486  0  0.949389  0  0  0.104512  0  1.020049  0  0  0.105252  0  1.019224  0  0.058963  0  0.0923  0.103709  0  1.020961  0
H  H71  1  0.47811113  0.83387729  0.32075389  1  0  0.08847  0  0.949385  0  0  0.104514  0  1.020016  0  0  0.105255  0  1.019189  0  0.058964  0  0.09231  0.103713  0  1.020927  0
H  H72  1  0.56989326  0.02531799  0.74093950  1  0  0.086135  0  0.960429  0  0  0.10226  0  1.029865  0  0  0.102802  0  1.029663  0  0.060678  0  0.094022  0.101844  0  1.030104  0
H  H73  1  0.43010542  0.97468365  0.25906058  1  0  0.086169  0  0.960322  0  0  0.102244  0  1.029812  0  0  0.102785  0  1.029612  0  0.060683  0  0.094038  0.10183  0  1.030048  0
H  H74  1  0.75984539  0.09161020  0.70958269  1  0  0.079713  0  0.971971  0  0  0.095191  0  1.042565  0  0  0.095313  0  1.043252  0  0.059918  0  0.09185  0.095047  0  1.042091  0
H  H75  1  0.24015971  0.90839248  0.29041998  1  0  0.079706  0  0.971918  0  0  0.095192  0  1.042498  0  0  0.095307  0  1.043193  0  0.059948  0  0.091836  0.095051  0  1.042015  0
C  C76  1  0.75106800  0.57037217  0.52232146  1  0  0.007175  0  3.601976  0  0  -0.050547  0  3.852445  0  0  -0.046138  0  3.863788  0  0.247013  0  -0.065661  -0.053438  0  3.844779  0
C  C77  1  0.24893395  0.42963153  0.47767618  1  0  0.007028  0  3.60218  0  0  -0.050564  0  3.852556  0  0  -0.046132  0  3.863871  0  0.246863  0  -0.065728  -0.053468  0  3.844901  0
C  C78  1  0.75973274  0.67299974  0.46521632  1  0  -0.129664  0  3.649349  0  0  -0.165551  0  3.89746  0  0  -0.166972  0  3.910633  0  -0.00397  0  -0.167339  -0.164444  0  3.888272  0
C  C79  1  0.24026565  0.32700601  0.53478212  1  0  -0.129538  0  3.649217  0  0  -0.165524  0  3.897366  0  0  -0.166962  0  3.91055  0  -0.00385  0  -0.167349  -0.164413  0  3.88819  0
C  C80  1  0.60408759  0.80393175  0.47590789  1  0  -0.123012  0  3.670532  0  0  -0.163857  0  3.927936  0  0  -0.165199  0  3.94084  0  -0.006141  0  -0.163116  -0.16269  0  3.918697  0
C  C81  1  0.39591025  0.19607195  0.52409024  1  0  -0.123072  0  3.670469  0  0  -0.163857  0  3.927814  0  0  -0.1652  0  3.940722  0  -0.005924  0  -0.163113  -0.162702  0  3.918588  0
C  C82  1  0.44681273  0.74852753  0.50642596  1  0  -0.00161  0  3.626016  0  0  -0.060272  0  3.878437  0  0  -0.055894  0  3.889506  0  0.265432  0  -0.068059  -0.062941  0  3.870658  0
C  C83  1  0.55318500  0.25147309  0.49357329  1  0  -0.001683  0  3.626112  0  0  -0.060334  0  3.878554  0  0  -0.055957  0  3.889626  0  0.265468  0  -0.068087  -0.063008  0  3.870773  0
C  C84  1  0.11401434  0.92852117  0.68416955  1  0  -0.003334  0  3.625754  0  0  -0.059553  0  3.872587  0  0  -0.054952  0  3.883154  0  0.245863  0  -0.070252  -0.06334  0  3.865465  0
C  C85  1  0.88598723  0.07147329  0.31582873  1  0  -0.003496  0  3.625859  0  0  -0.059643  0  3.872677  0  0  -0.055042  0  3.883241  0  0.246234  0  -0.070228  -0.063426  0  3.865535  0
C  C86  1  0.17337954  0.01469292  0.62890233  1  0  -0.128006  0  3.668154  0  0  -0.167079  0  3.921724  0  0  -0.168619  0  3.934592  0  -0.041806  0  -0.166416  -0.165797  0  3.91322  0
C  C87  1  0.82661806  0.98530462  0.37109532  1  0  -0.127994  0  3.668121  0  0  -0.167111  0  3.921729  0  0  -0.168651  0  3.934594  0  -0.041568  0  -0.166456  -0.165824  0  3.913226  0
C  C88  1  0.99261727  0.07179370  0.58833702  1  0  -0.128161  0  3.657611  0  0  -0.167481  0  3.913463  0  0  -0.169033  0  3.9263  0  -0.074839  0  -0.164867  -0.166006  0  3.904083  0
C  C89  1  0.00737979  0.92820178  0.41166032  1  0  -0.127978  0  3.657488  0  0  -0.167463  0  3.913443  0  0  -0.169014  0  3.926284  0  -0.074484  0  -0.164855  -0.16599  0  3.904057  0
C  C90  1  0.89749055  0.95654524  0.59812516  1  0  0.004562  0  3.630149  0  0  -0.054876  0  3.883743  0  0  -0.050344  0  3.894699  0  0.335079  0  -0.065351  -0.057734  0  3.876138  0
C  C91  1  0.10250734  0.04344819  0.40187459  1  0  0.004454  0  3.630072  0  0  -0.054906  0  3.883646  0  0  -0.050382  0  3.894613  0  0.335498  0  -0.065378  -0.057744  0  3.876049  0
C  C92  1  0.48277678  0.55595653  0.59204807  1  0  0.234916  0  3.807713  0  0  0.205379  0  4.105959  0  0  0.229897  0  4.11574  0  0.297461  0  0.117083  0.18925  0  4.098587  0
C  C93  1  0.51722914  0.44404409  0.40795201  1  0  0.234755  0  3.807847  0  0  0.205203  0  4.106172  0  0  0.229722  0  4.115954  0  0.297639  0  0.117004  0.189082  0  4.098771  0
C  C94  1  0.87305824  0.80060025  0.69344987  1  0  0.22574  0  3.825401  0  0  0.198313  0  4.120193  0  0  0.222281  0  4.130832  0  0.295442  0  0.113013  0.180733  0  4.113052  0
C  C95  1  0.12694250  0.19939626  0.30654964  1  0  0.225683  0  3.825444  0  0  0.198266  0  4.120261  0  0  0.222235  0  4.130899  0  0.2955  0  0.112971  0.180685  0  4.113123  0
C  C96  1  0.12547015  0.24579084  0.83646997  1  0  -0.250545  0  3.572533  0  0  -0.236892  0  3.842798  0  0  -0.242089  0  3.863495  0  -0.202707  0  -0.09926  -0.23354  0  3.828984  0
C  C97  1  0.87453470  0.75420567  0.16353086  1  0  -0.250595  0  3.572721  0  0  -0.236891  0  3.842845  0  0  -0.242087  0  3.86354  0  -0.202887  0  -0.099266  -0.233537  0  3.829025  0
C  C98  1  0.08225180  0.33418353  0.88125460  1  0  0.276554  0  3.832549  0  0  0.2634  0  4.09104  0  0  0.277282  0  4.106397  0  0.448449  0  0.072823  0.253901  0  4.080702  0
C  C99  1  0.91774866  0.66581709  0.11874735  1  0  0.276404  0  3.832613  0  0  0.263247  0  4.091097  0  0  0.277129  0  4.106458  0  0.448387  0  0.072774  0.253755  0  4.080752  0
C  C100  1  0.15994969  0.28955740  0.94085324  1  0  -0.233022  0  3.787013  0  0  -0.256687  0  4.045328  0  0  -0.264209  0  4.065048  0  -0.004023  0  -0.131255  -0.25171  0  4.032176  0
C  C101  1  0.84004281  0.71044938  0.05914610  1  0  -0.232901  0  3.786976  0  0  -0.256569  0  4.045306  0  0  -0.264097  0  4.065011  0  -0.003407  0  -0.131232  -0.251592  0  4.032153  0
C  C102  1  0.27839866  0.15589056  0.95567147  1  0  -0.010132  0  3.821693  0  0  -0.024092  0  4.073833  0  0  -0.020264  0  4.093632  0  -0.03207  0  -0.095034  -0.026219  0  4.060004  0
C  C103  1  0.72159579  0.84410801  0.04433250  1  0  -0.010393  0  3.821915  0  0  -0.024376  0  4.074088  0  0  -0.020535  0  4.093891  0  -0.032541  0  -0.095119  -0.026501  0  4.060258  0
C  C104  1  0.31918919  0.06536485  0.91269291  1  0  -0.230529  0  3.794523  0  0  -0.252577  0  4.052527  0  0  -0.261935  0  4.075803  0  -0.016601  0  -0.125291  -0.24628  0  4.036509  0
C  C105  1  0.68080596  0.93462858  0.08730959  1  0  -0.23037  0  3.794584  0  0  -0.252445  0  4.05254  0  0  -0.26181  0  4.075818  0  -0.016336  0  -0.125282  -0.246148  0  4.03652  0
C  C106  1  0.24279391  0.11054246  0.85312182  1  0  0.288467  0  3.803218  0  0  0.275556  0  4.057803  0  0  0.289475  0  4.072888  0  0.419698  0  0.079479  0.266042  0  4.047686  0
C  C107  1  0.75720219  0.88945199  0.14687923  1  0  0.288392  0  3.803123  0  0  0.275541  0  4.05762  0  0  0.289459  0  4.072703  0  0.419685  0  0.07948  0.26603  0  4.047498  0
C  C108  1  0.38555820  0.88748123  0.82395321  1  0  -0.075594  0  3.645146  0  0  -0.176476  0  3.910038  0  0  -0.169046  0  3.913799  0  0.377205  0  -0.146403  -0.181383  0  3.907573  0
C  C109  1  0.61444897  0.11251631  0.17604662  1  0  -0.075685  0  3.645262  0  0  -0.176571  0  3.910157  0  0  -0.169139  0  3.91391  0  0.37721  0  -0.146398  -0.181472  0  3.9077  0
C  C110  1  0.91793779  0.55574703  0.90775494  1  0  -0.06859  0  3.639484  0  0  -0.166553  0  3.900645  0  0  -0.159071  0  3.903517  0  0.372815  0  -0.148596  -0.171507  0  3.898819  0
C  C111  1  0.08206951  0.44425359  0.09224558  1  0  -0.068635  0  3.639608  0  0  -0.166623  0  3.900765  0  0  -0.159138  0  3.90364  0  0.372719  0  -0.148608  -0.171578  0  3.898931  0
C  C112  1  0.60452319  0.28965702  0.85544483  1  0  -0.247604  0  3.582331  0  0  -0.234427  0  3.851494  0  0  -0.239267  0  3.872537  0  -0.206395  0  -0.100413  -0.231063  0  3.837346  0
C  C113  1  0.39546906  0.71034360  0.14455447  1  0  -0.247736  0  3.582525  0  0  -0.234559  0  3.851707  0  0  -0.239401  0  3.872747  0  -0.206383  0  -0.100481  -0.231191  0  3.837553  0
C  C114  1  0.64689078  0.18582275  0.81773158  1  0  0.27715  0  3.831414  0  0  0.265759  0  4.085227  0  0  0.279392  0  4.10063  0  0.48318  0  0.073393  0.256763  0  4.074121  0
C  C115  1  0.35310516  0.81417890  0.18226989  1  0  0.277139  0  3.831383  0  0  0.265707  0  4.085262  0  0  0.279347  0  4.100653  0  0.48317  0  0.073349  0.256712  0  4.074144  0
C  C116  1  0.76761600  0.05432898  0.83905069  1  0  -0.2264  0  3.771152  0  0  -0.248789  0  4.029635  0  0  -0.255865  0  4.04841  0  -0.026811  0  -0.129155  -0.243872  0  4.016852  0
C  C117  1  0.23237339  0.94566855  0.16095067  1  0  -0.226466  0  3.771064  0  0  -0.248833  0  4.029542  0  0  -0.25591  0  4.048311  0  -0.027006  0  -0.129147  -0.243916  0  4.016759  0
C  C118  1  0.83941237  0.02641583  0.89887140  1  0  -0.01472  0  3.827312  0  0  -0.027756  0  4.079643  0  0  -0.024247  0  4.098804  0  -0.053139  0  -0.095998  -0.030357  0  4.066794  0
C  C119  1  0.16057768  0.97358685  0.10113232  1  0  -0.014823  0  3.827055  0  0  -0.027809  0  4.079365  0  0  -0.0243  0  4.098529  0  -0.052904  0  -0.096055  -0.030407  0  4.066516  0
C  C120  1  0.79202289  0.12509058  0.93822841  1  0  -0.229376  0  3.789345  0  0  -0.251888  0  4.045335  0  0  -0.260932  0  4.069614  0  -0.050586  0  -0.125537  -0.245659  0  4.029022  0
C  C121  1  0.20797578  0.87491107  0.06177121  1  0  -0.229356  0  3.789185  0  0  -0.251898  0  4.045212  0  0  -0.260953  0  4.06948  0  -0.050599  0  -0.125534  -0.245667  0  4.028899  0
C  C122  1  0.67476291  0.25688422  0.91612421  1  0  0.277714  0  3.805506  0  0  0.26594  0  4.062156  0  0  0.278746  0  4.078008  0  0.435413  0  0.073618  0.256894  0  4.051738  0
C  C123  1  0.32523957  0.74312154  0.08387600  1  0  0.277815  0  3.805694  0  0  0.266061  0  4.06231  0  0  0.278867  0  4.078164  0  0.435448  0  0.073708  0.257014  0  4.051891  0
C  C124  1  0.66923931  0.32475077  0.01563912  1  0  -0.081262  0  3.651984  0  0  -0.178148  0  3.914474  0  0  -0.171074  0  3.916845  0  0.411062  0  -0.146399  -0.182763  0  3.912734  0
C  C125  1  0.33076032  0.67525190  0.98436134  1  0  -0.081326  0  3.652168  0  0  -0.178188  0  3.91463  0  0  -0.171114  0  3.917001  0  0.411145  0  -0.146396  -0.182803  0  3.912891  0
C  C126  1  0.60760362  0.11801370  0.72082908  1  0  -0.064836  0  3.613396  0  0  -0.165932  0  3.878955  0  0  -0.158236  0  3.881645  0  0.378739  0  -0.153773  -0.170891  0  3.876857  0
C  C127  1  0.39239903  0.88198486  0.27917027  1  0  -0.064876  0  3.613249  0  0  -0.165929  0  3.878801  0  0  -0.158234  0  3.881491  0  0.378746  0  -0.153788  -0.170888  0  3.8767  0
S  S128  1  0.24736214  0.63107969  0.61121327  1  0  -0.2943  0  2.187343  0  0  -0.261388  0  2.553767  0  0  -0.27873  0  2.551799  0  -0.190354  0  -0.14798  -0.250098  0  2.55503  0
S  S129  1  0.75264175  0.36891580  0.38878537  1  0  -0.29427  0  2.187345  0  0  -0.26136  0  2.553793  0  0  -0.278699  0  2.551823  0  -0.190465  0  -0.147959  -0.250071  0  2.555055  0
S  S130  1  0.61954049  0.40912491  0.63371048  1  0  -0.416974  0  2.092313  0  0  -0.385394  0  2.442281  0  0  -0.401816  0  2.436551  0  -0.211399  0  -0.204025  -0.373776  0  2.445693  0
S  S131  1  0.38046858  0.59087468  0.36628783  1  0  -0.416931  0  2.092348  0  0  -0.385334  0  2.442338  0  0  -0.401755  0  2.436609  0  -0.211377  0  -0.204004  -0.373716  0  2.44575  0
S  S132  1  0.95323171  0.72810923  0.76616948  1  0  -0.396219  0  2.108027  0  0  -0.358404  0  2.449525  0  0  -0.37556  0  2.445986  0  -0.221531  0  -0.199195  -0.344737  0  2.4504  0
S  S133  1  0.04676738  0.27189139  0.23383067  1  0  -0.396222  0  2.108096  0  0  -0.358411  0  2.449604  0  0  -0.375564  0  2.446064  0  -0.221619  0  -0.199187  -0.344745  0  2.450481  0
S  S134  1  0.69209624  0.75864219  0.65925358  1  0  -0.299069  0  2.110558  0  0  -0.270769  0  2.46583  0  0  -0.288051  0  2.465473  0  -0.187419  0  -0.161211  -0.258633  0  2.466678  0
S  S135  1  0.30789862  0.24135534  0.34074773  1  0  -0.299029  0  2.110603  0  0  -0.270692  0  2.465815  0  0  -0.287995  0  2.465501  0  -0.187315  0  -0.161147  -0.258554  0  2.466657  0
N  N136  1  0.55254279  0.61844996  0.54300544  1  0  -0.125205  0  3.398691  0  0  -0.025234  0  3.618299  0  0  -0.043887  0  3.641593  0  -1.143192  0  -0.264327  -0.012898  0  3.602386  0
N  N137  1  0.44745999  0.38155169  0.45699278  1  0  -0.124969  0  3.398554  0  0  -0.025083  0  3.618211  0  0  -0.043741  0  3.641501  0  -1.143351  0  -0.264248  -0.012742  0  3.602302  0
N  N138  1  0.95232709  0.89080965  0.66123597  1  0  -0.139217  0  3.445288  0  0  -0.034916  0  3.655504  0  0  -0.053818  0  3.679354  0  -1.154023  0  -0.270276  -0.020799  0  3.638689  0
N  N139  1  0.04767270  0.10918583  0.33876362  1  0  -0.139105  0  3.445036  0  0  -0.034884  0  3.655305  0  0  -0.053783  0  3.679154  0  -1.1544  0  -0.270296  -0.020762  0  3.638485  0
O  O140  1  0.96223554  0.46270729  0.86378559  1  0  -0.266679  0  2.456394  0  0  -0.18174  0  2.698127  0  0  -0.201779  0  2.704259  0  -1.087021  0  -0.191148  -0.167593  0  2.692967  0
O  O141  1  0.03777246  0.53728820  0.13621483  1  0  -0.266571  0  2.456432  0  0  -0.1816  0  2.698096  0  0  -0.201636  0  2.704221  0  -1.087063  0  -0.19111  -0.167483  0  2.692979  0
O  O142  1  0.27843620  0.02869263  0.80796818  1  0  -0.254831  0  2.374971  0  0  -0.166758  0  2.606386  0  0  -0.185542  0  2.610252  0  -1.078368  0  -0.186203  -0.154151  0  2.604417  0
O  O143  1  0.72156645  0.97130594  0.19203207  1  0  -0.254757  0  2.374947  0  0  -0.16673  0  2.606371  0  0  -0.185514  0  2.610234  0  -1.078383  0  -0.186204  -0.154124  0  2.604396  0
O  O144  1  0.56350444  0.21973857  0.76097799  1  0  -0.274086  0  2.471693  0  0  -0.187621  0  2.712415  0  0  -0.20783  0  2.71809  0  -1.094472  0  -0.194015  -0.173253  0  2.707355  0
O  O145  1  0.43649138  0.78026000  0.23902143  1  0  -0.27395  0  2.471622  0  0  -0.187494  0  2.712384  0  0  -0.207699  0  2.718042  0  -1.094482  0  -0.19395  -0.173158  0  2.707399  0
O  O146  1  0.62341893  0.36083043  0.95157372  1  0  -0.264923  0  2.378818  0  0  -0.181058  0  2.614604  0  0  -0.199258  0  2.618061  0  -1.098198  0  -0.193104  -0.168371  0  2.612057  0
O  O147  1  0.37658165  0.63917327  0.04842575  1  0  -0.264956  0  2.378817  0  0  -0.181095  0  2.614581  0  0  -0.199295  0  2.618036  0  -1.098137  0  -0.193154  -0.168408  0  2.612035  0
