# generated using pymatgen
data_DyH6C10NO8
_symmetry_space_group_name_H-M   'P 1'
_cell_length_a   8.19221353
_cell_length_b   10.97121659
_cell_length_c   13.01913068
_cell_angle_alpha   89.99974853
_cell_angle_beta   93.61496687
_cell_angle_gamma   90.00005086
_symmetry_Int_Tables_number   1
_chemical_formula_structural   DyH6C10NO8
_chemical_formula_sum   'Dy4 H24 C40 N4 O32'
_cell_volume   1167.81233709
_cell_formula_units_Z   4
loop_
 _symmetry_equiv_pos_site_id
 _symmetry_equiv_pos_as_xyz
  1  'x, y, z'
loop_
 _atom_site_type_symbol
 _atom_site_label
 _atom_site_symmetry_multiplicity
 _atom_site_fract_x
 _atom_site_fract_y
 _atom_site_fract_z
 _atom_site_occupancy
 _atom_site_hle17_bader_spin_density
 _atom_site_hle17_ddec_charge
 _atom_site_hle17_ddec_spin_density
 _atom_site_hle17_ddec_sum_bond_order
 _atom_site_hle17_magmom
 _atom_site_hse06_10hf_bader_spin_density
 _atom_site_hse06_10hf_ddec_charge
 _atom_site_hse06_10hf_ddec_spin_density
 _atom_site_hse06_10hf_ddec_sum_bond_order
 _atom_site_hse06_10hf_magmom
 _atom_site_hse06_bader_spin_density
 _atom_site_hse06_ddec_charge
 _atom_site_hse06_ddec_spin_density
 _atom_site_hse06_ddec_sum_bond_order
 _atom_site_hse06_magmom
 _atom_site_pbe_bader_spin_density
 _atom_site_pbe_cm5_charge
 _atom_site_pbe_ddec_charge
 _atom_site_pbe_ddec_spin_density
 _atom_site_pbe_ddec_sum_bond_order
 _atom_site_pbe_magmom
Dy  Dy0  1  0.54627596  0.54953400  0.19245944  1  0  2.246495  0  1.676895  0  0  2.10092  0  2.160156  0  0  2.224654  0  1.972715  0  0  1.524307  2.065153  0  2.191887  0
Dy  Dy1  1  0.95371899  0.04952782  0.80754106  1  0  2.246565  0  1.676645  0  0  2.100958  0  2.159935  0  0  2.224728  0  1.972433  0  0  1.524253  2.065208  0  2.191638  0
Dy  Dy2  1  0.45371378  0.45047316  0.80753845  1  0  2.24651  0  1.676709  0  0  2.100937  0  2.159918  0  0  2.224659  0  1.972505  0  0  1.524204  2.06511  0  2.191737  0
Dy  Dy3  1  0.04628542  0.95046658  0.19246050  1  0  2.246532  0  1.676604  0  0  2.100862  0  2.159985  0  0  2.224696  0  1.972388  0  0  1.524235  2.065106  0  2.191659  0
H  H4  1  0.43768694  0.80071922  0.26669799  1  0  0.461486  0  0.827506  0  0  0.430399  0  0.89086  0  0  0.441801  0  0.874067  0  0  0.306171  0.422625  0  0.902381  0
H  H5  1  0.06231213  0.30071955  0.73330381  1  0  0.461507  0  0.827467  0  0  0.43042  0  0.890819  0  0  0.441821  0  0.874027  0  0  0.306177  0.422649  0  0.902334  0
H  H6  1  0.56231258  0.19927791  0.73330029  1  0  0.461474  0  0.827523  0  0  0.43039  0  0.890868  0  0  0.44179  0  0.874078  0  0  0.306147  0.422613  0  0.902393  0
H  H7  1  0.93768860  0.69927394  0.26669990  1  0  0.461443  0  0.827586  0  0  0.430378  0  0.890902  0  0  0.44178  0  0.874109  0  0  0.306136  0.422603  0  0.902427  0
H  H8  1  0.62658967  0.81000090  0.24329397  1  0  0.442248  0  0.852189  0  0  0.413381  0  0.911244  0  0  0.424314  0  0.895534  0  0  0.302913  0.406071  0  0.921801  0
H  H9  1  0.87341160  0.30999767  0.75670736  1  0  0.442304  0  0.852114  0  0  0.413425  0  0.911188  0  0  0.424358  0  0.895479  0  0  0.302938  0.406118  0  0.92174  0
H  H10  1  0.37341106  0.18999623  0.75670821  1  0  0.442246  0  0.852179  0  0  0.413375  0  0.911237  0  0  0.424307  0  0.895529  0  0  0.302898  0.406068  0  0.921787  0
H  H11  1  0.12658914  0.68999764  0.24329175  1  0  0.442299  0  0.852113  0  0  0.413422  0  0.911184  0  0  0.424356  0  0.895472  0  0  0.30293  0.406117  0  0.921732  0
H  H12  1  0.92747622  0.58108515  0.78418875  1  0  0.134277  0  0.896497  0  0  0.143917  0  0.950089  0  0  0.147093  0  0.946742  0  0  0.148327  0.141677  0  0.952173  0
H  H13  1  0.57252977  0.08108362  0.21580824  1  0  0.134245  0  0.896469  0  0  0.143896  0  0.95004  0  0  0.147072  0  0.946692  0  0  0.148326  0.141659  0  0.952119  0
H  H14  1  0.07252575  0.41891563  0.21580810  1  0  0.134225  0  0.896527  0  0  0.143876  0  0.950107  0  0  0.147055  0  0.946758  0  0  0.148326  0.141639  0  0.952192  0
H  H15  1  0.42746975  0.91891169  0.78418928  1  0  0.134255  0  0.896532  0  0  0.143902  0  0.950112  0  0  0.147078  0  0.946765  0  0  0.148341  0.141665  0  0.952192  0
H  H16  1  0.04223630  0.73192259  0.66304469  1  0  0.134331  0  0.925933  0  0  0.140687  0  0.984482  0  0  0.145106  0  0.982157  0  0  0.123477  0.137598  0  0.986199  0
H  H17  1  0.45778230  0.23192889  0.33695356  1  0  0.134324  0  0.926069  0  0  0.140722  0  0.984561  0  0  0.145142  0  0.982233  0  0  0.123505  0.137626  0  0.986282  0
H  H18  1  0.95776690  0.26807637  0.33695375  1  0  0.134336  0  0.925948  0  0  0.140688  0  0.984496  0  0  0.145109  0  0.982168  0  0  0.123493  0.137593  0  0.986217  0
H  H19  1  0.54222579  0.76807371  0.66304431  1  0  0.134331  0  0.925981  0  0  0.140696  0  0.984516  0  0  0.145116  0  0.982189  0  0  0.123488  0.137599  0  0.986245  0
H  H20  1  0.95329042  0.71723677  0.47207512  1  0  0.113311  0  0.930369  0  0  0.124215  0  0.989827  0  0  0.128086  0  0.986035  0  0  0.115823  0.121365  0  0.992515  0
H  H21  1  0.54672180  0.21723725  0.52792316  1  0  0.113286  0  0.930344  0  0  0.124184  0  0.989837  0  0  0.128047  0  0.986057  0  0  0.115773  0.121349  0  0.992481  0
H  H22  1  0.04671399  0.28276674  0.52792414  1  0  0.113271  0  0.93031  0  0  0.124175  0  0.989794  0  0  0.128043  0  0.986  0  0  0.115792  0.121333  0  0.992461  0
H  H23  1  0.45328506  0.78276444  0.47207773  1  0  0.113278  0  0.930381  0  0  0.124184  0  0.989856  0  0  0.128051  0  0.986065  0  0  0.1158  0.12135  0  0.992509  0
H  H24  1  0.64268761  0.41729799  0.54915192  1  0  0.125598  0  0.934502  0  0  0.130809  0  1.001402  0  0  0.134882  0  0.996239  0  0  0.138133  0.127892  0  1.004853  0
H  H25  1  0.85731254  0.91729665  0.45084436  1  0  0.125678  0  0.934465  0  0  0.130881  0  1.001372  0  0  0.134952  0  0.996212  0  0  0.138186  0.127965  0  1.00483  0
H  H26  1  0.35731559  0.58270460  0.45084345  1  0  0.125575  0  0.934564  0  0  0.130827  0  1.001463  0  0  0.134895  0  0.996309  0  0  0.138144  0.127912  0  1.004909  0
H  H27  1  0.14268575  0.08270412  0.54915618  1  0  0.125637  0  0.934483  0  0  0.130841  0  1.001418  0  0  0.134914  0  0.996255  0  0  0.138149  0.127928  0  1.00487  0
C  C28  1  0.89272832  0.58302861  0.70240931  1  0  0.064652  0  3.511005  0  0  0.019402  0  3.771848  0  0  0.030478  0  3.779729  0  0  0.069432  0.012187  0  3.766746  0
C  C29  1  0.60727034  0.08302486  0.29758891  1  0  0.064781  0  3.510847  0  0  0.019536  0  3.771665  0  0  0.030605  0  3.779556  0  0  0.069462  0.012316  0  3.766565  0
C  C30  1  0.10726999  0.41697490  0.29758739  1  0  0.064825  0  3.51095  0  0  0.019585  0  3.77175  0  0  0.030641  0  3.779662  0  0  0.06946  0.012372  0  3.766654  0
C  C31  1  0.39272674  0.91697136  0.70240928  1  0  0.064686  0  3.511154  0  0  0.019432  0  3.771992  0  0  0.030512  0  3.779864  0  0  0.06943  0.012228  0  3.766889  0
C  C32  1  0.95498671  0.66391501  0.63300383  1  0  -0.069019  0  3.690252  0  0  -0.082114  0  3.954424  0  0  -0.088088  0  3.970561  0  0  -0.061639  -0.078574  0  3.943368  0
C  C33  1  0.54501324  0.16391086  0.36699338  1  0  -0.069156  0  3.690448  0  0  -0.082279  0  3.954603  0  0  -0.088251  0  3.970734  0  0  -0.061738  -0.078738  0  3.943547  0
C  C34  1  0.04501160  0.33608850  0.36699288  1  0  -0.069158  0  3.690254  0  0  -0.082249  0  3.954431  0  0  -0.088221  0  3.97056  0  0  -0.061738  -0.078705  0  3.943376  0
C  C35  1  0.45498873  0.83608810  0.63300501  1  0  -0.069088  0  3.690375  0  0  -0.082187  0  3.954527  0  0  -0.088163  0  3.970664  0  0  -0.061687  -0.078643  0  3.943482  0
C  C36  1  0.90509523  0.65607931  0.52875615  1  0  -0.034557  0  3.684515  0  0  -0.072172  0  3.94257  0  0  -0.066202  0  3.958518  0  0  -0.064302  -0.075372  0  3.931114  0
C  C37  1  0.59490838  0.15607920  0.47124047  1  0  -0.034436  0  3.684502  0  0  -0.072025  0  3.942556  0  0  -0.06605  0  3.958497  0  0  -0.064198  -0.075224  0  3.931104  0
C  C38  1  0.09490919  0.34392329  0.47124080  1  0  -0.034456  0  3.684383  0  0  -0.072026  0  3.94245  0  0  -0.066045  0  3.958388  0  0  -0.064223  -0.075229  0  3.930996  0
C  C39  1  0.40509603  0.84392157  0.52875879  1  0  -0.034495  0  3.684535  0  0  -0.072087  0  3.942583  0  0  -0.066113  0  3.958528  0  0  -0.064236  -0.075285  0  3.93113  0
C  C40  1  0.79103400  0.56677203  0.49661072  1  0  -0.088558  0  3.771748  0  0  -0.060182  0  4.005207  0  0  -0.071634  0  4.027771  0  0  -0.006963  -0.052833  0  3.989417  0
C  C41  1  0.70897199  0.06677548  0.50338249  1  0  -0.088609  0  3.771707  0  0  -0.060278  0  4.005296  0  0  -0.071731  0  4.027858  0  0  -0.006994  -0.052925  0  3.98951  0
C  C42  1  0.20897655  0.43322692  0.50338034  1  0  -0.088604  0  3.771604  0  0  -0.060298  0  4.005312  0  0  -0.071755  0  4.027871  0  0  -0.006986  -0.052946  0  3.989508  0
C  C43  1  0.29103242  0.93322530  0.49661677  1  0  -0.088504  0  3.771597  0  0  -0.06016  0  4.005183  0  0  -0.071611  0  4.027746  0  0  -0.006984  -0.052805  0  3.989381  0
C  C44  1  0.73177096  0.48774412  0.56866688  1  0  0.036012  0  3.556917  0  0  -0.014497  0  3.810331  0  0  -0.003867  0  3.819351  0  0  0.061241  -0.020943  0  3.803857  0
C  C45  1  0.76822679  0.98773918  0.43133365  1  0  0.035973  0  3.556972  0  0  -0.014583  0  3.810525  0  0  -0.003949  0  3.819536  0  0  0.061177  -0.021037  0  3.804061  0
C  C46  1  0.26823225  0.51226212  0.43132849  1  0  0.036209  0  3.556839  0  0  -0.014459  0  3.810513  0  0  -0.003814  0  3.819505  0  0  0.061241  -0.020905  0  3.804037  0
C  C47  1  0.23177027  0.01225795  0.56866915  1  0  0.036053  0  3.55688  0  0  -0.01454  0  3.810457  0  0  -0.003908  0  3.81947  0  0  0.061288  -0.020994  0  3.803995  0
C  C48  1  0.72323253  0.55469797  0.38734399  1  0  0.643935  0  3.958638  0  0  0.597268  0  4.247213  0  0  0.629718  0  4.248933  0  0  0.200012  0.574628  0  4.250761  0
C  C49  1  0.77677468  0.05469907  0.61265084  1  0  0.643954  0  3.95841  0  0  0.597269  0  4.247102  0  0  0.629716  0  4.248834  0  0  0.200094  0.574629  0  4.250643  0
C  C50  1  0.27677435  0.44530372  0.61264845  1  0  0.643891  0  3.958394  0  0  0.59721  0  4.247117  0  0  0.629661  0  4.248839  0  0  0.200009  0.574585  0  4.250613  0
C  C51  1  0.22323340  0.94529441  0.38735164  1  0  0.643943  0  3.958437  0  0  0.597283  0  4.247034  0  0  0.629732  0  4.248766  0  0  0.199985  0.574665  0  4.250542  0
C  C52  1  0.72899610  0.70028810  0.00902172  1  0  0.235809  0  3.834596  0  0  0.216621  0  4.107568  0  0  0.229685  0  4.122453  0  0  0.122148  0.208024  0  4.099006  0
C  C53  1  0.77099407  0.20028631  0.99097956  1  0  0.23594  0  3.834513  0  0  0.216719  0  4.107501  0  0  0.229783  0  4.122397  0  0  0.122221  0.208111  0  4.098951  0
C  C54  1  0.27098871  0.29971268  0.99098441  1  0  0.235979  0  3.834433  0  0  0.216741  0  4.107446  0  0  0.2298  0  4.122331  0  0  0.122185  0.208136  0  4.098891  0
C  C55  1  0.22900544  0.79971173  0.00902180  1  0  0.236046  0  3.834546  0  0  0.216798  0  4.107564  0  0  0.229864  0  4.122453  0  0  0.122276  0.20819  0  4.099017  0
C  C56  1  0.80261020  0.82165587  0.99590060  1  0  0.235877  0  3.862327  0  0  0.216411  0  4.138367  0  0  0.230171  0  4.152456  0  0  0.12079  0.207189  0  4.131514  0
C  C57  1  0.69738007  0.32165552  0.00410101  1  0  0.235719  0  3.862405  0  0  0.216286  0  4.138459  0  0  0.230044  0  4.152547  0  0  0.120769  0.207061  0  4.131603  0
C  C58  1  0.19738440  0.17834946  0.00410671  1  0  0.235635  0  3.862517  0  0  0.216246  0  4.138467  0  0  0.230005  0  4.152554  0  0  0.120799  0.207025  0  4.131624  0
C  C59  1  0.30261577  0.67834798  0.99590097  1  0  0.235598  0  3.862149  0  0  0.216157  0  4.138269  0  0  0.229917  0  4.15235  0  0  0.120733  0.20694  0  4.131417  0
C  C60  1  0.74571815  0.82125144  0.88619261  1  0  0.200364  0  3.889942  0  0  0.179803  0  4.168052  0  0  0.191868  0  4.185216  0  0  0.103722  0.171505  0  4.158865  0
C  C61  1  0.75426722  0.32124965  0.11381187  1  0  0.200481  0  3.889942  0  0  0.179829  0  4.16816  0  0  0.191897  0  4.185323  0  0  0.103726  0.17155  0  4.158944  0
C  C62  1  0.25428013  0.17875025  0.11381101  1  0  0.20065  0  3.889765  0  0  0.180072  0  4.167855  0  0  0.19214  0  4.185013  0  0  0.103818  0.171767  0  4.158671  0
C  C63  1  0.24572495  0.67874930  0.88619150  1  0  0.200751  0  3.889489  0  0  0.180035  0  4.167809  0  0  0.192106  0  4.184965  0  0  0.103828  0.171732  0  4.158615  0
C  C64  1  0.67172802  0.70010985  0.89855241  1  0  0.217326  0  3.849181  0  0  0.198221  0  4.129998  0  0  0.210698  0  4.145537  0  0  0.111673  0.190254  0  4.120475  0
C  C65  1  0.82826093  0.20010726  0.10145036  1  0  0.217046  0  3.849579  0  0  0.197995  0  4.130389  0  0  0.21046  0  4.145952  0  0  0.111582  0.190032  0  4.120854  0
C  C66  1  0.32826294  0.29989093  0.10144707  1  0  0.217239  0  3.849246  0  0  0.198128  0  4.130093  0  0  0.210609  0  4.145621  0  0  0.111646  0.190171  0  4.120559  0
C  C67  1  0.17173613  0.79989078  0.89855397  1  0  0.21708  0  3.849381  0  0  0.198085  0  4.130159  0  0  0.210554  0  4.14571  0  0  0.111627  0.190128  0  4.120634  0
N  N68  1  0.78203141  0.49680122  0.66945095  1  0  0.27257  0  3.700647  0  0  0.326474  0  3.965006  0  0  0.324351  0  3.987451  0  0  -0.11123  0.327  0  3.952094  0
N  N69  1  0.71796634  0.99679494  0.33055108  1  0  0.272608  0  3.700567  0  0  0.326569  0  3.964888  0  0  0.324449  0  3.987331  0  0  -0.111159  0.327092  0  3.951988  0
N  N70  1  0.21796690  0.50320685  0.33054575  1  0  0.272395  0  3.700573  0  0  0.32638  0  3.964929  0  0  0.32426  0  3.987365  0  0  -0.111196  0.326896  0  3.952039  0
N  N71  1  0.28203071  0.00320037  0.66945326  1  0  0.272536  0  3.70081  0  0  0.326493  0  3.96515  0  0  0.324371  0  3.987594  0  0  -0.111213  0.327008  0  3.952263  0
O  O72  1  0.72312505  0.41949510  0.73661971  1  0  -0.625638  0  1.841184  0  0  -0.583774  0  2.079828  0  0  -0.614177  0  2.075148  0  0  -0.279445  -0.568479  0  2.081529  0
O  O73  1  0.77688608  0.91948830  0.26338776  1  0  -0.625636  0  1.84116  0  0  -0.583821  0  2.079842  0  0  -0.614235  0  2.075155  0  0  -0.27947  -0.568527  0  2.081535  0
O  O74  1  0.27687326  0.58050841  0.26337469  1  0  -0.625573  0  1.841219  0  0  -0.583704  0  2.079842  0  0  -0.614105  0  2.075159  0  0  -0.279451  -0.56842  0  2.08155  0
O  O75  1  0.22311708  0.08049880  0.73662297  1  0  -0.625643  0  1.841297  0  0  -0.583788  0  2.079934  0  0  -0.6142  0  2.075255  0  0  -0.279469  -0.568492  0  2.081638  0
O  O76  1  0.53135748  0.75366984  0.24304963  1  0  -0.95022  0  1.860931  0  0  -0.903045  0  2.05922  0  0  -0.932259  0  2.01869  0  0  -0.661942  -0.889475  0  2.08176  0
O  O77  1  0.96864375  0.25366849  0.75695267  1  0  -0.950243  0  1.860823  0  0  -0.903092  0  2.059159  0  0  -0.932298  0  2.0186  0  0  -0.661951  -0.889529  0  2.081701  0
O  O78  1  0.46864328  0.24632638  0.75694717  1  0  -0.950161  0  1.860903  0  0  -0.90299  0  2.059186  0  0  -0.932202  0  2.018668  0  0  -0.661863  -0.889417  0  2.081737  0
O  O79  1  0.03135454  0.74632591  0.24305018  1  0  -0.950195  0  1.860905  0  0  -0.903015  0  2.059166  0  0  -0.932253  0  2.018647  0  0  -0.661893  -0.889446  0  2.081704  0
O  O80  1  0.79193168  0.60832396  0.31534923  1  0  -0.67218  0  2.047513  0  0  -0.619828  0  2.284833  0  0  -0.65124  0  2.276353  0  0  -0.334788  -0.602344  0  2.290286  0
O  O81  1  0.70807068  0.10832008  0.68464521  1  0  -0.672255  0  2.047419  0  0  -0.619869  0  2.28472  0  0  -0.651292  0  2.276245  0  0  -0.334929  -0.602378  0  2.290153  0
O  O82  1  0.20807887  0.39167682  0.68464490  1  0  -0.67233  0  2.047464  0  0  -0.619853  0  2.284626  0  0  -0.651282  0  2.276172  0  0  -0.334939  -0.602367  0  2.290046  0
O  O83  1  0.29193618  0.89167158  0.31535568  1  0  -0.672281  0  2.047452  0  0  -0.61989  0  2.284722  0  0  -0.651317  0  2.276251  0  0  -0.334887  -0.602413  0  2.290144  0
O  O84  1  0.59230376  0.49267932  0.37062377  1  0  -0.702679  0  1.994295  0  0  -0.65789  0  2.240911  0  0  -0.692263  0  2.232848  0  0  -0.377086  -0.639882  0  2.245521  0
O  O85  1  0.90769525  0.99267435  0.62936757  1  0  -0.702685  0  1.994287  0  0  -0.657825  0  2.240809  0  0  -0.692197  0  2.232747  0  0  -0.377045  -0.639857  0  2.245505  0
O  O86  1  0.40769090  0.50733512  0.62936664  1  0  -0.702625  0  1.994222  0  0  -0.657816  0  2.240827  0  0  -0.692179  0  2.232761  0  0  -0.376987  -0.639845  0  2.245491  0
O  O87  1  0.09230794  0.00731731  0.37063317  1  0  -0.702682  0  1.994199  0  0  -0.657866  0  2.240803  0  0  -0.692252  0  2.232741  0  0  -0.377031  -0.63987  0  2.245397  0
O  O88  1  0.72309934  0.62963028  0.08474069  1  0  -0.60363  0  2.181849  0  0  -0.555768  0  2.433183  0  0  -0.587834  0  2.423489  0  0  -0.402472  -0.540831  0  2.436247  0
O  O89  1  0.77688955  0.12962890  0.91526464  1  0  -0.603724  0  2.181711  0  0  -0.555845  0  2.433086  0  0  -0.587912  0  2.423378  0  0  -0.402523  -0.540907  0  2.436155  0
O  O90  1  0.27689405  0.37037231  0.91526503  1  0  -0.603764  0  2.181502  0  0  -0.555894  0  2.432879  0  0  -0.58796  0  2.423185  0  0  -0.402494  -0.540945  0  2.435946  0
O  O91  1  0.22310872  0.87036368  0.08474282  1  0  -0.603769  0  2.181736  0  0  -0.555866  0  2.433124  0  0  -0.587949  0  2.423422  0  0  -0.40257  -0.540927  0  2.43619  0
O  O92  1  0.88144016  0.89619429  0.05263440  1  0  -0.61554  0  2.220789  0  0  -0.572528  0  2.48488  0  0  -0.605112  0  2.475767  0  0  -0.384513  -0.558524  0  2.489541  0
O  O93  1  0.61856242  0.39619263  0.94736436  1  0  -0.615474  0  2.220926  0  0  -0.572475  0  2.484984  0  0  -0.605039  0  2.475879  0  0  -0.38453  -0.558469  0  2.489667  0
O  O94  1  0.11856670  0.10380648  0.94736496  1  0  -0.61549  0  2.220681  0  0  -0.572539  0  2.484795  0  0  -0.605116  0  2.475689  0  0  -0.384568  -0.558533  0  2.489467  0
O  O95  1  0.38144440  0.60381634  0.05264728  1  0  -0.615468  0  2.220813  0  0  -0.572455  0  2.484908  0  0  -0.605029  0  2.475811  0  0  -0.384573  -0.55844  0  2.489568  0
O  O96  1  0.75612768  0.89318896  0.81152054  1  0  -0.581943  0  2.156805  0  0  -0.539088  0  2.408636  0  0  -0.570169  0  2.405183  0  0  -0.370369  -0.52362  0  2.409144  0
O  O97  1  0.74386386  0.39318313  0.18848316  1  0  -0.581937  0  2.156914  0  0  -0.539048  0  2.408774  0  0  -0.570122  0  2.405329  0  0  -0.370379  -0.523599  0  2.409295  0
O  O98  1  0.24387671  0.10681546  0.18848333  1  0  -0.582003  0  2.156687  0  0  -0.539134  0  2.40852  0  0  -0.570213  0  2.40504  0  0  -0.370415  -0.523685  0  2.409051  0
O  O99  1  0.25613077  0.60681855  0.81151647  1  0  -0.582054  0  2.156727  0  0  -0.539154  0  2.408621  0  0  -0.570229  0  2.405173  0  0  -0.370454  -0.523691  0  2.409159  0
O  O100  1  0.59464445  0.62984795  0.83602200  1  0  -0.620329  0  2.193466  0  0  -0.577654  0  2.460374  0  0  -0.610086  0  2.452704  0  0  -0.393342  -0.562279  0  2.462182  0
O  O101  1  0.90534077  0.12985421  0.16398317  1  0  -0.620202  0  2.193749  0  0  -0.577487  0  2.460557  0  0  -0.60993  0  2.45289  0  0  -0.393258  -0.562123  0  2.46235  0
O  O102  1  0.40535018  0.37015373  0.16397839  1  0  -0.620342  0  2.193486  0  0  -0.577672  0  2.460409  0  0  -0.610107  0  2.452737  0  0  -0.393337  -0.562302  0  2.462203  0
O  O103  1  0.09464896  0.87014566  0.83601702  1  0  -0.620293  0  2.193623  0  0  -0.577604  0  2.460424  0  0  -0.610038  0  2.452754  0  0  -0.393307  -0.562237  0  2.462228  0
