# generated using pymatgen
data_CuH12C16(NO3)2
_symmetry_space_group_name_H-M   'P 1'
_cell_length_a   8.67762163
_cell_length_b   8.60920761
_cell_length_c   11.94212611
_cell_angle_alpha   89.56644130
_cell_angle_beta   72.22485021
_cell_angle_gamma   69.12117094
_symmetry_Int_Tables_number   1
_chemical_formula_structural   CuH12C16(NO3)2
_chemical_formula_sum   'Cu2 H24 C32 N4 O12'
_cell_volume   788.63425039
_cell_formula_units_Z   2
loop_
 _symmetry_equiv_pos_site_id
 _symmetry_equiv_pos_as_xyz
  1  'x, y, z'
loop_
 _atom_site_type_symbol
 _atom_site_label
 _atom_site_symmetry_multiplicity
 _atom_site_fract_x
 _atom_site_fract_y
 _atom_site_fract_z
 _atom_site_occupancy
 _atom_site_hle17_ddec_charge
 _atom_site_hle17_ddec_spin_density
 _atom_site_hle17_ddec_sum_bond_order
 _atom_site_hle17_magmom
 _atom_site_hse06_10hf_ddec_charge
 _atom_site_hse06_10hf_ddec_spin_density
 _atom_site_hse06_10hf_ddec_sum_bond_order
 _atom_site_hse06_10hf_magmom
 _atom_site_hse06_ddec_charge
 _atom_site_hse06_ddec_spin_density
 _atom_site_hse06_ddec_sum_bond_order
 _atom_site_hse06_magmom
 _atom_site_pbe_cm5_charge
 _atom_site_pbe_ddec_charge
 _atom_site_pbe_ddec_spin_density
 _atom_site_pbe_ddec_sum_bond_order
 _atom_site_pbe_magmom
Cu  Cu0  1  0.11138544  0.01525593  0.29682783  1  0.885789  0.754084  1.848145  0.536  0.864215  0.830957  2.242397  0.652  0.95076  0.902079  2.173672  0.737  0.750796  0.81134  0.775776  2.289129  0.593
Cu  Cu1  1  0.88861108  0.98474692  0.70317791  1  0.886011  -0.75411  1.84792  -0.536  0.864344  -0.830954  2.24221  -0.652  0.950947  -0.902082  2.173451  -0.737  0.75086  0.811472  -0.775777  2.288958  -0.593
H  H2  1  0.12237128  0.54075036  0.52476527  1  0.13036  0.000115  0.943392  0.0  0.144056  4.4e-05  0.997097  0.0  0.147375  3.1e-05  0.99483  0.0  0.112567  0.141764  6e-05  0.998666  0.0
H  H3  1  0.87764012  0.45923894  0.47522373  1  0.130331  -0.000115  0.943512  0.0  0.144059  -4.4e-05  0.997179  0.0  0.147336  -3.1e-05  0.994966  0.0  0.11253  0.141769  -6e-05  0.998753  0.0
H  H4  1  0.34046725  0.22689707  0.54863098  1  0.149445  7e-06  0.946552  0.0  0.158068  4.7e-05  1.003467  0.0  0.162456  3.6e-05  1.000213  0.0  0.114534  0.154943  5.3e-05  1.005743  0.0
H  H5  1  0.65953872  0.77309333  0.45135510  1  0.149436  -7e-06  0.946414  0.0  0.158032  -4.7e-05  1.003361  0.0  0.16243  -3.6e-05  1.000111  0.0  0.11451  0.154907  -5.3e-05  1.005646  0.0
H  H6  1  0.01067503  0.74356838  0.22701282  1  0.100234  0.001724  0.909299  0.003  0.110041  0.001418  0.965015  0.002  0.112212  0.001012  0.962789  0.002  0.129468  0.107854  0.001757  0.967311  0.002
H  H7  1  0.98930429  0.25644664  0.77299431  1  0.100285  -0.001724  0.909178  -0.003  0.110086  -0.001418  0.964915  -0.002  0.11227  -0.001012  0.962675  -0.002  0.129498  0.107894  -0.001757  0.967205  -0.002
H  H8  1  0.04376426  0.59995336  0.03373380  1  0.099528  0.00054  0.95225  0.001  0.112507  0.000522  1.00479  0.001  0.114787  0.000363  1.005385  0.0  0.108123  0.110792  0.000653  1.004652  0.001
H  H9  1  0.95621264  0.40005273  0.96627234  1  0.09958  -0.00054  0.952239  -0.001  0.112565  -0.000522  1.004763  -0.001  0.114845  -0.000363  1.005355  0.0  0.108149  0.110844  -0.000653  1.004627  -0.001
H  H10  1  0.19474187  0.69320623  0.84262525  1  0.128895  0.000284  0.933284  0.001  0.13563  -1.2e-05  0.993486  0.0  0.140133  -1.8e-05  0.988703  0.0  0.117018  0.131998  -2e-06  0.997314  0.0
H  H11  1  0.80524491  0.30679633  0.15737693  1  0.128974  -0.000284  0.933268  -0.001  0.135725  1.2e-05  0.993452  0.0  0.140227  1.8e-05  0.988674  0.0  0.117036  0.132091  2e-06  0.997287  0.0
H  H12  1  0.29689490  0.92382758  0.85479893  1  0.117107  0.000822  0.933049  0.001  0.128154  0.000709  0.989147  0.001  0.13053  0.000486  0.989047  0.001  0.115813  0.126157  0.000902  0.989621  0.001
H  H13  1  0.70309434  0.07617506  0.14520518  1  0.117279  -0.000822  0.933062  -0.001  0.128294  -0.000709  0.989164  -0.001  0.130674  -0.000486  0.989059  -0.001  0.115881  0.126301  -0.000902  0.98964  -0.001
H  H14  1  0.36619327  0.13807810  0.88190011  1  0.127691  0.000577  0.929185  0.001  0.139707  0.000481  0.983063  0.001  0.142978  0.000327  0.981747  0.0  0.118277  0.137075  0.000612  0.984457  0.001
H  H15  1  0.63379715  0.86192457  0.11810289  1  0.12765  -0.000578  0.929204  -0.001  0.139678  -0.000481  0.983092  -0.001  0.142947  -0.000327  0.981776  0.0  0.118267  0.137046  -0.000612  0.984483  -0.001
H  H16  1  0.43592959  0.37187080  0.93416314  1  0.112917  0.000149  0.957047  0.0  0.124621  -3.1e-05  1.013663  0.0  0.127711  -3.8e-05  1.010987  0.0  0.10968  0.122191  -1.6e-05  1.015833  0.0
H  H17  1  0.56406024  0.62814196  0.06583819  1  0.11287  -0.000148  0.957116  0.0  0.124577  3.1e-05  1.013735  0.0  0.127664  3.8e-05  1.011061  0.0  0.109646  0.122147  1.6e-05  1.015907  0.0
H  H18  1  0.36912185  0.46483915  0.15167049  1  0.106043  0.000336  0.958736  0.0  0.114235  0.000326  1.021407  0.0  0.116844  0.000235  1.021367  0.0  0.107602  0.112132  0.000399  1.021818  0.0
H  H19  1  0.63086850  0.53516986  0.84833663  1  0.106058  -0.000336  0.958839  0.0  0.114293  -0.000326  1.021462  0.0  0.11689  -0.000235  1.021435  0.0  0.107615  0.112185  -0.000399  1.021866  0.0
H  H20  1  0.22999505  0.30942219  0.30459272  1  0.089017  0.000958  0.970071  0.002  0.095257  0.000741  1.03744  0.002  0.096778  0.000487  1.036898  0.001  0.11729  0.093676  0.000965  1.0383  0.002
H  H21  1  0.77001189  0.69056703  0.69540906  1  0.08901  -0.000957  0.970157  -0.002  0.095274  -0.000741  1.037476  -0.002  0.096798  -0.000487  1.036937  -0.001  0.117297  0.093693  -0.000965  1.038339  -0.002
H  H22  1  0.99163563  0.17593529  0.49832755  1  0.417854  -0.00026  0.890386  -0.001  0.389755  0.000378  0.953809  0.0  0.402338  0.000255  0.93607  0.0  0.289798  0.38071  0.000444  0.966593  0.0
H  H23  1  0.00837126  0.82405141  0.50167846  1  0.417822  0.00026  0.890332  0.001  0.389755  -0.000378  0.953791  0.0  0.402335  -0.000256  0.936056  0.0  0.289815  0.380709  -0.000444  0.966574  0.0
H  H24  1  0.18907629  0.06787349  0.47935144  1  0.426945  -0.000233  0.88282  -0.001  0.396366  0.00039  0.947529  0.0  0.409148  0.000243  0.929547  0.0  0.288451  0.387292  0.000491  0.960288  0.0
H  H25  1  0.81093515  0.93212216  0.52064584  1  0.426717  0.000233  0.883102  0.001  0.39619  -0.00039  0.947761  0.0  0.408974  -0.000243  0.929776  0.0  0.288375  0.387116  -0.000491  0.960518  0.0
C  C26  1  0.32218402  0.69552902  0.33275942  1  0.593727  -0.001833  3.994362  -0.005  0.547567  0.000218  4.303989  -0.002  0.582759  -8.6e-05  4.296539  -0.001  0.19187  0.523476  0.000514  4.308113  -0.002
C  C27  1  0.67782285  0.30446905  0.66724058  1  0.593603  0.001832  3.994305  0.005  0.54749  -0.000217  4.303879  0.002  0.582683  8.4e-05  4.296434  0.001  0.191879  0.523402  -0.000514  4.307966  0.002
C  C28  1  0.35968828  0.53796335  0.38768591  1  0.06532  0.007648  3.692608  0.008  0.058279  0.003851  3.962257  0.004  0.058937  0.002751  3.976837  0.003  0.057726  0.058164  0.004773  3.95192  0.005
C  C29  1  0.64031929  0.46202965  0.61230813  1  0.065345  -0.007645  3.692615  -0.008  0.058195  -0.003849  3.962379  -0.004  0.058855  -0.002751  3.976942  -0.003  0.057683  0.058091  -0.004773  3.952026  -0.005
C  C30  1  0.25943869  0.47589084  0.47547894  1  -0.136896  -0.001955  3.716757  -0.002  -0.169161  -0.000435  3.980682  -0.001  -0.16797  -0.00047  3.994247  -0.001  -0.103737  -0.169744  -0.00039  3.970972  0.0
C  C31  1  0.74057453  0.52409726  0.52451383  1  -0.137026  0.001954  3.716827  0.002  -0.16929  0.000433  3.980759  0.001  -0.168058  0.000471  3.994334  0.001  -0.103785  -0.169889  0.00039  3.971068  0.0
C  C32  1  0.37114348  0.31544745  0.48924576  1  -0.12699  0.000868  3.694907  0.001  -0.158739  0.000264  3.958657  0.0  -0.15985  0.000228  3.973611  0.0  -0.09906  -0.157529  0.000339  3.948137  0.0
C  C33  1  0.62886961  0.68454062  0.51074202  1  -0.126787  -0.000866  3.694604  -0.001  -0.158464  -0.000265  3.958323  0.0  -0.159586  -0.000227  3.973286  0.0  -0.098916  -0.157249  -0.000339  3.947814  0.0
C  C34  1  0.53374319  0.28862518  0.40970784  1  0.080592  0.001068  3.654616  0.001  0.071838  0.000852  3.924239  0.001  0.0729  0.000309  3.939442  0.0  0.062532  0.070948  0.001466  3.913838  0.002
C  C35  1  0.46626997  0.71137176  0.59028315  1  0.080387  -0.00107  3.654676  -0.001  0.071566  -0.000851  3.924392  -0.001  0.072604  -0.000309  3.939623  0.0  0.062449  0.070671  -0.001465  3.913999  -0.002
C  C36  1  0.70488357  0.15102805  0.39143559  1  0.609667  -0.000879  4.00787  -0.002  0.563159  -5.9e-05  4.314369  0.0  0.598215  -0.000143  4.30578  0.0  0.194966  0.539343  4.2e-05  4.318391  -0.001
C  C37  1  0.29513416  0.84897534  0.60855340  1  0.609763  0.000879  4.008148  0.002  0.563237  5.9e-05  4.314664  0.0  0.598304  0.000142  4.306078  0.0  0.195037  0.539427  -4.2e-05  4.318689  0.001
C  C38  1  0.07251847  0.77879530  0.14194826  1  0.135189  -0.009169  3.685982  -0.01  0.105051  -0.001424  3.94426  -0.003  0.115016  -0.00248  3.9619  -0.004  0.055694  0.098239  -0.000656  3.933532  -0.002
C  C39  1  0.92746458  0.22121349  0.85805640  1  0.135173  0.009168  3.68605  0.01  0.105021  0.001423  3.944356  0.003  0.114973  0.00248  3.961997  0.004  0.055668  0.098204  0.000655  3.933604  0.002
C  C40  1  0.09232565  0.70019353  0.03422467  1  -0.119091  0.011252  3.743279  0.012  -0.129437  0.00449  3.994176  0.005  -0.137302  0.004047  4.01614  0.005  -0.078816  -0.124298  0.004889  3.979766  0.006
C  C41  1  0.90765672  0.29981398  0.96578016  1  -0.119081  -0.011252  3.743357  -0.012  -0.129423  -0.004491  3.994252  -0.005  -0.137286  -0.004047  4.016217  -0.005  -0.078789  -0.124279  -0.004889  3.979833  -0.006
C  C42  1  0.17567989  0.75080275  0.92925508  1  0.010589  -0.010077  3.662449  -0.01  -0.011516  -0.003134  3.917026  -0.003  -0.006132  -0.003268  3.931317  -0.003  -0.060728  -0.015507  -0.003136  3.90822  -0.003
C  C43  1  0.82430631  0.24919854  0.07075060  1  0.01051  0.010076  3.662595  0.01  -0.011625  0.003134  3.917164  0.003  -0.00624  0.003268  3.931453  0.003  -0.060742  -0.015605  0.003136  3.908343  0.003
C  C44  1  0.23319556  0.88127756  0.93569526  1  -0.123737  0.008841  3.673856  0.009  -0.143648  0.003229  3.925715  0.003  -0.150417  0.003008  3.946892  0.003  -0.070349  -0.139306  0.003485  3.912047  0.004
C  C45  1  0.76679530  0.11872134  0.06431103  1  -0.123961  -0.00884  3.674182  -0.009  -0.14381  -0.003228  3.926035  -0.003  -0.15058  -0.003008  3.947204  -0.003  -0.070466  -0.139467  -0.003484  3.912376  -0.004
C  C46  1  0.20804708  0.95672712  0.04638718  1  0.168582  -0.005283  3.763256  -0.006  0.164142  -3.3e-05  4.008932  -0.001  0.171961  -0.001157  4.030246  -0.002  0.119432  0.159014  0.000769  3.994909  0.0
C  C47  1  0.79194714  0.04327819  0.95361655  1  0.168607  0.005284  3.763378  0.006  0.164106  3.3e-05  4.009105  0.001  0.17193  0.001156  4.030419  0.002  0.119405  0.158964  -0.00077  3.995096  0.0
C  C48  1  0.25848398  0.09817241  0.06530977  1  0.163513  -0.001411  3.775974  -0.001  0.161653  0.000624  4.022591  0.0  0.169667  -0.000125  4.043282  0.0  0.117935  0.156266  0.001125  4.009058  0.001
C  C49  1  0.74151860  0.90182427  0.93469043  1  0.163382  0.001405  3.776038  0.001  0.161559  -0.000624  4.022692  0.0  0.16957  0.000125  4.043391  0.0  0.117942  0.156166  -0.001125  4.009185  -0.001
C  C50  1  0.33515137  0.17803645  0.97505758  1  -0.133356  0.003651  3.677245  0.004  -0.154208  0.001696  3.927462  0.002  -0.161169  0.00154  3.946805  0.002  -0.076383  -0.149699  0.001866  3.914968  0.002
C  C51  1  0.66484182  0.82197136  0.02494637  1  -0.133314  -0.003645  3.67735  -0.004  -0.154199  -0.001696  3.927595  -0.002  -0.161158  -0.001541  3.946938  -0.002  -0.076387  -0.149683  -0.001866  3.915104  -0.002
C  C52  1  0.37532151  0.31143254  0.00544026  1  -0.0047  -0.005474  3.70829  -0.005  -0.024807  -0.002212  3.958957  -0.002  -0.019518  -0.002151  3.975008  -0.002  -0.068551  -0.02855  -0.002388  3.948568  -0.002
C  C53  1  0.62466826  0.68857771  0.99456447  1  -0.004516  0.005468  3.708389  0.005  -0.024606  0.002213  3.959047  0.002  -0.019312  0.002151  3.975089  0.002  -0.068451  -0.02835  0.002389  3.948663  0.002
C  C54  1  0.33841005  0.36191956  0.12452116  1  -0.121683  0.006293  3.731969  0.007  -0.134118  0.00301  3.983197  0.004  -0.141873  0.002587  4.004851  0.003  -0.082156  -0.129271  0.003375  3.969463  0.004
C  C55  1  0.66158140  0.63808947  0.87548234  1  -0.121789  -0.006285  3.732154  -0.007  -0.134292  -0.003012  3.983405  -0.004  -0.142036  -0.002588  4.005061  -0.003  -0.082212  -0.129436  -0.003375  3.969663  -0.004
C  C56  1  0.26164889  0.27710739  0.21003703  1  0.141152  -0.005147  3.675384  -0.006  0.115712  -0.001089  3.922068  -0.002  0.12475  -0.001713  3.940472  -0.003  0.052574  0.109302  -0.000628  3.911275  -0.002
C  C57  1  0.73835608  0.72288935  0.78996260  1  0.140975  0.00514  3.675415  0.006  0.115568  0.001089  3.922084  0.002  0.124602  0.001713  3.940494  0.003  0.052536  0.109163  0.000627  3.911293  0.002
N  N58  1  0.13060315  0.90238903  0.14705286  1  -0.313544  0.093237  3.351472  0.115  -0.272031  0.062486  3.644466  0.082  -0.303878  0.050622  3.66703  0.07  -0.341025  -0.253262  0.069752  3.631437  0.089
N  N59  1  0.86938868  0.09761621  0.85295144  1  -0.313681  -0.093232  3.351682  -0.115  -0.272114  -0.062486  3.644667  -0.082  -0.303979  -0.050621  3.667251  -0.07  -0.341061  -0.253317  -0.069752  3.631611  -0.089
N  N60  1  0.22320764  0.14879951  0.18055512  1  -0.317621  0.060314  3.285199  0.076  -0.276615  0.043074  3.573992  0.058  -0.30319  0.035089  3.590274  0.05  -0.336243  -0.261328  0.04761  3.565477  0.062
N  N61  1  0.77680200  0.85119484  0.81944512  1  -0.317391  -0.060318  3.285175  -0.076  -0.276427  -0.043081  3.573977  -0.058  -0.303021  -0.035094  3.590284  -0.05  -0.336212  -0.261143  -0.047613  3.56548  -0.062
O  O62  1  0.15932829  0.79947217  0.37391277  1  -0.644535  0.06835  2.123432  0.091  -0.60193  0.040903  2.395654  0.06  -0.642367  0.030699  2.385009  0.048  -0.333388  -0.57449  0.047046  2.402811  0.066
O  O63  1  0.84067851  0.20052338  0.62609063  1  -0.64456  -0.068355  2.123347  -0.091  -0.601926  -0.040907  2.395547  -0.06  -0.642375  -0.030701  2.384914  -0.048  -0.333386  -0.574492  -0.047054  2.402701  -0.066
O  O64  1  0.43820470  0.72151466  0.25245976  1  -0.583427  0.00028  1.930578  0.001  -0.560111  -8.7e-05  2.166047  0.001  -0.580753  -0.000661  2.15469  0.0  -0.322375  -0.54473  0.000574  2.173129  0.002
O  O65  1  0.56180598  0.27846833  0.74753954  1  -0.583405  -0.000277  1.930572  -0.001  -0.560087  8.8e-05  2.166003  -0.001  -0.58074  0.000663  2.154669  0.0  -0.322441  -0.544709  -0.000573  2.173064  -0.002
O  O66  1  0.52809330  0.42385535  0.34688725  1  -0.190134  0.00073  2.425182  0.001  -0.122224  0.000547  2.645827  0.001  -0.138118  0.000388  2.655059  0.001  -0.11618  -0.111194  0.000671  2.639077  0.001
O  O67  1  0.47191648  0.57614404  0.65310619  1  -0.19  -0.00073  2.425009  -0.001  -0.122029  -0.000547  2.645682  -0.001  -0.137918  -0.000388  2.654919  -0.001  -0.116126  -0.111  -0.000671  2.638924  -0.001
O  O68  1  0.69896928  0.02511367  0.44568506  1  -0.618883  -0.001959  1.994924  -0.002  -0.568656  -0.000848  2.217603  -0.001  -0.593515  -0.000567  2.206128  -0.001  -0.322199  -0.550456  -0.00126  2.224395  -0.002
O  O69  1  0.30105743  0.97488236  0.55429856  1  -0.618952  0.00196  1.994841  0.002  -0.568668  0.000847  2.217499  0.001  -0.593527  0.000569  2.206014  0.001  -0.322234  -0.550468  0.001261  2.224288  0.002
O  O70  1  0.84017476  0.17309955  0.32532965  1  -0.635713  0.020776  2.030946  0.028  -0.609304  0.010229  2.305064  0.016  -0.640542  0.005959  2.292453  0.01  -0.34003  -0.585499  0.015243  2.311798  0.022
O  O71  1  0.15984433  0.82691276  0.67466561  1  -0.635719  -0.020755  2.031141  -0.028  -0.609325  -0.010219  2.305336  -0.016  -0.640534  -0.005954  2.292629  -0.01  -0.340017  -0.585513  -0.015232  2.312051  -0.022
O  O72  1  0.10894516  0.13940628  0.43517922  1  -0.789813  0.081244  1.961113  0.104  -0.763495  0.054233  2.186712  0.075  -0.801653  0.041377  2.151991  0.06  -0.580925  -0.737814  0.062637  2.211177  0.083
O  O73  1  0.89105685  0.86058913  0.56482532  1  -0.78962  -0.081236  1.96119  -0.104  -0.763341  -0.054231  2.186682  -0.075  -0.801518  -0.041373  2.151978  -0.06  -0.580853  -0.737662  -0.062635  2.211146  -0.083
