# generated using pymatgen
data_ZnH6C8(NO)6
_symmetry_space_group_name_H-M   'P 1'
_cell_length_a   5.75950745
_cell_length_b   12.21778467
_cell_length_c   17.14111074
_cell_angle_alpha   90.00142944
_cell_angle_beta   89.99959627
_cell_angle_gamma   100.09627231
_symmetry_Int_Tables_number   1
_chemical_formula_structural   ZnH6C8(NO)6
_chemical_formula_sum   'Zn4 H24 C32 N24 O24'
_cell_volume   1187.51451629
_cell_formula_units_Z   4
loop_
 _symmetry_equiv_pos_site_id
 _symmetry_equiv_pos_as_xyz
  1  'x, y, z'
loop_
 _atom_site_type_symbol
 _atom_site_label
 _atom_site_symmetry_multiplicity
 _atom_site_fract_x
 _atom_site_fract_y
 _atom_site_fract_z
 _atom_site_occupancy
 _atom_site_hle17_bader_spin_density
 _atom_site_hle17_ddec_charge
 _atom_site_hle17_ddec_spin_density
 _atom_site_hle17_ddec_sum_bond_order
 _atom_site_hle17_magmom
 _atom_site_hse06_10hf_bader_spin_density
 _atom_site_hse06_10hf_ddec_charge
 _atom_site_hse06_10hf_ddec_spin_density
 _atom_site_hse06_10hf_ddec_sum_bond_order
 _atom_site_hse06_10hf_magmom
 _atom_site_hse06_bader_spin_density
 _atom_site_hse06_ddec_charge
 _atom_site_hse06_ddec_spin_density
 _atom_site_hse06_ddec_sum_bond_order
 _atom_site_hse06_magmom
 _atom_site_pbe_bader_spin_density
 _atom_site_pbe_cm5_charge
 _atom_site_pbe_ddec_charge
 _atom_site_pbe_ddec_spin_density
 _atom_site_pbe_ddec_sum_bond_order
 _atom_site_pbe_magmom
Zn  Zn0  1  0.14483832  0.21405732  0.89537306  1  0  0.950447  0  1.835167  0  0  0.742803  0  2.30827  0  0  0.793128  0  2.252873  0  0  0.711141  0.70786  0  2.346411  0
Zn  Zn1  1  0.35515308  0.28593733  0.39536669  1  0  0.950324  0  1.835107  0  0  0.743041  0  2.308071  0  0  0.793162  0  2.25276  0  0  0.711139  0.707888  0  2.346291  0
Zn  Zn2  1  0.85515483  0.78593677  0.10463074  1  0  0.950501  0  1.835042  0  0  0.742858  0  2.308152  0  0  0.793182  0  2.252757  0  0  0.711138  0.707914  0  2.346295  0
Zn  Zn3  1  0.64486323  0.71406754  0.60463069  1  0  0.95045  0  1.835024  0  0  0.74311  0  2.308006  0  0  0.793221  0  2.2527  0  0  0.711181  0.707959  0  2.346231  0
H  H4  1  0.71308605  0.06139616  0.06074873  1  0  0.105603  0  0.949725  0  0  0.103442  0  1.029466  0  0  0.107095  0  1.025927  0  0  0.122431  0.10082  0  1.032034  0
H  H5  1  0.78688054  0.43859724  0.56074523  1  0  0.105577  0  0.949763  0  0  0.10341  0  1.029474  0  0  0.107036  0  1.025976  0  0  0.122409  0.100758  0  1.032087  0
H  H6  1  0.28693026  0.93860871  0.93924807  1  0  0.105577  0  0.949743  0  0  0.103416  0  1.02949  0  0  0.107071  0  1.025956  0  0  0.122456  0.100798  0  1.032057  0
H  H7  1  0.21311825  0.56141180  0.43925448  1  0  0.105548  0  0.949931  0  0  0.103459  0  1.029531  0  0  0.107086  0  1.026034  0  0  0.122459  0.100813  0  1.032143  0
H  H8  1  0.60743114  0.38866988  0.13385849  1  0  0.130109  0  0.932691  0  0  0.140368  0  0.991098  0  0  0.143582  0  0.989161  0  0  0.120802  0.138002  0  0.992659  0
H  H9  1  0.89261463  0.11133847  0.63385762  1  0  0.13018  0  0.932466  0  0  0.140423  0  0.990886  0  0  0.143634  0  0.98895  0  0  0.120845  0.138034  0  0.992473  0
H  H10  1  0.39257572  0.61132835  0.86614589  1  0  0.130103  0  0.932591  0  0  0.14034  0  0.991054  0  0  0.143564  0  0.989103  0  0  0.12077  0.137927  0  0.992672  0
H  H11  1  0.10736273  0.88865980  0.36613743  1  0  0.130203  0  0.932434  0  0  0.140447  0  0.990833  0  0  0.143662  0  0.988892  0  0  0.120881  0.13807  0  0.992415  0
H  H12  1  0.32094745  0.37739170  0.02176107  1  0  0.098199  0  0.954909  0  0  0.105176  0  1.021884  0  0  0.107547  0  1.019533  0  0  0.124556  0.103418  0  1.023574  0
H  H13  1  0.17910017  0.12261727  0.52175697  1  0  0.098264  0  0.954856  0  0  0.10518  0  1.021865  0  0  0.107552  0  1.019509  0  0  0.124579  0.103426  0  1.023552  0
H  H14  1  0.67906003  0.62260819  0.97824681  1  0  0.098192  0  0.954863  0  0  0.105146  0  1.021862  0  0  0.10752  0  1.019508  0  0  0.124573  0.103395  0  1.023549  0
H  H15  1  0.82089329  0.87737765  0.47824275  1  0  0.09829  0  0.954904  0  0  0.105213  0  1.021903  0  0  0.107585  0  1.01955  0  0  0.124623  0.103462  0  1.023588  0
H  H16  1  0.04703779  0.39205911  0.14689937  1  0  0.093541  0  0.972868  0  0  0.093876  0  1.048219  0  0  0.097368  0  1.045247  0  0  0.118151  0.091289  0  1.05046  0
H  H17  1  0.45297036  0.10792850  0.64688892  1  0  0.093363  0  0.972909  0  0  0.093698  0  1.048289  0  0  0.097187  0  1.045326  0  0  0.118101  0.091117  0  1.050524  0
H  H18  1  0.95297271  0.60793495  0.85310443  1  0  0.093471  0  0.972839  0  0  0.093788  0  1.048223  0  0  0.097279  0  1.045256  0  0  0.118134  0.09121  0  1.050456  0
H  H19  1  0.54701997  0.89205810  0.35311488  1  0  0.093429  0  0.972869  0  0  0.093755  0  1.048261  0  0  0.097246  0  1.045295  0  0  0.118117  0.091175  0  1.050497  0
H  H20  1  0.71944049  0.06130650  0.21991927  1  0  0.130289  0  0.938708  0  0  0.132067  0  1.010257  0  0  0.136108  0  1.007385  0  0  0.119085  0.129127  0  1.012415  0
H  H21  1  0.78053605  0.43868747  0.71992629  1  0  0.13046  0  0.938469  0  0  0.13222  0  1.009948  0  0  0.13624  0  1.007121  0  0  0.119135  0.129251  0  1.012158  0
H  H22  1  0.28055198  0.93870422  0.78008278  1  0  0.130329  0  0.938609  0  0  0.13215  0  1.010083  0  0  0.13619  0  1.007215  0  0  0.119102  0.129211  0  1.012241  0
H  H23  1  0.21944085  0.56130497  0.28007284  1  0  0.130448  0  0.938546  0  0  0.13221  0  1.010042  0  0  0.136231  0  1.007217  0  0  0.119124  0.129244  0  1.012249  0
H  H24  1  0.00445614  0.09210494  0.33295298  1  0  0.099247  0  0.944011  0  0  0.107881  0  1.00702  0  0  0.110252  0  1.004729  0  0  0.126939  0.106121  0  1.00871  0
H  H25  1  0.49548886  0.40787926  0.83295705  1  0  0.099189  0  0.943973  0  0  0.107894  0  1.006927  0  0  0.110261  0  1.00464  0  0  0.126933  0.106112  0  1.008642  0
H  H26  1  0.99550811  0.90789999  0.66705199  1  0  0.099272  0  0.943913  0  0  0.107947  0  1.00689  0  0  0.110313  0  1.004607  0  0  0.126971  0.106194  0  1.008572  0
H  H27  1  0.50449987  0.59211233  0.16704500  1  0  0.09921  0  0.94404  0  0  0.107937  0  1.006952  0  0  0.110303  0  1.004667  0  0  0.12695  0.106118  0  1.008713  0
C  C28  1  0.63109677  0.13518679  0.05609462  1  0  0.072103  0  3.622459  0  0  0.039459  0  3.888801  0  0  0.04197  0  3.902336  0  0  0.068744  0.037677  0  3.879867  0
C  C29  1  0.86887250  0.36480895  0.55608956  1  0  0.072024  0  3.622604  0  0  0.039468  0  3.888842  0  0  0.041957  0  3.902431  0  0  0.068731  0.037664  0  3.879963  0
C  C30  1  0.36891370  0.86481642  0.94390101  1  0  0.072117  0  3.622667  0  0  0.039485  0  3.889016  0  0  0.04199  0  3.902552  0  0  0.068726  0.037703  0  3.880081  0
C  C31  1  0.13113308  0.63519510  0.44390840  1  0  0.072107  0  3.622793  0  0  0.039503  0  3.88909  0  0  0.041989  0  3.902683  0  0  0.068674  0.037697  0  3.880207  0
C  C32  1  0.68608023  0.22527011  0.10832707  1  0  0.071899  0  3.707419  0  0  0.086035  0  3.934696  0  0  0.087129  0  3.954817  0  0  0.029114  0.085229  0  3.921211  0
C  C33  1  0.81391528  0.27472825  0.60832642  1  0  0.071907  0  3.707778  0  0  0.085997  0  3.935  0  0  0.08708  0  3.955141  0  0  0.029061  0.085182  0  3.92152  0
C  C34  1  0.31391604  0.77473229  0.89167089  1  0  0.071912  0  3.707616  0  0  0.085981  0  3.934936  0  0  0.087077  0  3.95506  0  0  0.029102  0.085179  0  3.921442  0
C  C35  1  0.18607044  0.72526917  0.39166979  1  0  0.071795  0  3.707742  0  0  0.085878  0  3.935119  0  0  0.086962  0  3.955262  0  0  0.029113  0.085069  0  3.921641  0
C  C36  1  0.57488963  0.31582739  0.09627107  1  0  -0.078401  0  3.627822  0  0  -0.107862  0  3.883191  0  0  -0.110935  0  3.900038  0  0  -0.052539  -0.105877  0  3.871987  0
C  C37  1  0.92513790  0.18418631  0.59627547  1  0  -0.07844  0  3.627895  0  0  -0.107876  0  3.883212  0  0  -0.110953  0  3.900068  0  0  -0.052521  -0.105871  0  3.872023  0
C  C38  1  0.42512242  0.68417997  0.90372690  1  0  -0.078376  0  3.627916  0  0  -0.107819  0  3.883278  0  0  -0.110905  0  3.900128  0  0  -0.052465  -0.105791  0  3.872097  0
C  C39  1  0.07483772  0.81581195  0.40372249  1  0  -0.078409  0  3.62784  0  0  -0.107813  0  3.883189  0  0  -0.110889  0  3.900043  0  0  -0.052519  -0.105821  0  3.871998  0
C  C40  1  0.41695544  0.31020413  0.03432953  1  0  0.117354  0  3.675297  0  0  0.077807  0  3.93809  0  0  0.084164  0  3.954024  0  0  0.060085  0.073542  0  3.92741  0
C  C41  1  0.08306298  0.18979700  0.53432807  1  0  0.11723  0  3.675219  0  0  0.077785  0  3.938032  0  0  0.084146  0  3.953955  0  0  0.060035  0.073513  0  3.927344  0
C  C42  1  0.58303833  0.68979162  0.96567077  1  0  0.117294  0  3.675376  0  0  0.077793  0  3.938137  0  0  0.084152  0  3.954073  0  0  0.060057  0.073525  0  3.927446  0
C  C43  1  0.91691218  0.81019545  0.46566931  1  0  0.117116  0  3.675416  0  0  0.077599  0  3.9382  0  0  0.083957  0  3.954128  0  0  0.059865  0.073328  0  3.927509  0
C  C44  1  0.02641397  0.32103683  0.18646505  1  0  0.058633  0  3.653282  0  0  0.028149  0  3.917384  0  0  0.029435  0  3.932743  0  0  0.062753  0.027226  0  3.907216  0
C  C45  1  0.47357659  0.17894719  0.68645813  1  0  0.05915  0  3.652914  0  0  0.02856  0  3.917106  0  0  0.029862  0  3.93243  0  0  0.062891  0.027653  0  3.906889  0
C  C46  1  0.97358722  0.67895558  0.81353758  1  0  0.05879  0  3.652909  0  0  0.028257  0  3.917041  0  0  0.029542  0  3.932403  0  0  0.062756  0.027339  0  3.906861  0
C  C47  1  0.52641829  0.82104689  0.31354158  1  0  0.058959  0  3.652865  0  0  0.028432  0  3.91715  0  0  0.029735  0  3.932469  0  0  0.062868  0.02753  0  3.906931  0
C  C48  1  0.85320114  0.22593033  0.17317618  1  0  0.078484  0  3.697807  0  0  0.09124  0  3.924549  0  0  0.092668  0  3.944976  0  0  0.03082  0.09018  0  3.910921  0
C  C49  1  0.64678369  0.27406532  0.67317194  1  0  0.07839  0  3.697962  0  0  0.091282  0  3.924441  0  0  0.092713  0  3.944859  0  0  0.030895  0.090227  0  3.910796  0
C  C50  1  0.14679104  0.77407041  0.82682470  1  0  0.078438  0  3.698045  0  0  0.09131  0  3.924631  0  0  0.092737  0  3.945057  0  0  0.030862  0.090248  0  3.911005  0
C  C51  1  0.35320280  0.72593876  0.32682311  1  0  0.078647  0  3.697629  0  0  0.091366  0  3.924459  0  0  0.092795  0  3.944878  0  0  0.030885  0.090306  0  3.910816  0
C  C52  1  0.84609293  0.13846302  0.22532956  1  0  -0.068497  0  3.597482  0  0  -0.092531  0  3.84787  0  0  -0.095653  0  3.864241  0  0  -0.047103  -0.090532  0  3.837061  0
C  C53  1  0.65386689  0.36152367  0.72532918  1  0  -0.068856  0  3.597724  0  0  -0.092742  0  3.847924  0  0  -0.095892  0  3.864354  0  0  -0.047195  -0.090761  0  3.837156  0
C  C54  1  0.15389956  0.86153855  0.77467599  1  0  -0.06859  0  3.597493  0  0  -0.092651  0  3.847837  0  0  -0.095772  0  3.864206  0  0  -0.047077  -0.090641  0  3.837021  0
C  C55  1  0.34610148  0.63847377  0.27466761  1  0  -0.068838  0  3.597493  0  0  -0.092682  0  3.847772  0  0  -0.095837  0  3.864207  0  0  -0.047136  -0.090692  0  3.83699  0
C  C56  1  0.00245341  0.15486358  0.28812330  1  0  0.130724  0  3.642293  0  0  0.090369  0  3.899564  0  0  0.096769  0  3.915921  0  0  0.063806  0.086063  0  3.888595  0
C  C57  1  0.49750508  0.34512237  0.78812042  1  0  0.130919  0  3.642463  0  0  0.090394  0  3.899751  0  0  0.096784  0  3.916139  0  0  0.063736  0.08609  0  3.888813  0
C  C58  1  0.99753828  0.84514049  0.71188224  1  0  0.13077  0  3.642137  0  0  0.090339  0  3.899487  0  0  0.096737  0  3.91585  0  0  0.063725  0.086037  0  3.888501  0
C  C59  1  0.50247702  0.65487006  0.21187871  1  0  0.130772  0  3.642354  0  0  0.090261  0  3.899649  0  0  0.09665  0  3.916038  0  0  0.063708  0.085983  0  3.888728  0
N  N60  1  0.37313726  0.22158053  0.98748408  1  0  -0.201542  0  3.295381  0  0  -0.121291  0  3.583153  0  0  -0.136493  0  3.597647  0  0  -0.206825  -0.111035  0  3.573403  0
N  N61  1  0.12686183  0.27841982  0.48748060  1  0  -0.201478  0  3.295364  0  0  -0.121295  0  3.583152  0  0  -0.13651  0  3.59767  0  0  -0.206836  -0.111051  0  3.573433  0
N  N62  1  0.62685067  0.77841356  0.01251914  1  0  -0.201447  0  3.295286  0  0  -0.121187  0  3.58301  0  0  -0.13639  0  3.597503  0  0  -0.206775  -0.11093  0  3.573264  0
N  N63  1  0.87313683  0.72157509  0.51252145  1  0  -0.201621  0  3.295514  0  0  -0.121227  0  3.583096  0  0  -0.13644  0  3.597614  0  0  -0.206861  -0.110981  0  3.573372  0
N  N64  1  0.48053633  0.13391134  0.99707120  1  0  -0.117213  0  2.966177  0  0  -0.104175  0  3.243072  0  0  -0.107254  0  3.257587  0  0  -0.178479  -0.101995  0  3.233378  0
N  N65  1  0.01944872  0.36608438  0.49707135  1  0  -0.11718  0  2.966297  0  0  -0.10409  0  3.243127  0  0  -0.107192  0  3.257689  0  0  -0.178462  -0.101934  0  3.233479  0
N  N66  1  0.51947084  0.86608772  0.00292210  1  0  -0.117295  0  2.966401  0  0  -0.104264  0  3.243309  0  0  -0.107341  0  3.257824  0  0  -0.178544  -0.102079  0  3.23361  0
N  N67  1  0.98057311  0.63392131  0.50293186  1  0  -0.117054  0  2.96617  0  0  -0.104033  0  3.242987  0  0  -0.107133  0  3.25755  0  0  -0.178375  -0.101871  0  3.233332  0
N  N68  1  0.15653920  0.24932881  0.29811334  1  0  -0.191963  0  3.301648  0  0  -0.107743  0  3.585529  0  0  -0.123507  0  3.600551  0  0  -0.203051  -0.097161  0  3.57547  0
N  N69  1  0.34343239  0.25065082  0.79810809  1  0  -0.191773  0  3.301588  0  0  -0.107523  0  3.585518  0  0  -0.123276  0  3.600503  0  0  -0.202868  -0.096921  0  3.575407  0
N  N70  1  0.84345614  0.75067109  0.70189162  1  0  -0.191999  0  3.301632  0  0  -0.107805  0  3.585607  0  0  -0.123572  0  3.600631  0  0  -0.203016  -0.09722  0  3.575552  0
N  N71  1  0.65655982  0.74934077  0.20189338  1  0  -0.191788  0  3.301671  0  0  -0.107538  0  3.585622  0  0  -0.123288  0  3.600606  0  0  -0.202914  -0.096936  0  3.575496  0
N  N72  1  0.17437025  0.33244418  0.24654505  1  0  -0.139065  0  2.997033  0  0  -0.124826  0  3.271792  0  0  -0.128228  0  3.287783  0  0  -0.188022  -0.122371  0  3.261071  0
N  N73  1  0.32562494  0.16753611  0.74653896  1  0  -0.139475  0  2.997058  0  0  -0.125281  0  3.271938  0  0  -0.128662  0  3.287874  0  0  -0.188247  -0.1228  0  3.261161  0
N  N74  1  0.82562935  0.66755322  0.75345700  1  0  -0.139109  0  2.996776  0  0  -0.124846  0  3.271554  0  0  -0.128248  0  3.287544  0  0  -0.188038  -0.122388  0  3.260827  0
N  N75  1  0.67437816  0.83245214  0.25346251  1  0  -0.139387  0  2.997067  0  0  -0.125178  0  3.27193  0  0  -0.128555  0  3.287865  0  0  -0.188185  -0.122693  0  3.261146  0
N  N76  1  0.83085922  0.04840619  0.84274035  1  0  0.688968  0  4.119717  0  0  0.717182  0  4.416155  0  0  0.746065  0  4.421788  0  0  0.100323  0.699448  0  4.411613  0
N  N77  1  0.66913939  0.45156377  0.34273865  1  0  0.688718  0  4.119701  0  0  0.719264  0  4.41536  0  0  0.746307  0  4.421262  0  0  0.100515  0.699646  0  4.411143  0
N  N78  1  0.16914593  0.95158289  0.15725353  1  0  0.689145  0  4.119675  0  0  0.717486  0  4.415983  0  0  0.746392  0  4.421559  0  0  0.100289  0.699698  0  4.411447  0
N  N79  1  0.33086412  0.54844860  0.65725523  1  0  0.688625  0  4.120219  0  0  0.719255  0  4.415738  0  0  0.746305  0  4.421638  0  0  0.100532  0.699637  0  4.411517  0
N  N80  1  0.94566031  0.40543964  0.91853248  1  0  0.690966  0  4.13404  0  0  0.721218  0  4.431543  0  0  0.750111  0  4.437354  0  0  0.102658  0.715006  0  4.408442  0
N  N81  1  0.55437734  0.09456785  0.41854113  1  0  0.690214  0  4.134055  0  0  0.72058  0  4.43149  0  0  0.749469  0  4.437308  0  0  0.102265  0.714321  0  4.408477  0
N  N82  1  0.05436877  0.59456688  0.08147074  1  0  0.690856  0  4.133744  0  0  0.721146  0  4.431281  0  0  0.750036  0  4.437099  0  0  0.102549  0.714924  0  4.408234  0
N  N83  1  0.44562586  0.90544369  0.58145975  1  0  0.690545  0  4.133888  0  0  0.720963  0  4.431339  0  0  0.749846  0  4.437165  0  0  0.10247  0.71497  0  4.40805  0
O  O84  1  0.81251721  0.14096624  0.81276706  1  0  -0.458326  0  1.804372  0  0  -0.447435  0  2.036678  0  0  -0.465303  0  2.033112  0  0  -0.179903  -0.435678  0  2.038863  0
O  O85  1  0.68746222  0.35899770  0.31277417  1  0  -0.458493  0  1.804817  0  0  -0.448529  0  2.036941  0  0  -0.465641  0  2.033429  0  0  -0.180021  -0.435967  0  2.039123  0
O  O86  1  0.18749408  0.85902533  0.18722507  1  0  -0.458419  0  1.804374  0  0  -0.447589  0  2.036636  0  0  -0.465469  0  2.033068  0  0  -0.179909  -0.435813  0  2.038824  0
O  O87  1  0.31254004  0.64101135  0.68721971  1  0  -0.458475  0  1.805026  0  0  -0.448491  0  2.037082  0  0  -0.465596  0  2.033553  0  0  -0.180069  -0.435938  0  2.039269  0
O  O88  1  0.99510421  0.04941897  0.89603829  1  0  -0.491486  0  1.79387  0  0  -0.454818  0  2.043462  0  0  -0.475601  0  2.031333  0  0  -0.210936  -0.440922  0  2.051459  0
O  O89  1  0.50491948  0.45057360  0.39603999  1  0  -0.491207  0  1.793745  0  0  -0.455635  0  2.043376  0  0  -0.475667  0  2.031203  0  0  -0.210997  -0.440971  0  2.051332  0
O  O90  1  0.00489730  0.95057427  0.10395967  1  0  -0.491625  0  1.793961  0  0  -0.454968  0  2.04349  0  0  -0.475757  0  2.031345  0  0  -0.210936  -0.44105  0  2.051484  0
O  O91  1  0.49508200  0.54942879  0.60395914  1  0  -0.49122  0  1.794015  0  0  -0.455666  0  2.043611  0  0  -0.475696  0  2.031438  0  0  -0.210974  -0.441002  0  2.051566  0
O  O92  1  0.70551017  0.95942102  0.82416697  1  0  -0.400713  0  1.783716  0  0  -0.396496  0  1.994093  0  0  -0.409713  0  1.991465  0  0  -0.154799  -0.387903  0  1.995707  0
O  O93  1  0.79449919  0.54054606  0.32415294  1  0  -0.40058  0  1.783425  0  0  -0.397265  0  1.993551  0  0  -0.40966  0  1.990922  0  0  -0.154812  -0.387848  0  1.995196  0
O  O94  1  0.29451296  0.04056970  0.17582516  1  0  -0.400726  0  1.783603  0  0  -0.39655  0  1.993905  0  0  -0.409777  0  1.991265  0  0  -0.154769  -0.387929  0  1.995518  0
O  O95  1  0.20548713  0.45946217  0.67584328  1  0  -0.400579  0  1.783398  0  0  -0.397311  0  1.99348  0  0  -0.409723  0  1.990872  0  0  -0.154849  -0.387889  0  1.995118  0
O  O96  1  0.91297316  0.30326015  0.94395413  1  0  -0.496642  0  1.885742  0  0  -0.461785  0  2.14655  0  0  -0.484068  0  2.139341  0  0  -0.203636  -0.450436  0  2.146325  0
O  O97  1  0.58703070  0.19674162  0.44397383  1  0  -0.496168  0  1.885618  0  0  -0.461446  0  2.146435  0  0  -0.483744  0  2.13927  0  0  -0.203448  -0.450102  0  2.146273  0
O  O98  1  0.08702218  0.69673976  0.05604092  1  0  -0.496422  0  1.885693  0  0  -0.461632  0  2.146585  0  0  -0.483913  0  2.139373  0  0  -0.203518  -0.450292  0  2.14638  0
O  O99  1  0.41300767  0.80327570  0.55602705  1  0  -0.496325  0  1.885543  0  0  -0.461634  0  2.146393  0  0  -0.483931  0  2.139223  0  0  -0.20353  -0.450372  0  2.146159  0
O  O100  1  0.12445833  0.43963790  0.87771171  1  0  -0.449401  0  1.776597  0  0  -0.44177  0  1.996156  0  0  -0.455826  0  1.989399  0  0  -0.169583  -0.436503  0  1.995332  0
O  O101  1  0.37560674  0.06037185  0.37770186  1  0  -0.449376  0  1.776624  0  0  -0.441726  0  1.996078  0  0  -0.455782  0  1.989311  0  0  -0.169573  -0.436456  0  1.995293  0
O  O102  1  0.87557029  0.56036280  0.12229618  1  0  -0.449565  0  1.776698  0  0  -0.441875  0  1.996178  0  0  -0.455947  0  1.989433  0  0  -0.169612  -0.43661  0  1.995372  0
O  O103  1  0.62439988  0.93965798  0.62229494  1  0  -0.449417  0  1.776544  0  0  -0.441795  0  1.996011  0  0  -0.455818  0  1.989209  0  0  -0.169559  -0.436614  0  1.995149  0
O  O104  1  0.79617111  0.46426887  0.93551637  1  0  -0.423291  0  1.765855  0  0  -0.416182  0  1.976501  0  0  -0.430735  0  1.972435  0  0  -0.166536  -0.410567  0  1.973811  0
O  O105  1  0.70386415  0.03573755  0.43552703  1  0  -0.422924  0  1.7655  0  0  -0.415928  0  1.976217  0  0  -0.43048  0  1.972153  0  0  -0.166351  -0.410269  0  1.973525  0
O  O106  1  0.20389124  0.53574759  0.06449734  1  0  -0.423147  0  1.765399  0  0  -0.416206  0  1.976191  0  0  -0.430726  0  1.972087  0  0  -0.166504  -0.41053  0  1.97344  0
O  O107  1  0.29609901  0.96425990  0.56447910  1  0  -0.423063  0  1.765623  0  0  -0.416085  0  1.976335  0  0  -0.430641  0  1.972273  0  0  -0.166462  -0.41054  0  1.973593  0
