# generated using pymatgen
data_Cd3H28C26(N2Cl3)2
_symmetry_space_group_name_H-M   'P 1'
_cell_length_a   8.12053070
_cell_length_b   11.99355008
_cell_length_c   15.96440000
_cell_angle_alpha   99.22268317
_cell_angle_beta   104.66166981
_cell_angle_gamma   90.01205531
_symmetry_Int_Tables_number   1
_chemical_formula_structural   Cd3H28C26(N2Cl3)2
_chemical_formula_sum   'Cd6 H56 C52 N8 Cl12'
_cell_volume   1483.40762254
_cell_formula_units_Z   2
loop_
 _symmetry_equiv_pos_site_id
 _symmetry_equiv_pos_as_xyz
  1  'x, y, z'
loop_
 _atom_site_type_symbol
 _atom_site_label
 _atom_site_symmetry_multiplicity
 _atom_site_fract_x
 _atom_site_fract_y
 _atom_site_fract_z
 _atom_site_occupancy
 _atom_site_hle17_bader_spin_density
 _atom_site_hle17_ddec_charge
 _atom_site_hle17_ddec_spin_density
 _atom_site_hle17_ddec_sum_bond_order
 _atom_site_hle17_magmom
 _atom_site_hse06_10hf_bader_spin_density
 _atom_site_hse06_10hf_ddec_charge
 _atom_site_hse06_10hf_ddec_spin_density
 _atom_site_hse06_10hf_ddec_sum_bond_order
 _atom_site_hse06_10hf_magmom
 _atom_site_hse06_bader_spin_density
 _atom_site_hse06_ddec_charge
 _atom_site_hse06_ddec_spin_density
 _atom_site_hse06_ddec_sum_bond_order
 _atom_site_hse06_magmom
 _atom_site_pbe_bader_charge
 _atom_site_pbe_bader_spin_density
 _atom_site_pbe_cm5_charge
 _atom_site_pbe_ddec_charge
 _atom_site_pbe_ddec_spin_density
 _atom_site_pbe_ddec_sum_bond_order
 _atom_site_pbe_magmom
Cd  Cd0  1  0.19238779  0.98931154  0.10626563  1  0  0.970642  0  1.9022  0  0  0.81858  0  2.344962  0  0  0.861156  0  2.308596  0  1.124632  0  0.595314  0.788765  0  2.369366  0
Cd  Cd1  1  0.08623401  0.51060772  0.89354754  1  0  0.970816  0  1.902298  0  0  0.818771  0  2.344728  0  0  0.861287  0  2.308443  0  1.124895  0  0.59546  0.788992  0  2.369077  0
Cd  Cd2  1  0.80761693  0.01068761  0.89373513  1  0  0.970659  0  1.902177  0  0  0.818605  0  2.344953  0  0  0.861181  0  2.308589  0  1.124634  0  0.595329  0.788791  0  2.369357  0
Cd  Cd3  1  0.91376823  0.48939228  0.10645175  1  0  0.970829  0  1.902296  0  0  0.818789  0  2.344728  0  0  0.861305  0  2.308443  0  1.12485  0  0.595486  0.789011  0  2.369078  0
Cd  Cd4  1  0.86048140  0.74996090  0.00011812  1  0  0.914229  0  2.062248  0  0  0.777275  0  2.516221  0  0  0.820436  0  2.477936  0  1.113788  0  0.498204  0.746829  0  2.542082  0
Cd  Cd5  1  0.13952078  0.25003826  0.99988294  1  0  0.914242  0  2.062229  0  0  0.777277  0  2.516221  0  0  0.820456  0  2.477898  0  1.113809  0  0.498215  0.746832  0  2.54208  0
H  H6  1  0.30814491  0.19328255  0.21456696  1  0  0.308857  0  0.904142  0  0  0.295848  0  0.96512  0  0  0.301597  0  0.961561  0  0.459576  0  0.282814  0.291722  0  0.967721  0
H  H7  1  0.09375354  0.30678720  0.78517051  1  0  0.309813  0  0.902622  0  0  0.296324  0  0.964163  0  0  0.302117  0  0.960575  0  0.460287  0  0.283168  0.292164  0  0.966787  0
H  H8  1  0.69185611  0.80671829  0.78543290  1  0  0.3089  0  0.904148  0  0  0.2959  0  0.965108  0  0  0.301649  0  0.96155  0  0.459661  0  0.282862  0.291774  0  0.96771  0
H  H9  1  0.90624105  0.69321280  0.21482780  1  0  0.309827  0  0.902624  0  0  0.296347  0  0.964156  0  0  0.302141  0  0.960567  0  0.460269  0  0.283152  0.292187  0  0.966779  0
H  H10  1  0.44719804  0.09729440  0.24549312  1  0  0.294694  0  0.916363  0  0  0.282774  0  0.978692  0  0  0.287515  0  0.976823  0  0.439797  0  0.290987  0.279414  0  0.980037  0
H  H11  1  0.20207367  0.40261725  0.75409310  1  0  0.294658  0  0.915286  0  0  0.282954  0  0.977681  0  0  0.287692  0  0.975844  0  0.435612  0  0.290781  0.279596  0  0.979004  0
H  H12  1  0.55280425  0.90270644  0.75450940  1  0  0.294694  0  0.916485  0  0  0.282789  0  0.978769  0  0  0.28753  0  0.976901  0  0.439698  0  0.291019  0.279429  0  0.980113  0
H  H13  1  0.79792215  0.59738191  0.24590463  1  0  0.294688  0  0.915158  0  0  0.282985  0  0.97758  0  0  0.287722  0  0.975744  0  0.435632  0  0.29078  0.279628  0  0.978901  0
H  H14  1  0.41144755  0.97868142  0.35591238  1  0  0.099613  0  0.970654  0  0  0.109176  0  1.034906  0  0  0.111035  0  1.036329  0  0.072449  0  0.098266  0.10782  0  1.034065  0
H  H15  1  0.05499016  0.52183390  0.64387332  1  0  0.099881  0  0.969185  0  0  0.109788  0  1.033181  0  0  0.111643  0  1.034618  0  0.088828  0  0.098149  0.108437  0  1.032297  0
H  H16  1  0.58854827  0.02131774  0.64408848  1  0  0.099563  0  0.97065  0  0  0.109158  0  1.034884  0  0  0.111016  0  1.036307  0  0.072404  0  0.098235  0.107799  0  1.034046  0
H  H17  1  0.94500438  0.47816526  0.35612487  1  0  0.099892  0  0.969116  0  0  0.109825  0  1.033078  0  0  0.111678  0  1.034526  0  0.088762  0  0.098191  0.108476  0  1.032192  0
H  H18  1  0.02997567  0.27973462  0.43338090  1  0  0.086841  0  0.967795  0  0  0.09753  0  1.032122  0  0  0.099757  0  1.031927  0  0.043294  0  0.096315  0.095897  0  1.03238  0
H  H19  1  0.59777229  0.21985490  0.56711240  1  0  0.086095  0  0.969735  0  0  0.097007  0  1.033793  0  0  0.099156  0  1.033715  0  0.070705  0  0.096219  0.095404  0  1.033999  0
H  H20  1  0.97001544  0.72027045  0.56661756  1  0  0.086899  0  0.967737  0  0  0.09757  0  1.032071  0  0  0.099797  0  1.031874  0  0.043359  0  0.096368  0.095922  0  1.032347  0
H  H21  1  0.40222480  0.78014426  0.43288549  1  0  0.086114  0  0.969739  0  0  0.096998  0  1.033825  0  0  0.099174  0  1.033722  0  0.07076  0  0.09622  0.095395  0  1.03403  0
H  H22  1  0.12027388  0.26872066  0.29482681  1  0  0.10472  0  0.969578  0  0  0.112557  0  1.036138  0  0  0.115819  0  1.034819  0  0.090523  0  0.09249  0.110209  0  1.037184  0
H  H23  1  0.82641712  0.23144210  0.70551776  1  0  0.10534  0  0.970197  0  0  0.113476  0  1.036196  0  0  0.116748  0  1.034864  0  0.106202  0  0.09261  0.111121  0  1.037251  0
H  H24  1  0.87972182  0.73127681  0.70517258  1  0  0.104671  0  0.96938  0  0  0.112499  0  1.035967  0  0  0.115761  0  1.034647  0  0.090997  0  0.092448  0.110149  0  1.037017  0
H  H25  1  0.17357865  0.76855621  0.29448112  1  0  0.105394  0  0.970166  0  0  0.113537  0  1.036153  0  0  0.116808  0  1.034821  0  0.106247  0  0.092633  0.111181  0  1.037209  0
H  H26  1  0.32246157  0.99109803  0.49466087  1  0  0.08743  0  0.956052  0  0  0.099359  0  1.017661  0  0  0.101777  0  1.017089  0  0.052002  0  0.096808  0.097632  0  1.018105  0
H  H27  1  0.82702561  0.50911631  0.50542470  1  0  0.087532  0  0.955719  0  0  0.099832  0  1.016858  0  0  0.10227  0  1.016273  0  0.044799  0  0.096831  0.098088  0  1.017326  0
H  H28  1  0.67752948  0.00890620  0.50533874  1  0  0.0874  0  0.956028  0  0  0.0993  0  1.017689  0  0  0.101708  0  1.017143  0  0.052079  0  0.096786  0.097571  0  1.018135  0
H  H29  1  0.17296899  0.49088370  0.49457235  1  0  0.087546  0  0.955746  0  0  0.099869  0  1.016851  0  0  0.102308  0  1.016263  0  0.044833  0  0.096844  0.098113  0  1.017331  0
H  H30  1  0.00680416  0.07385284  0.54595083  1  0  0.083006  0  0.957897  0  0  0.100889  0  1.020148  0  0  0.101417  0  1.020613  0  0.056391  0  0.093769  0.100501  0  1.019844  0
H  H31  1  0.46108252  0.42592100  0.45465939  1  0  0.08301  0  0.960239  0  0  0.101052  0  1.022069  0  0  0.101567  0  1.022504  0  0.0553  0  0.093705  0.100667  0  1.021761  0
H  H32  1  0.99319680  0.92614716  0.45405143  1  0  0.082999  0  0.957963  0  0  0.10089  0  1.020216  0  0  0.101421  0  1.020682  0  0.05625  0  0.093771  0.100502  0  1.019913  0
H  H33  1  0.53891584  0.57407816  0.54533742  1  0  0.082988  0  0.960192  0  0  0.101053  0  1.022036  0  0  0.10157  0  1.022472  0  0.055188  0  0.093711  0.100664  0  1.021738  0
H  H34  1  0.03636537  0.22090075  0.56290729  1  0  0.08136  0  0.968993  0  0  0.096856  0  1.034292  0  0  0.097002  0  1.036275  0  0.059703  0  0.091614  0.096728  0  1.032962  0
H  H35  1  0.47348312  0.27884603  0.43783860  1  0  0.082275  0  0.967767  0  0  0.097672  0  1.032999  0  0  0.097761  0  1.034983  0  0.053139  0  0.092159  0.097575  0  1.031656  0
H  H36  1  0.96363437  0.77910010  0.43709741  1  0  0.081261  0  0.969001  0  0  0.096747  0  1.034352  0  0  0.09689  0  1.036342  0  0.059776  0  0.091561  0.096616  0  1.033029  0
H  H37  1  0.52651408  0.72115482  0.56215951  1  0  0.082229  0  0.967823  0  0  0.097654  0  1.033053  0  0  0.097743  0  1.03504  0  0.053146  0  0.092167  0.097557  0  1.031711  0
H  H38  1  0.37644028  0.28790865  0.63327840  1  0  0.088426  0  0.953807  0  0  0.102329  0  1.012425  0  0  0.104617  0  1.011921  0  0.062386  0  0.098588  0.100663  0  1.01287  0
H  H39  1  0.74338739  0.21187787  0.36673611  1  0  0.088335  0  0.953662  0  0  0.101388  0  1.013396  0  0  0.103671  0  1.012899  0  0.055625  0  0.098021  0.099747  0  1.013799  0
H  H40  1  0.62356195  0.71209135  0.36672339  1  0  0.088429  0  0.953827  0  0  0.102323  0  1.012449  0  0  0.104612  0  1.011949  0  0.062332  0  0.098605  0.100658  0  1.012894  0
H  H41  1  0.25661219  0.78812044  0.63326200  1  0  0.088335  0  0.953667  0  0  0.101389  0  1.0134  0  0  0.103672  0  1.012903  0  0.055613  0  0.098009  0.099739  0  1.013827  0
H  H42  1  0.12679475  0.98823188  0.66735938  1  0  0.093557  0  0.959764  0  0  0.105373  0  1.020542  0  0  0.107362  0  1.020915  0  0.069499  0  0.096779  0.103892  0  1.020396  0
H  H43  1  0.45903734  0.51134328  0.33325537  1  0  0.09269  0  0.961097  0  0  0.104728  0  1.021701  0  0  0.106643  0  1.02218  0  0.071388  0  0.096934  0.103267  0  1.021516  0
H  H44  1  0.87320737  0.01176644  0.33264094  1  0  0.093556  0  0.959807  0  0  0.105398  0  1.020551  0  0  0.107369  0  1.020945  0  0.069492  0  0.096789  0.103916  0  1.020407  0
H  H45  1  0.54096617  0.48865672  0.66674471  1  0  0.092716  0  0.961067  0  0  0.104722  0  1.021706  0  0  0.106657  0  1.022163  0  0.071334  0  0.096944  0.103262  0  1.021521  0
H  H46  1  0.58430425  0.29068011  0.77754438  1  0  0.106188  0  0.956012  0  0  0.11718  0  1.017248  0  0  0.120095  0  1.016249  0  0.056891  0  0.097806  0.115024  0  1.018163  0
H  H47  1  0.80654329  0.20936428  0.22226144  1  0  0.106492  0  0.955616  0  0  0.117156  0  1.017324  0  0  0.120074  0  1.016296  0  0.071217  0  0.097572  0.115036  0  1.018209  0
H  H48  1  0.41569909  0.70931736  0.22245537  1  0  0.106185  0  0.955977  0  0  0.11719  0  1.017203  0  0  0.120103  0  1.016207  0  0.056909  0  0.097777  0.115042  0  1.018107  0
H  H49  1  0.19346265  0.79063403  0.77773812  1  0  0.106452  0  0.955692  0  0  0.11709  0  1.017436  0  0  0.120002  0  1.016409  0  0.07126  0  0.097551  0.11497  0  1.018322  0
H  H50  1  0.33257820  0.99200268  0.81244873  1  0  0.108891  0  0.946548  0  0  0.11965  0  1.007485  0  0  0.122763  0  1.005813  0  0.072948  0  0.09819  0.11736  0  1.008861  0
H  H51  1  0.51946669  0.50784049  0.18798232  1  0  0.108706  0  0.946037  0  0  0.119201  0  1.007218  0  0  0.122389  0  1.005463  0  0.086604  0  0.09799  0.116887  0  1.008617  0
H  H52  1  0.66742653  0.00799648  0.18755265  1  0  0.108916  0  0.94658  0  0  0.119678  0  1.007489  0  0  0.12279  0  1.005819  0  0.073016  0  0.098202  0.117376  0  1.00888  0
H  H53  1  0.48053804  0.49215867  0.81201781  1  0  0.10868  0  0.946051  0  0  0.11911  0  1.00729  0  0  0.122295  0  1.005539  0  0.086559  0  0.097977  0.116803  0  1.008689  0
H  H54  1  0.65250829  0.22055072  0.90919489  1  0  0.304994  0  0.910566  0  0  0.292172  0  0.972638  0  0  0.298254  0  0.968458  0  0.451905  0  0.275615  0.287782  0  0.97574  0
H  H55  1  0.74296085  0.27964754  0.09067514  1  0  0.305193  0  0.910646  0  0  0.292126  0  0.972689  0  0  0.298194  0  0.968548  0  0.429659  0  0.275945  0.287765  0  0.975711  0
H  H56  1  0.34749776  0.77944928  0.09080677  1  0  0.305065  0  0.910538  0  0  0.292239  0  0.972601  0  0  0.298321  0  0.968421  0  0.451925  0  0.275636  0.287847  0  0.975705  0
H  H57  1  0.25704138  0.72035246  0.90932415  1  0  0.305075  0  0.910848  0  0  0.292074  0  0.972805  0  0  0.298142  0  0.968664  0  0.429786  0  0.275892  0.287711  0  0.975829  0
H  H58  1  0.52866037  0.12533787  0.93330746  1  0  0.310853  0  0.913292  0  0  0.296383  0  0.977702  0  0  0.302805  0  0.973161  0  0.459238  0  0.272227  0.291782  0  0.980988  0
H  H59  1  0.59529320  0.37504893  0.06680065  1  0  0.311348  0  0.913289  0  0  0.296625  0  0.977999  0  0  0.30307  0  0.973421  0  0.463488  0  0.272537  0.292005  0  0.981317  0
H  H60  1  0.47134568  0.87466213  0.06669420  1  0  0.310939  0  0.913108  0  0  0.29645  0  0.977547  0  0  0.302873  0  0.973007  0  0.459217  0  0.272251  0.29185  0  0.980831  0
H  H61  1  0.40470909  0.62495192  0.93319937  1  0  0.311352  0  0.913291  0  0  0.296628  0  0.977994  0  0  0.303074  0  0.973415  0  0.463475  0  0.272538  0.292007  0  0.981313  0
C  C62  1  0.27006168  0.12265096  0.31636369  1  0  0.277383  0  3.796081  0  0  0.27295  0  4.043517  0  0  0.280013  0  4.064981  0  0.265006  0  0.078083  0.268048  0  4.02897  0
C  C63  1  0.95408456  0.37756590  0.68361405  1  0  0.2795  0  3.795332  0  0  0.275509  0  4.042302  0  0  0.282615  0  4.063748  0  0.273091  0  0.079112  0.270574  0  4.027766  0
C  C64  1  0.72993673  0.87734904  0.68363761  1  0  0.277435  0  3.796169  0  0  0.273006  0  4.043613  0  0  0.280069  0  4.065077  0  0.26478  0  0.078093  0.268104  0  4.029063  0
C  C65  1  0.04591247  0.62243241  0.31638499  1  0  0.279438  0  3.795415  0  0  0.275487  0  4.042355  0  0  0.282593  0  4.063803  0  0.273718  0  0.079134  0.270552  0  4.027819  0
C  C66  1  0.16755857  0.13569660  0.47356549  1  0  0.074934  0  3.772638  0  0  0.093746  0  4.014249  0  0  0.092692  0  4.038366  0  -0.013732  0  -0.020639  0.094375  0  3.997892  0
C  C67  1  0.69416892  0.36416517  0.52672884  1  0  0.076499  0  3.769047  0  0  0.095443  0  4.010434  0  0  0.094401  0  4.034469  0  -0.036614  0  -0.019547  0.096046  0  3.994129  0
C  C68  1  0.83243625  0.86430679  0.52643575  1  0  0.074946  0  3.77276  0  0  0.093763  0  4.014373  0  0  0.09271  0  4.038493  0  -0.013601  0  -0.020675  0.094394  0  3.998013  0
C  C69  1  0.30582806  0.63583230  0.47326947  1  0  0.076503  0  3.768977  0  0  0.095477  0  4.01038  0  0  0.094438  0  4.03442  0  -0.036568  0  -0.019594  0.096082  0  3.994067  0
C  C70  1  0.32716761  0.04461303  0.37293634  1  0  -0.175756  0  3.740994  0  0  -0.190892  0  3.98958  0  0  -0.1951  0  4.010156  0  -0.005075  0  -0.104699  -0.188036  0  3.975676  0
C  C71  1  0.95410943  0.45567401  0.62701643  1  0  -0.175926  0  3.738529  0  0  -0.191699  0  3.987291  0  0  -0.195945  0  4.007873  0  -0.014086  0  -0.104641  -0.188817  0  3.973411  0
C  C72  1  0.67283490  0.95539120  0.62706600  1  0  -0.175745  0  3.740861  0  0  -0.190903  0  3.989425  0  0  -0.195108  0  4.009999  0  -0.004914  0  -0.104673  -0.188052  0  3.975535  0
C  C73  1  0.04588882  0.54432346  0.37298204  1  0  -0.175857  0  3.738399  0  0  -0.191667  0  3.987193  0  0  -0.195916  0  4.007776  0  -0.014228  0  -0.104685  -0.188786  0  3.97331  0
C  C74  1  0.11245210  0.21282057  0.41615616  1  0  -0.119402  0  3.778621  0  0  -0.137312  0  4.024331  0  0  -0.138613  0  4.045263  0  -0.045666  0  -0.097303  -0.136272  0  4.010067  0
C  C75  1  0.69708830  0.28696764  0.58417848  1  0  -0.117842  0  3.77845  0  0  -0.136083  0  4.023935  0  0  -0.137354  0  4.044904  0  -0.100194  0  -0.097315  -0.135036  0  4.009656  0
C  C76  1  0.88754393  0.78718197  0.58384200  1  0  -0.119525  0  3.778621  0  0  -0.137399  0  4.024316  0  0  -0.138704  0  4.045252  0  -0.045652  0  -0.097369  -0.136346  0  4.010055  0
C  C77  1  0.30290751  0.71303152  0.41582050  1  0  -0.117792  0  3.778561  0  0  -0.136003  0  4.024044  0  0  -0.137299  0  4.045003  0  -0.100237  0  -0.097294  -0.134958  0  4.009766  0
C  C78  1  0.16150951  0.20662918  0.33804556  1  0  -0.16229  0  3.734468  0  0  -0.177401  0  3.979891  0  0  -0.182001  0  4.000137  0  -0.010141  0  -0.099211  -0.174291  0  3.96626  0
C  C79  1  0.82417895  0.29345072  0.66218037  1  0  -0.165088  0  3.736094  0  0  -0.180603  0  3.981681  0  0  -0.18524  0  4.00189  0  -0.044469  0  -0.100223  -0.177461  0  3.968063  0
C  C80  1  0.83848530  0.79337421  0.66195318  1  0  -0.162231  0  3.734388  0  0  -0.177342  0  3.979801  0  0  -0.181941  0  4.000047  0  -0.010569  0  -0.099155  -0.174229  0  3.966162  0
C  C81  1  0.17582451  0.70654844  0.33782085  1  0  -0.165199  0  3.73633  0  0  -0.180731  0  3.9819  0  0  -0.18537  0  4.00212  0  -0.044793  0  -0.100255  -0.177591  0  3.968285  0
C  C82  1  0.27652315  0.05187648  0.45078190  1  0  -0.110987  0  3.769421  0  0  -0.129609  0  4.01799  0  0  -0.130723  0  4.038442  0  -0.08328  0  -0.093795  -0.12871  0  4.004073  0
C  C83  1  0.82541111  0.44830064  0.54936371  1  0  -0.112115  0  3.768167  0  0  -0.131085  0  4.017029  0  0  -0.132236  0  4.037539  0  -0.052475  0  -0.09446  -0.130162  0  4.003074  0
C  C84  1  0.72347161  0.94812606  0.54921736  1  0  -0.110922  0  3.769392  0  0  -0.129522  0  4.01799  0  0  -0.130641  0  4.03844  0  -0.083606  0  -0.09376  -0.128624  0  4.004072  0
C  C85  1  0.17458465  0.55169767  0.45063517  1  0  -0.112214  0  3.768179  0  0  -0.131205  0  4.017035  0  0  -0.132357  0  4.037541  0  -0.052709  0  -0.094473  -0.130271  0  4.003084  0
C  C86  1  0.10379179  0.14195056  0.55518620  1  0  -0.196595  0  3.747073  0  0  -0.24536  0  3.986616  0  0  -0.245597  0  3.999003  0  -0.038183  0  -0.159906  -0.24505  0  3.978155  0
C  C87  1  0.54861397  0.35774634  0.44530948  1  0  -0.199323  0  3.748282  0  0  -0.247963  0  3.98768  0  0  -0.248064  0  3.999902  0  -0.008891  0  -0.160468  -0.247686  0  3.979249  0
C  C88  1  0.89620679  0.85805198  0.44481542  1  0  -0.196461  0  3.747001  0  0  -0.245287  0  3.986646  0  0  -0.245511  0  3.998998  0  -0.038325  0  -0.159842  -0.244958  0  3.978136  0
C  C89  1  0.45138444  0.64225366  0.55468994  1  0  -0.199253  0  3.748157  0  0  -0.248005  0  3.987716  0  0  -0.248114  0  3.999949  0  -0.008868  0  -0.160482  -0.247728  0  3.97928  0
C  C90  1  0.23762165  0.13700793  0.63933044  1  0  0.07677  0  3.763103  0  0  0.097542  0  4.001344  0  0  0.096198  0  4.025806  0  -0.058435  0  -0.022888  0.098357  0  3.984736  0
C  C91  1  0.59793992  0.36255285  0.36093759  1  0  0.078687  0  3.761753  0  0  0.098873  0  4.000683  0  0  0.097511  0  4.025138  0  -0.021716  0  -0.023134  0.099687  0  3.984064  0
C  C92  1  0.76237803  0.86299208  0.36067165  1  0  0.076855  0  3.763197  0  0  0.097699  0  4.001344  0  0  0.096358  0  4.025804  0  -0.058676  0  -0.022901  0.098513  0  3.98474  0
C  C93  1  0.40206209  0.63744377  0.63906063  1  0  0.07869  0  3.761609  0  0  0.098866  0  4.00059  0  0  0.097503  0  4.025053  0  -0.021345  0  -0.023134  0.099681  0  3.98397  0
C  C94  1  0.36830477  0.22133701  0.67157689  1  0  -0.116788  0  3.778643  0  0  -0.134932  0  4.025896  0  0  -0.135808  0  4.046765  0  -0.065868  0  -0.099257  -0.134142  0  4.011609  0
C  C95  1  0.69648743  0.27836158  0.32847091  1  0  -0.116544  0  3.778219  0  0  -0.133805  0  4.025283  0  0  -0.134688  0  4.046187  0  -0.034818  0  -0.098103  -0.133019  0  4.011009  0
C  C96  1  0.63169503  0.77866468  0.32842667  1  0  -0.11688  0  3.778724  0  0  -0.135033  0  4.025965  0  0  -0.135914  0  4.046841  0  -0.065618  0  -0.099308  -0.134245  0  4.011685  0
C  C97  1  0.30351353  0.72163843  0.67152883  1  0  -0.116599  0  3.778135  0  0  -0.133844  0  4.025194  0  0  -0.134725  0  4.046092  0  -0.034784  0  -0.098081  -0.133061  0  4.010915  0
C  C98  1  0.22973092  0.05315315  0.69002406  1  0  -0.103541  0  3.758328  0  0  -0.123533  0  4.004955  0  0  -0.123977  0  4.024932  0  -0.038619  0  -0.095441  -0.123048  0  3.991395  0
C  C99  1  0.53913565  0.44644145  0.31034297  1  0  -0.103308  0  3.757537  0  0  -0.123467  0  4.004566  0  0  -0.123881  0  4.024625  0  -0.027947  0  -0.096076  -0.122972  0  3.990965  0
C  C100  1  0.77027126  0.94684601  0.30997699  1  0  -0.103614  0  3.758409  0  0  -0.123642  0  4.005005  0  0  -0.124073  0  4.024987  0  -0.03863  0  -0.095451  -0.12316  0  3.991448  0
C  C101  1  0.46086913  0.55355855  0.68965664  1  0  -0.103335  0  3.757459  0  0  -0.123459  0  4.004479  0  0  -0.123891  0  4.024529  0  -0.028327  0  -0.09612  -0.122964  0  3.990885  0
C  C102  1  0.48508198  0.22358005  0.75247343  1  0  -0.176474  0  3.750221  0  0  -0.194694  0  4.001997  0  0  -0.199446  0  4.022552  0  0.005227  0  -0.105439  -0.191462  0  3.988174  0
C  C103  1  0.73217991  0.27627242  0.24745855  1  0  -0.177978  0  3.751228  0  0  -0.195601  0  4.003465  0  0  -0.200302  0  4.023972  0  -0.038767  0  -0.105714  -0.192424  0  3.98965  0
C  C104  1  0.51491893  0.77641911  0.24752746  1  0  -0.176489  0  3.749944  0  0  -0.19471  0  4.001726  0  0  -0.199464  0  4.022284  0  0.005219  0  -0.105421  -0.191484  0  3.987901  0
C  C105  1  0.26782232  0.72372759  0.75254199  1  0  -0.177803  0  3.751272  0  0  -0.1954  0  4.003501  0  0  -0.200093  0  4.024002  0  -0.038813  0  -0.105635  -0.192229  0  3.989682  0
C  C106  1  0.34556236  0.05450590  0.77148528  1  0  -0.179693  0  3.760091  0  0  -0.196234  0  4.009855  0  0  -0.200319  0  4.029036  0  -0.022654  0  -0.110375  -0.1935  0  3.997031  0
C  C107  1  0.57337297  0.44521890  0.22878220  1  0  -0.180072  0  3.758367  0  0  -0.195822  0  4.008672  0  0  -0.199951  0  4.027775  0  -0.117413  0  -0.109942  -0.19308  0  3.995888  0
C  C108  1  0.65444242  0.94549410  0.22851683  1  0  -0.179725  0  3.76009  0  0  -0.196248  0  4.009876  0  0  -0.200331  0  4.02905  0  -0.022711  0  -0.110353  -0.193508  0  3.997056  0
C  C109  1  0.42663192  0.55478280  0.77121826  1  0  -0.180053  0  3.758197  0  0  -0.195717  0  4.008459  0  0  -0.199853  0  4.027588  0  -0.117321  0  -0.109932  -0.192982  0  3.995658  0
C  C110  1  0.47233465  0.14082523  0.80365766  1  0  0.272929  0  3.811078  0  0  0.27058  0  4.057955  0  0  0.277746  0  4.080084  0  0.27201  0  0.073216  0.26561  0  4.042955  0
C  C111  1  0.66807808  0.35905683  0.19639031  1  0  0.274042  0  3.809458  0  0  0.270086  0  4.058057  0  0  0.277203  0  4.080313  0  0.296209  0  0.072861  0.265132  0  4.043013  0
C  C112  1  0.52767008  0.85917393  0.19634248  1  0  0.273081  0  3.810728  0  0  0.270698  0  4.057618  0  0  0.277864  0  4.079748  0  0.272006  0  0.073266  0.265728  0  4.042618  0
C  C113  1  0.33192039  0.64094402  0.80360859  1  0  0.274044  0  3.809345  0  0  0.270087  0  4.057927  0  0  0.277201  0  4.080181  0  0.2962  0  0.07288  0.265147  0  4.042871  0
N  N114  1  0.32223442  0.11745723  0.23708116  1  0  -0.654436  0  3.162419  0  0  -0.598232  0  3.392636  0  0  -0.618482  0  3.394189  0  -1.208197  0  -0.605968  -0.584001  0  3.39131  0
N  N115  1  0.08556432  0.38263874  0.76269563  1  0  -0.655734  0  3.162367  0  0  -0.599274  0  3.391613  0  0  -0.6195  0  3.392879  0  -1.179358  0  -0.605856  -0.585053  0  3.390481  0
N  N116  1  0.67776411  0.88254447  0.76292098  1  0  -0.654505  0  3.162529  0  0  -0.598323  0  3.392782  0  0  -0.618572  0  3.394333  0  -1.208008  0  -0.606064  -0.584091  0  3.391455  0
N  N117  1  0.91443160  0.61736211  0.23730295  1  0  -0.655714  0  3.162351  0  0  -0.599276  0  3.39155  0  0  -0.619502  0  3.392818  0  -1.179416  0  -0.605827  -0.585054  0  3.390416  0
N  N118  1  0.58865661  0.14345127  0.88717820  1  0  -0.658622  0  3.160941  0  0  -0.603438  0  3.392183  0  0  -0.624152  0  3.39205  0  -1.199722  0  -0.611341  -0.588864  0  3.392064  0
N  N119  1  0.70112064  0.35669458  0.11286100  1  0  -0.659438  0  3.162041  0  0  -0.602803  0  3.393206  0  0  -0.623496  0  3.393037  0  -1.184291  0  -0.611181  -0.588236  0  3.393109  0
N  N120  1  0.41134806  0.85654704  0.11282245  1  0  -0.658827  0  3.160739  0  0  -0.603606  0  3.392001  0  0  -0.624311  0  3.391841  0  -1.199661  0  -0.611396  -0.589035  0  3.391892  0
N  N121  1  0.29888286  0.64330543  0.88713845  1  0  -0.659397  0  3.16217  0  0  -0.602835  0  3.393334  0  0  -0.623528  0  3.393164  0  -1.184385  0  -0.611175  -0.588268  0  3.39323  0
Cl  Cl122  1  0.07398049  0.87762467  0.94091450  1  0  -0.553594  0  1.148398  0  0  -0.484204  0  1.441259  0  0  -0.503677  0  1.421419  0  -0.62422  0  -0.270316  -0.47025  0  1.454581  0
Cl  Cl123  1  0.13283516  0.62236054  0.05896236  1  0  -0.55358  0  1.149111  0  0  -0.484452  0  1.44247  0  0  -0.503945  0  1.422689  0  -0.623868  0  -0.270138  -0.470418  0  1.45563  0
Cl  Cl124  1  0.92602302  0.12237534  0.05908620  1  0  -0.55359  0  1.148388  0  0  -0.484182  0  1.441226  0  0  -0.503658  0  1.421386  0  -0.624241  0  -0.270313  -0.47023  0  1.454548  0
Cl  Cl125  1  0.86716841  0.37764031  0.94103783  1  0  -0.553569  0  1.149125  0  0  -0.484441  0  1.442482  0  0  -0.503933  0  1.422694  0  -0.623831  0  -0.270131  -0.470406  0  1.45564  0
Cl  Cl126  1  0.99251521  0.86738684  0.15880251  1  0  -0.53934  0  1.064852  0  0  -0.473172  0  1.347289  0  0  -0.492924  0  1.330624  0  -0.62164  0  -0.286893  -0.459104  0  1.358481  0
Cl  Cl127  1  0.83405039  0.63262711  0.84136247  1  0  -0.539537  0  1.064428  0  0  -0.473179  0  1.346401  0  0  -0.492915  0  1.329731  0  -0.621466  0  -0.287201  -0.459132  0  1.357616  0
Cl  Cl128  1  0.00748708  0.13261401  0.84119751  1  0  -0.539345  0  1.06484  0  0  -0.47317  0  1.347273  0  0  -0.492924  0  1.330608  0  -0.621735  0  -0.286902  -0.459101  0  1.358466  0
Cl  Cl129  1  0.16595068  0.36737458  0.15863750  1  0  -0.539543  0  1.064423  0  0  -0.473194  0  1.346416  0  0  -0.492933  0  1.329742  0  -0.621406  0  -0.287219  -0.459146  0  1.357632  0
Cl  Cl130  1  0.65785743  0.62119295  0.04785096  1  0  -0.54178  0  1.025148  0  0  -0.481169  0  1.306833  0  0  -0.499067  0  1.288483  0  -0.637342  0  -0.294998  -0.468413  0  1.319288  0
Cl  Cl131  1  0.61057495  0.87883538  0.95262934  1  0  -0.541484  0  1.026687  0  0  -0.480804  0  1.308551  0  0  -0.498718  0  1.290209  0  -0.634953  0  -0.294685  -0.468012  0  1.320958  0
Cl  Cl132  1  0.34214353  0.37880706  0.95214816  1  0  -0.541781  0  1.025134  0  0  -0.481163  0  1.30681  0  0  -0.499064  0  1.288458  0  -0.637409  0  -0.295001  -0.468409  0  1.319265  0
Cl  Cl133  1  0.38942856  0.12116462  0.04737074  1  0  -0.541486  0  1.026708  0  0  -0.480803  0  1.308566  0  0  -0.498722  0  1.290224  0  -0.63502  0  -0.294688  -0.468009  0  1.320971  0
