# generated using pymatgen
data_UH4C6N2O7
_symmetry_space_group_name_H-M   'P 1'
_cell_length_a   9.09219518
_cell_length_b   9.85181513
_cell_length_c   10.30526797
_cell_angle_alpha   89.99995569
_cell_angle_beta   89.99999904
_cell_angle_gamma   90.00009527
_symmetry_Int_Tables_number   1
_chemical_formula_structural   UH4C6N2O7
_chemical_formula_sum   'U4 H16 C24 N8 O28'
_cell_volume   923.09052433
_cell_formula_units_Z   4
loop_
 _symmetry_equiv_pos_site_id
 _symmetry_equiv_pos_as_xyz
  1  'x, y, z'
loop_
 _atom_site_type_symbol
 _atom_site_label
 _atom_site_symmetry_multiplicity
 _atom_site_fract_x
 _atom_site_fract_y
 _atom_site_fract_z
 _atom_site_occupancy
 _atom_site_hle17_bader_spin_density
 _atom_site_hle17_ddec_charge
 _atom_site_hle17_ddec_spin_density
 _atom_site_hle17_ddec_sum_bond_order
 _atom_site_hle17_magmom
 _atom_site_hse06_10hf_bader_spin_density
 _atom_site_hse06_10hf_ddec_charge
 _atom_site_hse06_10hf_ddec_spin_density
 _atom_site_hse06_10hf_ddec_sum_bond_order
 _atom_site_hse06_10hf_magmom
 _atom_site_hse06_bader_spin_density
 _atom_site_hse06_ddec_charge
 _atom_site_hse06_ddec_spin_density
 _atom_site_hse06_ddec_sum_bond_order
 _atom_site_hse06_magmom
 _atom_site_pbe_bader_spin_density
 _atom_site_pbe_cm5_charge
 _atom_site_pbe_ddec_charge
 _atom_site_pbe_ddec_spin_density
 _atom_site_pbe_ddec_sum_bond_order
 _atom_site_pbe_magmom
U  U0  1  0.40475237  0.91572457  0.96012898  1  0  2.452632  0  4.184905  0  0  2.502995  0  4.853686  0  0  2.611521  0  4.816399  0  0  2.198616  2.426179  0  4.881074  0
U  U1  1  0.09524770  0.08427471  0.46012677  1  0  2.452721  0  4.184645  0  0  2.502948  0  4.853427  0  0  2.611416  0  4.81625  0  0  2.198547  2.426166  0  4.880833  0
U  U2  1  0.59524827  0.41572667  0.53987323  1  0  2.45274  0  4.184784  0  0  2.503023  0  4.853531  0  0  2.611477  0  4.816401  0  0  2.198591  2.42625  0  4.880963  0
U  U3  1  0.90475013  0.58427473  0.03987161  1  0  2.452637  0  4.184748  0  0  2.503052  0  4.853509  0  0  2.611586  0  4.816206  0  0  2.198606  2.426276  0  4.880852  0
H  H4  1  0.25280709  0.17877397  0.95437880  1  0  0.433235  0  0.870668  0  0  0.403947  0  0.933307  0  0  0.41727  0  0.914264  0  0  0.300094  0.394426  0  0.946794  0
H  H5  1  0.24719627  0.82122634  0.45437992  1  0  0.433247  0  0.870658  0  0  0.403981  0  0.933266  0  0  0.417332  0  0.914189  0  0  0.300113  0.394459  0  0.946754  0
H  H6  1  0.74719421  0.67877577  0.54561874  1  0  0.433211  0  0.870703  0  0  0.403984  0  0.933255  0  0  0.417308  0  0.914209  0  0  0.300099  0.394463  0  0.946741  0
H  H7  1  0.75280419  0.32122563  0.04561926  1  0  0.433242  0  0.870658  0  0  0.403954  0  0.933292  0  0  0.41727  0  0.914255  0  0  0.300107  0.394438  0  0.946772  0
H  H8  1  0.35893111  0.21118569  0.07261909  1  0  0.41808  0  0.877319  0  0  0.384254  0  0.949222  0  0  0.397167  0  0.930775  0  0  0.304745  0.37528  0  0.961964  0
H  H9  1  0.14107225  0.78881492  0.57261752  1  0  0.418114  0  0.877286  0  0  0.384296  0  0.949164  0  0  0.397208  0  0.930719  0  0  0.304774  0.375321  0  0.961906  0
H  H10  1  0.64107025  0.71118500  0.42737920  1  0  0.418092  0  0.877306  0  0  0.384278  0  0.949189  0  0  0.397188  0  0.930746  0  0  0.304755  0.375302  0  0.961932  0
H  H11  1  0.85892705  0.28881508  0.92737800  1  0  0.418074  0  0.87732  0  0  0.384256  0  0.949223  0  0  0.397168  0  0.930777  0  0  0.304754  0.375281  0  0.961964  0
H  H12  1  0.46737260  0.35369421  0.89674996  1  0  0.116341  0  0.940122  0  0  0.119495  0  1.005494  0  0  0.124331  0  1.000964  0  0  0.135231  0.116032  0  1.008704  0
H  H13  1  0.03262747  0.64630310  0.39674927  1  0  0.116347  0  0.940104  0  0  0.11949  0  1.00549  0  0  0.124349  0  1.000928  0  0  0.135236  0.116029  0  1.008699  0
H  H14  1  0.53262792  0.85369767  0.60324843  1  0  0.116337  0  0.940167  0  0  0.119465  0  1.005564  0  0  0.124332  0  1.000991  0  0  0.135229  0.116002  0  1.008774  0
H  H15  1  0.96737048  0.14630267  0.10324810  1  0  0.116356  0  0.940144  0  0  0.119458  0  1.005573  0  0  0.124341  0  1.000979  0  0  0.135228  0.115999  0  1.008784  0
H  H16  1  0.34166378  0.45603286  0.27425373  1  0  0.113777  0  0.942709  0  0  0.120217  0  1.00685  0  0  0.123568  0  1.003782  0  0  0.134542  0.117569  0  1.009452  0
H  H17  1  0.15833849  0.54396454  0.77425138  1  0  0.113775  0  0.942661  0  0  0.120224  0  1.006797  0  0  0.123569  0  1.00374  0  0  0.134515  0.117572  0  1.009398  0
H  H18  1  0.65833583  0.95603946  0.22574826  1  0  0.113767  0  0.942627  0  0  0.12022  0  1.006766  0  0  0.123564  0  1.003717  0  0  0.134532  0.117566  0  1.00937  0
H  H19  1  0.84166257  0.04396179  0.72574820  1  0  0.113768  0  0.942665  0  0  0.120215  0  1.006797  0  0  0.123557  0  1.003749  0  0  0.134529  0.11756  0  1.0094  0
C  C20  1  0.37395866  0.62556211  0.14304020  1  0  0.088022  0  3.68328  0  0  0.097531  0  3.931425  0  0  0.096195  0  3.94665  0  0  0.14905  0.098117  0  3.920256  0
C  C21  1  0.12603811  0.37443642  0.64303700  1  0  0.087876  0  3.683474  0  0  0.097439  0  3.931603  0  0  0.096101  0  3.946833  0  0  0.149005  0.098016  0  3.920421  0
C  C22  1  0.62604035  0.12556501  0.35696301  1  0  0.087923  0  3.683388  0  0  0.097396  0  3.931638  0  0  0.096067  0  3.946858  0  0  0.14898  0.097981  0  3.920463  0
C  C23  1  0.87395695  0.87443614  0.85696234  1  0  0.087962  0  3.683326  0  0  0.097472  0  3.931525  0  0  0.096129  0  3.946751  0  0  0.148989  0.098057  0  3.920343  0
C  C24  1  0.44595442  0.56876723  0.93615399  1  0  0.068482  0  3.717607  0  0  0.07711  0  3.963039  0  0  0.073645  0  3.98005  0  0  0.14566  0.079138  0  3.950987  0
C  C25  1  0.05404784  0.43123309  0.43615250  1  0  0.068463  0  3.717519  0  0  0.07712  0  3.962976  0  0  0.073644  0  3.979993  0  0  0.145689  0.079134  0  3.950943  0
C  C26  1  0.55404668  0.06876925  0.56384654  1  0  0.068601  0  3.717553  0  0  0.077214  0  3.962979  0  0  0.073756  0  3.979989  0  0  0.145684  0.07924  0  3.95093  0
C  C27  1  0.94595172  0.93123112  0.06384660  1  0  0.068357  0  3.717566  0  0  0.077017  0  3.963011  0  0  0.073542  0  3.980034  0  0  0.14561  0.079034  0  3.950969  0
C  C28  1  0.44024721  0.43130828  0.96842686  1  0  0.12933  0  3.570575  0  0  0.092643  0  3.818777  0  0  0.099744  0  3.829881  0  0  0.093206  0.087961  0  3.811641  0
C  C29  1  0.05975506  0.56869100  0.46842623  1  0  0.129348  0  3.570486  0  0  0.092669  0  3.818716  0  0  0.099761  0  3.829811  0  0  0.093196  0.087987  0  3.811586  0
C  C30  1  0.55975235  0.93131184  0.53157438  1  0  0.129304  0  3.570685  0  0  0.092642  0  3.818931  0  0  0.099721  0  3.830019  0  0  0.09318  0.087953  0  3.811792  0
C  C31  1  0.94024715  0.06869059  0.03157411  1  0  0.129427  0  3.570516  0  0  0.09278  0  3.818753  0  0  0.099857  0  3.829838  0  0  0.093247  0.088089  0  3.811621  0
C  C32  1  0.36946127  0.48754387  0.17581378  1  0  0.13122  0  3.55705  0  0  0.091615  0  3.808782  0  0  0.09871  0  3.820092  0  0  0.098131  0.087067  0  3.801239  0
C  C33  1  0.13053879  0.51245362  0.67581144  1  0  0.131165  0  3.557047  0  0  0.091549  0  3.808788  0  0  0.098647  0  3.820097  0  0  0.09816  0.087006  0  3.801234  0
C  C34  1  0.63053729  0.98754832  0.32418916  1  0  0.131235  0  3.55691  0  0  0.091627  0  3.808692  0  0  0.098714  0  3.820003  0  0  0.098177  0.087076  0  3.801145  0
C  C35  1  0.86946001  0.01245286  0.82418913  1  0  0.131208  0  3.557021  0  0  0.091612  0  3.808779  0  0  0.098707  0  3.820088  0  0  0.098179  0.087063  0  3.801222  0
C  C36  1  0.33875275  0.74224613  0.23197137  1  0  0.652652  0  3.877468  0  0  0.60333  0  4.188186  0  0  0.639996  0  4.179513  0  0  0.241668  0.578068  0  4.193527  0
C  C37  1  0.16125172  0.25775334  0.73197505  1  0  0.652691  0  3.877393  0  0  0.603246  0  4.188275  0  0  0.639894  0  4.179628  0  0  0.241588  0.578003  0  4.193579  0
C  C38  1  0.66124867  0.24225017  0.26802981  1  0  0.652818  0  3.877302  0  0  0.603429  0  4.188122  0  0  0.640095  0  4.179449  0  0  0.241717  0.578169  0  4.193466  0
C  C39  1  0.83874863  0.75775105  0.76803117  1  0  0.652821  0  3.877161  0  0  0.603448  0  4.187966  0  0  0.640122  0  4.17928  0  0  0.241733  0.578186  0  4.193303  0
C  C40  1  0.48996475  0.62490012  0.80718013  1  0  0.693642  0  3.843932  0  0  0.65509  0  4.135833  0  0  0.695284  0  4.122593  0  0  0.262414  0.627205  0  4.144129  0
C  C41  1  0.01003532  0.37509929  0.30717868  1  0  0.693714  0  3.843833  0  0  0.655067  0  4.135891  0  0  0.695267  0  4.122642  0  0  0.262417  0.627192  0  4.144186  0
C  C42  1  0.51003646  0.12490095  0.69282036  1  0  0.693571  0  3.843921  0  0  0.655035  0  4.135807  0  0  0.695232  0  4.122564  0  0  0.262378  0.627149  0  4.144103  0
C  C43  1  0.98996304  0.87509932  0.19282046  1  0  0.693766  0  3.843776  0  0  0.65513  0  4.13582  0  0  0.695331  0  4.122569  0  0  0.262419  0.627251  0  4.144115  0
N  N44  1  0.41041084  0.66377443  0.02313258  1  0  -0.338844  0  3.339238  0  0  -0.321655  0  3.609392  0  0  -0.335391  0  3.633495  0  0  -0.338768  -0.310404  0  3.589682  0
N  N45  1  0.08958703  0.33622419  0.52312941  1  0  -0.338745  0  3.339441  0  0  -0.321546  0  3.609559  0  0  -0.335268  0  3.633661  0  0  -0.338749  -0.310295  0  3.589856  0
N  N46  1  0.58958934  0.16377820  0.47686963  1  0  -0.338796  0  3.339276  0  0  -0.321577  0  3.609437  0  0  -0.335302  0  3.633532  0  0  -0.338729  -0.310327  0  3.589726  0
N  N47  1  0.91040796  0.83622285  0.97686996  1  0  -0.338772  0  3.33922  0  0  -0.321568  0  3.609361  0  0  -0.335304  0  3.633469  0  0  -0.338716  -0.310325  0  3.589649  0
N  N48  1  0.40049440  0.39142662  0.08796166  1  0  -0.235082  0  3.052366  0  0  -0.18357  0  3.304838  0  0  -0.193538  0  3.315561  0  0  -0.26584  -0.176433  0  3.297155  0
N  N49  1  0.09950787  0.60857297  0.58796022  1  0  -0.235065  0  3.052304  0  0  -0.183566  0  3.304799  0  0  -0.193535  0  3.315526  0  0  -0.265891  -0.176429  0  3.29711  0
N  N50  1  0.59950619  0.89142790  0.41203941  1  0  -0.23506  0  3.052281  0  0  -0.183554  0  3.304765  0  0  -0.193521  0  3.315499  0  0  -0.265861  -0.176421  0  3.297081  0
N  N51  1  0.90049110  0.10857422  0.91203931  1  0  -0.235073  0  3.052268  0  0  -0.183591  0  3.304772  0  0  -0.193562  0  3.315508  0  0  -0.265882  -0.176459  0  3.297085  0
O  O52  1  0.33665875  0.85841357  0.17410966  1  0  -0.64522  0  2.021115  0  0  -0.639295  0  2.300684  0  0  -0.676536  0  2.297345  0  0  -0.362545  -0.612643  0  2.302642  0
O  O53  1  0.16334572  0.14158493  0.67410275  1  0  -0.645167  0  2.020732  0  0  -0.639235  0  2.300401  0  0  -0.676463  0  2.297079  0  0  -0.362489  -0.612584  0  2.302343  0
O  O54  1  0.66334508  0.35841555  0.32589337  1  0  -0.645312  0  2.021015  0  0  -0.639377  0  2.300624  0  0  -0.676604  0  2.297294  0  0  -0.3626  -0.612729  0  2.302594  0
O  O55  1  0.83665002  0.64158461  0.82589288  1  0  -0.645304  0  2.021002  0  0  -0.639361  0  2.30059  0  0  -0.676602  0  2.297244  0  0  -0.362584  -0.61272  0  2.302553  0
O  O56  1  0.31627851  0.72049271  0.34960442  1  0  -0.555976  0  1.987492  0  0  -0.5119  0  2.211437  0  0  -0.538255  0  2.202896  0  0  -0.268989  -0.493307  0  2.216764  0
O  O57  1  0.18372596  0.27950362  0.84959643  1  0  -0.556001  0  1.9879  0  0  -0.511793  0  2.211808  0  0  -0.538126  0  2.203274  0  0  -0.268904  -0.493218  0  2.21713  0
O  O58  1  0.68372507  0.22049790  0.15039872  1  0  -0.556107  0  1.98759  0  0  -0.511916  0  2.211476  0  0  -0.538261  0  2.202939  0  0  -0.268983  -0.493328  0  2.216807  0
O  O59  1  0.81627333  0.77950443  0.65039715  1  0  -0.556031  0  1.987328  0  0  -0.51195  0  2.21128  0  0  -0.538297  0  2.202734  0  0  -0.269016  -0.493366  0  2.216609  0
O  O60  1  0.48897060  0.75338711  0.79745690  1  0  -0.625642  0  2.033236  0  0  -0.605648  0  2.289555  0  0  -0.638439  0  2.282816  0  0  -0.326745  -0.582347  0  2.293526  0
O  O61  1  0.01102616  0.24661231  0.29745748  1  0  -0.625643  0  2.033233  0  0  -0.605622  0  2.289622  0  0  -0.638406  0  2.282882  0  0  -0.326731  -0.582319  0  2.293593  0
O  O62  1  0.51103303  0.25338692  0.70254544  1  0  -0.625593  0  2.0332  0  0  -0.605615  0  2.289533  0  0  -0.638389  0  2.28279  0  0  -0.32671  -0.582317  0  2.293508  0
O  O63  1  0.98897197  0.74661233  0.20254272  1  0  -0.625663  0  2.033172  0  0  -0.605653  0  2.289561  0  0  -0.638447  0  2.282814  0  0  -0.326743  -0.582365  0  2.293533  0
O  O64  1  0.52432491  0.54413943  0.71689818  1  0  -0.644279  0  2.112174  0  0  -0.626702  0  2.387667  0  0  -0.661747  0  2.378765  0  0  -0.366787  -0.601415  0  2.392749  0
O  O65  1  0.97567568  0.45585980  0.21689665  1  0  -0.644335  0  2.112156  0  0  -0.626712  0  2.387663  0  0  -0.661778  0  2.378755  0  0  -0.366795  -0.601434  0  2.392741  0
O  O66  1  0.47567504  0.04413912  0.78310140  1  0  -0.644284  0  2.112122  0  0  -0.626702  0  2.387595  0  0  -0.661769  0  2.37869  0  0  -0.366789  -0.60142  0  2.392672  0
O  O67  1  0.02432172  0.95586132  0.28310243  1  0  -0.644349  0  2.112082  0  0  -0.62674  0  2.38763  0  0  -0.661787  0  2.378721  0  0  -0.366791  -0.601455  0  2.392709  0
O  O68  1  0.22145557  0.88877308  0.89823832  1  0  -0.677172  0  1.555331  0  0  -0.689358  0  1.840059  0  0  -0.712229  0  1.830686  0  0  -0.754954  -0.675951  0  1.847573  0
O  O69  1  0.27854559  0.11122829  0.39823220  1  0  -0.677187  0  1.555052  0  0  -0.689338  0  1.839797  0  0  -0.712201  0  1.830428  0  0  -0.7549  -0.675939  0  1.84731  0
O  O70  1  0.77854721  0.38877642  0.60176586  1  0  -0.677208  0  1.555182  0  0  -0.689388  0  1.839938  0  0  -0.712252  0  1.830579  0  0  -0.75491  -0.675984  0  1.84745  0
O  O71  1  0.72145449  0.61122696  0.10176519  1  0  -0.677164  0  1.555214  0  0  -0.689386  0  1.839949  0  0  -0.712254  0  1.830574  0  0  -0.75497  -0.675976  0  1.847457  0
O  O72  1  0.59055570  0.93372381  0.02018447  1  0  -0.704388  0  1.614152  0  0  -0.723042  0  1.921827  0  0  -0.747156  0  1.912898  0  0  -0.757571  -0.708073  0  1.928624  0
O  O73  1  0.90944710  0.06627558  0.52018440  1  0  -0.704437  0  1.614198  0  0  -0.723031  0  1.921877  0  0  -0.747128  0  1.912941  0  0  -0.757572  -0.708073  0  1.928675  0
O  O74  1  0.40944717  0.43372324  0.47981657  1  0  -0.704418  0  1.614162  0  0  -0.723013  0  1.921841  0  0  -0.747118  0  1.912913  0  0  -0.757548  -0.70806  0  1.928646  0
O  O75  1  0.09055400  0.56627603  0.97981419  1  0  -0.70439  0  1.614104  0  0  -0.723064  0  1.921789  0  0  -0.747185  0  1.912863  0  0  -0.757536  -0.708097  0  1.92858  0
O  O76  1  0.31289046  0.13295847  0.02537629  1  0  -0.870822  0  1.900378  0  0  -0.847096  0  2.106488  0  0  -0.874182  0  2.071719  0  0  -0.621171  -0.8265  0  2.13035  0
O  O77  1  0.18711401  0.86704117  0.52537563  1  0  -0.870901  0  1.900337  0  0  -0.847164  0  2.106398  0  0  -0.874264  0  2.071573  0  0  -0.621208  -0.826566  0  2.130261  0
O  O78  1  0.68711077  0.63295882  0.47462303  1  0  -0.870835  0  1.900393  0  0  -0.847132  0  2.106413  0  0  -0.874202  0  2.071644  0  0  -0.621163  -0.826527  0  2.130278  0
O  O79  1  0.81288653  0.36704223  0.97462177  1  0  -0.870827  0  1.90034  0  0  -0.8471  0  2.106452  0  0  -0.874184  0  2.071695  0  0  -0.621182  -0.826506  0  2.130304  0
