# generated using pymatgen
data_Al2H20(C3O)11
_symmetry_space_group_name_H-M   'P 1'
_cell_length_a   6.66515263
_cell_length_b   22.46552099
_cell_length_c   23.81564385
_cell_angle_alpha   112.69740296
_cell_angle_beta   89.95164067
_cell_angle_gamma   90.19536083
_symmetry_Int_Tables_number   1
_chemical_formula_structural   Al2H20(C3O)11
_chemical_formula_sum   'Al4 H40 C66 O22'
_cell_volume   3289.87108219
_cell_formula_units_Z   2
loop_
 _symmetry_equiv_pos_site_id
 _symmetry_equiv_pos_as_xyz
  1  'x, y, z'
loop_
 _atom_site_type_symbol
 _atom_site_label
 _atom_site_symmetry_multiplicity
 _atom_site_fract_x
 _atom_site_fract_y
 _atom_site_fract_z
 _atom_site_occupancy
 _atom_site_pbe_bader_charge
 _atom_site_pbe_bader_spin_density
 _atom_site_pbe_cm5_charge
 _atom_site_pbe_ddec_charge
 _atom_site_pbe_ddec_spin_density
 _atom_site_pbe_ddec_sum_bond_order
 _atom_site_pbe_magmom
Al  Al0  1  0.11522766  0.50080164  0.50045499  1  2.502675  0  0.398433  1.648904  0  2.579313  0
Al  Al1  1  0.61415083  0.49841403  0.49717985  1  2.501372  0  0.399008  1.645267  0  2.579857  0
Al  Al2  1  0.69397691  0.99922234  0.99906571  1  2.502524  0  0.399646  1.651376  0  2.579264  0
Al  Al3  1  0.19409329  0.00171038  0.00245821  1  2.503056  0  0.399004  1.651906  0  2.580597  0
H  H4  1  0.61564964  0.91061469  0.11711981  1  0.091576  0  0.109082  0.113552  0  1.003643  0
H  H5  1  0.60213323  0.84688963  0.18245187  1  0.047465  0  0.097492  0.093269  0  1.027911  0
H  H6  1  0.24359419  0.82243103  0.16640914  1  0.05072  0  0.096655  0.091501  0  1.030261  0
H  H7  1  0.25511591  0.88950903  0.10410867  1  0.090774  0  0.107291  0.110056  0  1.007273  0
H  H8  1  0.20129883  0.82030063  0.25899470  1  0.065692  0  0.101237  0.100063  0  1.006976  0
H  H9  1  0.18674262  0.75323751  0.31937094  1  0.067311  0  0.100958  0.098905  0  1.008417  0
H  H10  1  0.60877116  0.67999338  0.24156429  1  0.068861  0  0.10154  0.099952  0  1.006106  0
H  H11  1  0.62350936  0.74708114  0.18121207  1  0.06619  0  0.100803  0.099226  0  1.007748  0
H  H12  1  0.56600816  0.67851911  0.33432798  1  0.045193  0  0.097086  0.091831  0  1.030069  0
H  H13  1  0.55259935  0.61185414  0.39700057  1  0.085933  0  0.109216  0.112964  0  1.003533  0
H  H14  1  0.19235298  0.59067509  0.38479911  1  0.101505  0  0.110397  0.115141  0  1.001273  0
H  H15  1  0.20749553  0.65383479  0.31895601  1  0.051384  0  0.09795  0.094007  0  1.026837  0
H  H16  1  0.56470943  0.62037949  0.67617048  1  0.115599  0  0.113934  0.120383  0  0.982849  0
H  H17  1  0.29241687  0.78915344  0.72666682  1  0.157265  0  0.105969  0.11791  0  1.029747  0
H  H18  1  0.53494484  0.71425923  0.77511266  1  0.084912  0  0.109411  0.108061  0  0.988503  0
H  H19  1  0.26138297  0.87877557  0.82790410  1  0.086157  0  0.111174  0.117974  0  0.99004  0
H  H20  1  0.66854306  0.81504636  0.84970602  1  0.089589  0  0.108701  0.112312  0  0.999358  0
H  H21  1  0.64946509  0.32328121  0.34737970  1  0.106136  0  0.110508  0.117346  0  0.997833  0
H  H22  1  0.03812982  0.37287789  0.32799852  1  0.099742  0  0.111877  0.120641  0  0.990912  0
H  H23  1  0.79734917  0.22317472  0.27035603  1  0.051932  0  0.102656  0.102833  0  1.012423  0
H  H24  1  0.01044252  0.27866945  0.22879053  1  0.077531  0  0.102464  0.102145  0  1.013606  0
H  H25  1  0.76948415  0.12904147  0.17116638  1  0.097393  0  0.110554  0.118233  0  0.993636  0
H  H26  1  0.15847973  0.17900849  0.15180322  1  0.096919  0  0.108861  0.113904  0  1.001078  0
H  H27  1  0.11565751  0.09948763  0.89315681  1  0.099268  0  0.108253  0.111268  0  1.00837  0
H  H28  1  0.10001158  0.16647039  0.83101684  1  0.046156  0  0.098775  0.094765  0  1.029208  0
H  H29  1  0.74603673  0.17010614  0.82590273  1  0.052893  0  0.098054  0.093847  0  1.029032  0
H  H30  1  0.75815398  0.10470263  0.88971102  1  0.077279  0  0.107211  0.109576  0  1.010037  0
H  H31  1  0.69133713  0.26594303  0.82393559  1  0.094711  0  0.107491  0.110014  0  1.009833  0
H  H32  1  0.11785022  0.24505548  0.68506757  1  0.075923  0  0.105239  0.104465  0  0.994048  0
H  H33  1  0.13127777  0.17600556  0.74353719  1  0.072871  0  0.10654  0.103297  0  0.996932  0
H  H34  1  0.07760896  0.35844433  0.70032148  1  0.081998  0  0.101279  0.104791  0  1.027773  0
H  H35  1  0.06080834  0.41738808  0.63021488  1  0.082888  0  0.10816  0.111427  0  0.998255  0
H  H36  1  0.68414619  0.37755308  0.58666322  1  0.080481  0  0.10739  0.108944  0  1.003986  0
H  H37  1  0.69802694  0.31376599  0.65177903  1  0.049895  0  0.101379  0.100288  0  1.010751  0
H  H38  1  0.10824534  0.67536672  0.57885069  1  0.095417  0  0.105756  0.040235  0  0.972575  0
H  H39  1  0.67494203  0.39160352  0.76109211  1  0.053304  0  0.100116  0.037071  0  0.97751  0
H  H40  1  0.37527421  0.58330954  0.53879500  1  0.604217  0  0.349576  0.428731  0  0.864928  0
H  H41  1  0.86571740  0.42183281  0.49919103  1  0.618993  0  0.353641  0.4302  0  0.853891  0
H  H42  1  0.43818936  0.91554619  0.97400429  1  0.630852  0  0.357056  0.434846  0  0.845289  0
H  H43  1  0.94045164  0.08498393  0.02064195  1  0.615245  0  0.358245  0.435878  0  0.843607  0
C  C44  1  0.35932502  0.40907080  0.40237299  1  1.569981  0  0.269138  0.641542  0  4.099631  0
C  C45  1  0.36557230  0.43685643  0.56296505  1  1.567147  0  0.264534  0.640544  0  4.101163  0
C  C46  1  0.86111334  0.59278566  0.59567552  1  1.562578  0  0.267082  0.635916  0  4.099568  0
C  C47  1  0.86530662  0.56083357  0.43509822  1  1.560064  0  0.267415  0.638359  0  4.105552  0
C  C48  1  0.75205733  0.89106436  0.12847852  1  -0.051735  0  -0.08045  -0.082635  0  3.980487  0
C  C49  1  0.74558306  0.85488985  0.16439348  1  0.002186  0  -0.092139  -0.135879  0  3.986833  0
C  C50  1  0.92176204  0.82931706  0.17878875  1  -0.075973  0  -0.002344  0.077001  0  3.994622  0
C  C51  1  0.10565192  0.84275104  0.15687372  1  -0.070405  0  -0.092267  -0.136153  0  3.985494  0
C  C52  1  0.11308931  0.87960824  0.12155446  1  -0.014026  0  -0.080703  -0.081501  0  3.981196  0
C  C53  1  0.93605137  0.90351986  0.10646523  1  -0.020723  0  -0.01839  -0.050885  0  3.982444  0
C  C54  1  0.07194393  0.78883427  0.25417549  1  -0.096392  0  -0.090884  -0.125655  0  3.994151  0
C  C55  1  0.06376568  0.75076298  0.28834515  1  -0.017029  0  -0.090932  -0.125028  0  3.994452  0
C  C56  1  0.89656145  0.71120808  0.28536389  1  -0.04232  0  -0.008775  0.062079  0  4.004691  0
C  C57  1  0.73810909  0.71148486  0.24645827  1  -0.026207  0  -0.090512  -0.124101  0  3.992648  0
C  C58  1  0.74636960  0.74953967  0.21227128  1  -0.083749  0  -0.090631  -0.125551  0  3.993612  0
C  C59  1  0.91335547  0.78919086  0.21534496  1  0.026263  0  -0.009205  0.062709  0  4.005041  0
C  C60  1  0.70357158  0.65815283  0.34406420  1  -0.050848  0  -0.09173  -0.136728  0  3.985861  0
C  C61  1  0.69497532  0.62149205  0.37955042  1  -0.012043  0  -0.078766  -0.079909  0  3.97716  0
C  C62  1  0.87176657  0.59762398  0.39486875  1  -0.015841  0  -0.017778  -0.052369  0  3.984453  0
C  C63  1  0.05622136  0.61003226  0.37306238  1  -0.079122  0  -0.079317  -0.081834  0  3.978154  0
C  C64  1  0.06371683  0.64594243  0.33690984  1  -0.009417  0  -0.091515  -0.136093  0  3.983932  0
C  C65  1  0.88777537  0.67132621  0.32214518  1  0.006823  0  -0.001663  0.079617  0  3.992878  0
C  C66  1  0.85217078  0.65026620  0.65442192  1  -0.038064  0  -7.4e-05  -0.05572  0  3.939113  0
C  C67  1  0.96120162  0.85254710  0.84453528  1  0.023666  0  -0.01423  -0.038375  0  3.99642  0
C  C68  1  0.15660662  0.79450268  0.75352484  1  -0.059067  0  -0.090411  -0.138071  0  3.982569  0
C  C69  1  0.13932493  0.84426969  0.80962782  1  -0.015515  0  -0.08268  -0.093066  0  3.98682  0
C  C70  1  0.80566866  0.80879532  0.82301930  1  -0.085141  0  -0.073837  -0.133527  0  3.929754  0
C  C71  1  0.82308873  0.75504058  0.76706341  1  0.016942  0  -0.001042  0.075199  0  3.998364  0
C  C72  1  0.00014141  0.74811978  0.73037432  1  -0.046043  0  0.007452  0.061796  0  3.925581  0
C  C73  1  0.00812042  0.69565940  0.67208820  1  -0.004794  0  -0.00668  -0.042544  0  3.912293  0
C  C74  1  0.68300725  0.65655926  0.69200700  1  -0.026574  0  -0.078586  -0.082953  0  3.993362  0
C  C75  1  0.66789919  0.70826853  0.74670362  1  -0.028351  0  -0.071678  -0.101389  0  3.961719  0
C  C76  1  0.34678856  0.35291663  0.34304405  1  -0.035421  0  -0.015088  -0.040726  0  3.99445  0
C  C77  1  0.46123753  0.14923222  0.15593280  1  -0.062904  0  -0.015424  -0.041203  0  3.995279  0
C  C78  1  0.65914902  0.21398510  0.24381110  1  -0.023905  0  -0.088918  -0.133707  0  3.999515  0
C  C79  1  0.64388349  0.16180962  0.18935870  1  -0.067686  0  -0.085826  -0.101452  0  3.993957  0
C  C80  1  0.29818804  0.18961913  0.17770994  1  0.002331  0  -0.074727  -0.133915  0  3.925697  0
C  C81  1  0.31186116  0.24475794  0.23259311  1  -0.019638  0  -0.002888  0.079179  0  3.998748  0
C  C82  1  0.49617616  0.25731863  0.26653382  1  0.033947  0  -0.003543  0.078197  0  3.997204  0
C  C83  1  0.50993838  0.31253979  0.32138077  1  -0.03917  0  -0.073524  -0.134018  0  3.921762  0
C  C84  1  0.16395060  0.34021937  0.30971303  1  -0.054259  0  -0.084822  -0.100863  0  3.990448  0
C  C85  1  0.14870113  0.28797712  0.25532038  1  -0.059578  0  -0.088795  -0.133002  0  4.001079  0
C  C86  1  0.25258229  0.11531698  0.87796299  1  -0.08246  0  -0.079535  -0.080291  0  3.97824  0
C  C87  1  0.24520527  0.15224020  0.84275381  1  0.022713  0  -0.09022  -0.13449  0  3.983702  0
C  C88  1  0.42214002  0.17342232  0.82387404  1  -0.033441  0  -0.001806  0.077968  0  3.992332  0
C  C89  1  0.60701727  0.15532419  0.84099577  1  -0.072215  0  -0.09015  -0.133506  0  3.982424  0
C  C90  1  0.61500638  0.11850056  0.87632017  1  0.016344  0  -0.080182  -0.081362  0  3.981073  0
C  C91  1  0.43765061  0.09847752  0.89552707  1  -0.011053  0  -0.017409  -0.049068  0  3.976457  0
C  C92  1  0.56617536  0.25902607  0.79253291  1  -0.057776  0  -0.073933  -0.131661  0  3.912997  0
C  C93  1  0.55885969  0.29918504  0.75984836  1  -0.020396  0  -0.021507  -0.031272  0  3.986796  0
C  C94  1  0.39631039  0.29455248  0.72001855  1  -0.02537  0  0.006764  0.049165  0  3.948644  0
C  C95  1  0.24311521  0.25002113  0.71598891  1  -0.049972  0  -0.080933  -0.108057  0  3.979889  0
C  C96  1  0.25144920  0.21085131  0.74897350  1  -0.042768  0  -0.0743  -0.097471  0  3.94861  0
C  C97  1  0.41406390  0.21426556  0.78794704  1  0.002724  0  -0.003423  0.063989  0  4.001032  0
C  C98  1  0.20864851  0.36109204  0.67389328  1  -0.008814  0  -0.08783  -0.131367  0  3.962024  0
C  C99  1  0.19975631  0.39462639  0.63552587  1  -0.070861  0  -0.079769  -0.081871  0  3.974394  0
C  C100  1  0.37146062  0.40080973  0.60406146  1  0.021024  0  -0.017103  -0.048109  0  3.976477  0
C  C101  1  0.55162776  0.37257098  0.61131733  1  -0.0672  0  -0.08175  -0.081526  0  3.984793  0
C  C102  1  0.55940937  0.33798933  0.64864798  1  -0.017259  0  -0.090062  -0.141702  0  4.002688  0
C  C103  1  0.38866025  0.33207999  0.68101137  1  -0.022434  0  -0.001942  0.072099  0  4.002678  0
C  C104  1  0.44364233  0.06114139  0.93543485  1  1.570024  0  0.264231  0.63696  0  4.109073  0
C  C105  1  0.44859357  0.09315422  0.09647442  1  1.574378  0  0.268587  0.643569  0  4.094326  0
C  C106  1  0.94186772  0.94037900  0.06620078  1  1.579877  0  0.264816  0.637413  0  4.110683  0
C  C107  1  0.94733190  0.90765510  0.90469494  1  1.554095  0  0.268841  0.64486  0  4.091734  0
C  C108  1  0.16495555  0.69242535  0.62644206  1  0.910424  0  0.100769  0.2826  0  3.975652  0
C  C109  1  0.71569908  0.34950582  0.77240224  1  0.928099  0  0.091096  0.260878  0  3.996245  0
O  O110  1  0.53475371  0.44987815  0.54526650  1  -1.256927  0  -0.239603  -0.605424  0  2.360145  0
O  O111  1  0.19304721  0.43311893  0.42676825  1  -1.262383  0  -0.231703  -0.586719  0  2.364119  0
O  O112  1  0.03295738  0.54945614  0.45459030  1  -1.25562  0  -0.235741  -0.59464  0  2.365668  0
O  O113  1  0.19376091  0.45132001  0.54833160  1  -1.25252  0  -0.239849  -0.600647  0  2.329968  0
O  O114  1  0.03451328  0.57065073  0.57542609  1  -1.24865  0  -0.232747  -0.598578  0  2.363096  0
O  O115  1  0.53231741  0.42830134  0.42490985  1  -1.263252  0  -0.234526  -0.588634  0  2.338082  0
O  O116  1  0.36617262  0.53912602  0.50944175  1  -1.406324  0  -0.448853  -0.991742  0  2.191476  0
O  O117  1  0.69395385  0.57021878  0.57079130  1  -1.251306  0  -0.230607  -0.585624  0  2.358736  0
O  O118  1  0.69386971  0.54441990  0.44817231  1  -1.249301  0  -0.234052  -0.585542  0  2.339161  0
O  O119  1  0.86532182  0.46136081  0.49191845  1  -1.421963  0  -0.448735  -0.991646  0  2.208573  0
O  O120  1  0.27512336  0.07309742  0.07468431  1  -1.255192  0  -0.236306  -0.593391  0  2.329312  0
O  O121  1  0.61535902  0.04583922  0.94926653  1  -1.258646  0  -0.239205  -0.596973  0  2.336168  0
O  O122  1  0.77379236  0.92706402  0.92656148  1  -1.257194  0  -0.237211  -0.59453  0  2.318786  0
O  O123  1  0.61510435  0.07010331  0.07143437  1  -1.263135  0  -0.234293  -0.592944  0  2.360202  0
O  O124  1  0.77337004  0.95314621  0.04828038  1  -1.258304  0  -0.237683  -0.596106  0  2.36317  0
O  O125  1  0.27494418  0.04846160  0.95354632  1  -1.255592  0  -0.23758  -0.598211  0  2.364131  0
O  O126  1  0.44264989  0.96214725  0.99307691  1  -1.433732  0  -0.44814  -0.996885  0  2.216935  0
O  O127  1  0.11365918  0.95530116  0.05181622  1  -1.261284  0  -0.238489  -0.59538  0  2.34118  0
O  O128  1  0.11409090  0.93074892  0.92983140  1  -1.255905  0  -0.234389  -0.595491  0  2.361649  0
O  O129  1  0.94335215  0.03856255  0.00780956  1  -1.418143  0  -0.448549  -0.998122  0  2.221464  0
O  O130  1  0.34071506  0.70938483  0.63736422  1  -1.096347  0  -0.26202  -0.362484  0  2.161918  0
O  O131  1  0.88019020  0.34745994  0.79489956  1  -1.093752  0  -0.273889  -0.370623  0  2.12383  0
