# generated using pymatgen
data_CuH15C18S2N3O5
_symmetry_space_group_name_H-M   'P 1'
_cell_length_a   9.88944144
_cell_length_b   10.29255145
_cell_length_c   12.47805964
_cell_angle_alpha   73.40380907
_cell_angle_beta   68.75534194
_cell_angle_gamma   69.63453558
_symmetry_Int_Tables_number   1
_chemical_formula_structural   CuH15C18S2N3O5
_chemical_formula_sum   'Cu2 H30 C36 S4 N6 O10'
_cell_volume   1091.14800735
_cell_formula_units_Z   2
loop_
 _symmetry_equiv_pos_site_id
 _symmetry_equiv_pos_as_xyz
  1  'x, y, z'
loop_
 _atom_site_type_symbol
 _atom_site_label
 _atom_site_symmetry_multiplicity
 _atom_site_fract_x
 _atom_site_fract_y
 _atom_site_fract_z
 _atom_site_occupancy
 _atom_site_hle17_ddec_charge
 _atom_site_hle17_ddec_spin_density
 _atom_site_hle17_ddec_sum_bond_order
 _atom_site_hle17_magmom
 _atom_site_hse06_10hf_ddec_charge
 _atom_site_hse06_10hf_ddec_spin_density
 _atom_site_hse06_10hf_ddec_sum_bond_order
 _atom_site_hse06_10hf_magmom
 _atom_site_hse06_ddec_charge
 _atom_site_hse06_ddec_spin_density
 _atom_site_hse06_ddec_sum_bond_order
 _atom_site_hse06_magmom
 _atom_site_pbe_cm5_charge
 _atom_site_pbe_ddec_charge
 _atom_site_pbe_ddec_spin_density
 _atom_site_pbe_ddec_sum_bond_order
 _atom_site_pbe_magmom
Cu  Cu0  1  0.94340633  0.50179776  0.37747523  1  0.864474  -0.676818  1.840644  -0.499  0.860341  -0.784446  2.229043  -0.634  0.948229  -0.848432  2.162931  -0.719  0.747155  0.806548  -0.738662  2.274994  -0.578
Cu  Cu1  1  0.05659335  0.49819838  0.62251975  1  0.863763  -0.676364  1.841012  -0.499  0.860098  -0.78439  2.229149  -0.634  0.947988  -0.848405  2.163016  -0.719  0.747113  0.806397  -0.738619  2.275001  -0.578
H  H2  1  0.28307289  0.41582930  0.32989893  1  0.093055  -0.001059  0.937064  -0.002  0.10343  -0.001103  0.994707  -0.002  0.105751  -0.000768  0.992578  -0.002  0.122174  0.101331  -0.001337  0.996758  -0.002
H  H3  1  0.71692849  0.58417665  0.67010671  1  0.093046  -0.001066  0.937056  -0.002  0.103395  -0.001104  0.994731  -0.002  0.105715  -0.000769  0.992603  -0.002  0.122176  0.101295  -0.001337  0.996783  -0.002
H  H4  1  0.49123819  0.19111754  0.29261319  1  0.09972  -0.000423  0.966922  0.0  0.109918  -0.000523  1.02945  0.0  0.112326  -0.000386  1.029823  0.0  0.106784  0.108048  -0.000559  1.029676  -0.001
H  H5  1  0.50876755  0.80889558  0.70738214  1  0.099683  -0.000426  0.966774  0.0  0.109911  -0.000523  1.029267  0.0  0.112318  -0.000386  1.029638  0.0  0.106757  0.108037  -0.000559  1.029494  -0.001
H  H6  1  0.42071385  0.97641225  0.30272531  1  0.114711  -0.000197  0.937947  0.0  0.126387  -2.7e-05  0.990756  0.0  0.129689  3.5e-05  0.988029  0.0  0.114681  0.123583  -6.7e-05  0.993363  0.0
H  H7  1  0.57929699  0.02359464  0.69727489  1  0.114745  -0.000201  0.937881  0.0  0.12639  -2.8e-05  0.99074  0.0  0.129694  3.5e-05  0.988009  0.0  0.114639  0.123585  -6.7e-05  0.993348  0.0
H  H8  1  0.15245603  0.99088312  0.34082374  1  0.11651  -0.000621  0.988366  -0.001  0.121248  -0.000455  1.058344  -0.001  0.125055  -0.000292  1.056644  -0.001  0.103583  0.117963  -0.000815  1.060525  -0.001
H  H9  1  0.84755172  0.00911975  0.65918480  1  0.11638  -0.000598  0.988398  -0.001  0.121163  -0.000455  1.058332  -0.001  0.124977  -0.000292  1.056632  -0.001  0.103545  0.117878  -0.000815  1.06051  -0.001
H  H10  1  0.61734077  0.51245890  0.41823280  1  0.08824  -0.000952  0.944455  -0.002  0.097407  -0.00098  1.004769  -0.002  0.099331  -0.000693  1.003109  -0.001  0.122979  0.096013  -0.001328  1.006061  -0.002
H  H11  1  0.38265223  0.48753414  0.58176574  1  0.088234  -0.000981  0.944445  -0.002  0.097385  -0.000981  1.004777  -0.002  0.099308  -0.000693  1.003118  -0.001  0.122979  0.09599  -0.001329  1.006069  -0.002
H  H12  1  0.48115660  0.32918274  0.45381323  1  0.115762  -0.000399  0.97427  -0.001  0.121587  -0.000491  1.039481  -0.001  0.126035  -0.000354  1.037134  0.0  0.109147  0.119317  -0.000692  1.03951  -0.001
H  H13  1  0.51884954  0.67079882  0.54619074  1  0.115808  -0.000394  0.974102  0.0  0.121571  -0.000491  1.039381  -0.001  0.126019  -0.000354  1.037033  0.0  0.109187  0.119302  -0.000692  1.039411  -0.001
H  H14  1  0.63554716  0.08199227  0.43157577  1  0.111867  -0.000158  0.957816  0.0  0.118855  -2.7e-05  1.02268  0.0  0.122309  2.6e-05  1.019895  0.0  0.110472  0.116535  -5.3e-05  1.024353  0.0
H  H15  1  0.36446638  0.91799783  0.56843028  1  0.111909  -0.000151  0.957683  0.0  0.118843  -2.7e-05  1.022628  0.0  0.122286  2.6e-05  1.019851  0.0  0.110466  0.116523  -5.3e-05  1.0243  0.0
H  H16  1  0.91588553  0.02486243  0.37943299  1  0.103907  -0.000554  0.964256  -0.001  0.114167  -0.000578  1.026333  -0.001  0.115819  -0.000426  1.027996  -0.001  0.105631  0.112905  -0.000725  1.025232  -0.001
H  H17  1  0.08412213  0.97513294  0.62057266  1  0.104004  -0.000534  0.964176  -0.001  0.114248  -0.000577  1.026265  -0.001  0.115904  -0.000426  1.027912  -0.001  0.105661  0.112986  -0.000725  1.025162  -0.001
H  H18  1  0.19007508  0.53780955  0.11054069  1  0.019304  8.2e-05  0.923971  0.0  0.026258  9.9e-05  0.997627  0.0  0.029116  9.7e-05  0.991493  0.0  0.109452  0.024132  0.000103  1.002213  0.0
H  H19  1  0.80992711  0.46218565  0.88945860  1  0.019327  6.3e-05  0.923981  0.0  0.026295  0.000102  0.997626  0.0  0.029158  9.6e-05  0.991483  0.0  0.109463  0.02417  0.000103  1.00221  0.0
H  H20  1  0.85782076  0.69887566  0.01456761  1  0.113448  -6.7e-05  0.935857  0.0  0.132645  -1.6e-05  0.995501  0.0  0.13488  -2e-05  0.993479  0.0  0.106852  0.130834  -1e-05  0.997349  0.0
H  H21  1  0.14217201  0.30112593  0.98543364  1  0.113443  -8.4e-05  0.935772  0.0  0.132623  -1.6e-05  0.995426  0.0  0.134856  -2e-05  0.993406  0.0  0.106863  0.130814  -1e-05  0.997276  0.0
H  H22  1  0.96544063  0.65951416  0.87109517  1  0.100287  3.6e-05  0.970404  0.0  0.118758  1.4e-05  1.033437  0.0  0.118828  1.2e-05  1.034717  0.0  0.098262  0.118859  2e-05  1.032439  0.0
H  H23  1  0.03456284  0.34048428  0.12890614  1  0.100273  5.8e-05  0.970385  0.0  0.118742  1.5e-05  1.033446  0.0  0.11881  1.2e-05  1.034729  0.0  0.098276  0.118842  2e-05  1.032447  0.0
H  H24  1  0.94894842  0.82238453  0.90506827  1  0.075638  -0.000121  1.002986  0.0  0.089624  3e-06  1.084582  0.0  0.08934  -0.0  1.086552  0.0  0.084952  0.08979  -1e-05  1.083276  0.0
H  H25  1  0.05105259  0.17761501  0.09493508  1  0.075642  -0.000144  1.003004  0.0  0.089605  3e-06  1.084628  0.0  0.08932  -1e-06  1.086598  0.0  0.084939  0.089772  -1e-05  1.083324  0.0
H  H26  1  0.32474230  0.59787744  0.93843253  1  0.091893  -6e-06  0.93605  0.0  0.113083  -3e-06  0.997396  0.0  0.114164  -6e-06  0.99618  0.0  0.10403  0.11203  -0.0  0.998812  0.0
H  H27  1  0.67525274  0.40211268  0.06157576  1  0.091842  3e-06  0.936014  0.0  0.113066  -4e-06  0.997321  0.0  0.114146  -6e-06  0.996107  0.0  0.103989  0.112012  -0.0  0.998739  0.0
H  H28  1  0.23864588  0.75374964  0.85202019  1  0.08019  -0.000245  0.986563  0.0  0.091844  1.1e-05  1.069283  0.0  0.092412  1.8e-05  1.07053  0.0  0.087826  0.091022  6e-06  1.069216  0.0
H  H29  1  0.76135368  0.24624359  0.14798517  1  0.080226  -0.000231  0.986593  0.0  0.091861  1.1e-05  1.069335  0.0  0.092431  1.7e-05  1.070582  0.0  0.087838  0.091039  6e-06  1.069271  0.0
H  H30  1  0.25754619  0.58415265  0.82785589  1  0.105932  8e-05  0.93692  0.0  0.12558  3.7e-05  0.995283  0.0  0.126466  3.6e-05  0.995686  0.0  0.102326  0.124947  4.2e-05  0.995279  0.0
H  H31  1  0.74244668  0.41583746  0.17215223  1  0.105931  8e-05  0.936984  0.0  0.125528  3.7e-05  0.995394  0.0  0.126416  3.5e-05  0.995794  0.0  0.102285  0.124898  4.2e-05  0.995383  0.0
C  C32  1  0.86768004  0.83573867  0.26235514  1  -0.110799  -0.010527  3.723378  -0.01  -0.111722  -0.00048  4.003836  -0.001  -0.111778  -0.000111  4.017352  -0.001  -0.018655  -0.112654  -8.6e-05  3.995252  0.0
C  C33  1  0.13231113  0.16426782  0.73763092  1  -0.110627  -0.010477  3.722858  -0.01  -0.111725  -0.000479  4.00359  -0.001  -0.111777  -0.000119  4.017105  -0.001  -0.018606  -0.11268  -8.7e-05  3.995043  0.0
C  C34  1  0.01572427  0.80595171  0.25314177  1  -0.151242  0.00427  3.763475  0.002  -0.15042  0.001227  4.045354  0.001  -0.153482  0.001355  4.060687  0.001  -0.029926  -0.14831  -0.000146  4.034934  0.0
C  C35  1  0.98425699  0.19405904  0.74684613  1  -0.151013  0.00423  3.762957  0.002  -0.150167  0.001228  4.044899  0.001  -0.153236  0.001375  4.060245  0.001  -0.029909  -0.148063  -0.000145  4.034507  0.0
C  C36  1  0.98595191  0.96836740  0.05725503  1  -0.110147  -0.014932  3.798185  -0.014  -0.107892  -0.000307  4.102325  0.0  -0.105095  -9.5e-05  4.11981  0.0  -0.047956  -0.109575  -0.000653  4.090473  -0.001
C  C37  1  0.01403692  0.03163600  0.94273490  1  -0.109979  -0.014975  3.798184  -0.014  -0.107534  -0.000302  4.102021  0.0  -0.104742  -0.000103  4.119538  0.0  -0.047908  -0.109222  -0.000653  4.090171  -0.001
C  C38  1  0.74256608  0.78892787  0.36181554  1  0.653336  0.005164  3.921627  0.005  0.614902  0.000752  4.216116  0.001  0.65137  0.000757  4.208562  0.001  0.206002  0.590193  0.000928  4.219821  0.002
C  C39  1  0.25742895  0.21106935  0.63818054  1  0.653249  0.005156  3.921589  0.005  0.614835  0.000749  4.216124  0.001  0.651301  0.000758  4.208574  0.001  0.205985  0.590134  0.000927  4.219833  0.002
C  C40  1  0.10111521  0.71571740  0.33832630  1  0.641907  0.006584  3.947413  0.006  0.60582  0.001344  4.247748  0.002  0.64229  0.001141  4.239776  0.001  0.194629  0.581041  0.001182  4.252075  0.002
C  C41  1  0.89886750  0.28429254  0.66167100  1  0.641384  0.006575  3.94764  0.006  0.605338  0.001345  4.247959  0.002  0.641805  0.001144  4.240003  0.001  0.194467  0.580564  0.001182  4.252277  0.002
C  C42  1  0.26089388  0.32014456  0.32773985  1  0.135561  0.007902  3.697128  0.006  0.107701  0.002703  3.949776  0.002  0.117124  0.004195  3.968111  0.003  0.051215  0.101579  0.001668  3.937878  0.001
C  C43  1  0.73911277  0.67986539  0.67225601  1  0.135438  0.007922  3.697373  0.006  0.107593  0.002683  3.950091  0.002  0.117014  0.004219  3.968428  0.003  0.051144  0.101474  0.001666  3.938193  0.001
C  C44  1  0.37426698  0.19552925  0.30837391  1  -0.108999  -0.006741  3.715889  -0.007  -0.119139  -0.003962  3.95675  -0.005  -0.126211  -0.003432  3.977247  -0.004  -0.076907  -0.115404  -0.00428  3.943978  -0.005
C  C45  1  0.62574647  0.80447951  0.69161624  1  -0.108888  -0.006706  3.715701  -0.007  -0.119061  -0.003952  3.956582  -0.005  -0.12613  -0.003443  3.977078  -0.004  -0.07685  -0.115329  -0.00428  3.94382  -0.005
C  C46  1  0.33459376  0.07624657  0.31304274  1  0.015476  0.008571  3.685594  0.005  0.001838  0.004485  3.920486  0.002  0.007217  0.004917  3.935936  0.003  -0.056676  -0.002136  0.00413  3.911741  0.002
C  C47  1  0.66541954  0.92375916  0.68695303  1  0.015379  0.008509  3.685491  0.005  0.001741  0.004486  3.920438  0.002  0.00712  0.004916  3.935893  0.003  -0.056663  -0.002232  0.00413  3.911687  0.002
C  C48  1  0.18329605  0.08488352  0.33571850  1  -0.141485  -0.004719  3.687189  -0.005  -0.155128  -0.002675  3.924484  -0.003  -0.162491  -0.002271  3.944344  -0.003  -0.077212  -0.151507  -0.002597  3.912903  -0.003
C  C49  1  0.81671321  0.91512121  0.66428031  1  -0.141353  -0.004726  3.687102  -0.005  -0.154986  -0.002681  3.924334  -0.003  -0.162363  -0.002259  3.944205  -0.003  -0.077188  -0.151364  -0.002596  3.912749  -0.003
C  C50  1  0.07526172  0.21354518  0.35305901  1  0.170177  0.004178  3.757662  0.002  0.169749  0.001016  3.995611  0.0  0.177473  0.002342  4.016618  0.001  0.117978  0.164862  4.7e-05  3.981536  -0.001
C  C51  1  0.92475448  0.78645421  0.64693750  1  0.170215  0.004147  3.757625  0.002  0.169743  0.001021  3.995654  0.0  0.177467  0.002328  4.016665  0.001  0.118014  0.164854  4.7e-05  3.981594  -0.001
C  C52  1  0.67740554  0.40244972  0.41256527  1  0.14224  0.008065  3.681172  0.006  0.115334  0.003074  3.934463  0.002  0.125482  0.004548  3.950765  0.003  0.05821  0.107849  0.001879  3.925589  0.001
C  C53  1  0.32259045  0.59754452  0.58743849  1  0.142239  0.008169  3.681409  0.006  0.115369  0.003059  3.93467  0.002  0.125517  0.004565  3.950976  0.003  0.058246  0.107885  0.001878  3.925805  0.001
C  C54  1  0.60381908  0.30164673  0.42940321  1  -0.114368  -0.006546  3.697997  -0.007  -0.124487  -0.003852  3.942051  -0.005  -0.131725  -0.003358  3.96036  -0.004  -0.07628  -0.120956  -0.004365  3.929876  -0.005
C  C55  1  0.39617952  0.69834232  0.57060430  1  -0.114293  -0.006565  3.697924  -0.007  -0.124357  -0.003843  3.941989  -0.005  -0.131591  -0.003367  3.960292  -0.004  -0.076261  -0.120828  -0.004366  3.929816  -0.005
C  C56  1  0.68972270  0.16364172  0.41826012  1  0.005663  0.008344  3.696706  0.005  -0.011801  0.00446  3.943957  0.002  -0.006651  0.004856  3.959752  0.003  -0.059553  -0.014674  0.004063  3.931954  0.002
C  C57  1  0.31028430  0.83634836  0.58174546  1  0.005565  0.00829  3.696624  0.005  -0.011905  0.004463  3.943935  0.002  -0.006741  0.004848  3.959711  0.003  -0.059595  -0.014774  0.004062  3.931934  0.002
C  C58  1  0.84606202  0.13134131  0.39015774  1  -0.134136  -0.003964  3.684411  -0.004  -0.148892  -0.002311  3.925166  -0.003  -0.156313  -0.00214  3.946897  -0.002  -0.075453  -0.14268  -0.002504  3.908951  -0.003
C  C59  1  0.15394612  0.86865617  0.60984724  1  -0.134328  -0.00397  3.684375  -0.004  -0.14906  -0.002324  3.925129  -0.003  -0.156478  -0.002123  3.946861  -0.002  -0.075551  -0.142848  -0.002504  3.908915  -0.003
C  C60  1  0.91223071  0.23668049  0.37774545  1  0.174374  0.004159  3.761658  0.002  0.172251  0.001068  4.004322  0.0  0.180321  0.002363  4.024523  0.001  0.12007  0.167179  2.9e-05  3.990085  -0.001
C  C61  1  0.08776918  0.76331895  0.62225425  1  0.174446  0.004055  3.761771  0.002  0.172341  0.001084  4.004452  0.0  0.18041  0.002342  4.024652  0.001  0.120087  0.16727  2.9e-05  3.990229  -0.001
C  C62  1  0.07928995  0.58136496  0.09250379  1  0.383073  -4.8e-05  3.870632  0.0  0.313485  0.000294  4.16952  0.0  0.341181  0.000254  4.170585  0.0  0.16192  0.29447  0.000303  4.168796  0.0
C  C63  1  0.92070517  0.41863261  0.90750581  1  0.383047  -4.4e-05  3.870528  0.0  0.313444  0.000292  4.169433  0.0  0.341141  0.000259  4.1705  0.0  0.16196  0.294433  0.000302  4.168714  0.0
C  C64  1  0.95735427  0.71010129  0.94029899  1  -0.174518  -5e-06  3.646472  0.0  -0.272398  5.4e-05  3.887229  0.0  -0.268949  3.7e-05  3.896845  0.0  -0.14706  -0.274531  4.2e-05  3.880824  0.0
C  C65  1  0.04264268  0.28989719  0.05970502  1  -0.17444  4.8e-05  3.646425  0.0  -0.272285  4.4e-05  3.887194  0.0  -0.268834  4e-05  3.896808  0.0  -0.147038  -0.274427  4.3e-05  3.880799  0.0
C  C66  1  0.23593151  0.64490524  0.89470856  1  -0.171092  -6.8e-05  3.686971  0.0  -0.270443  7.5e-05  3.934136  0.0  -0.267383  6.9e-05  3.944944  0.0  -0.135563  -0.272526  6.5e-05  3.927222  0.0
C  C67  1  0.76406618  0.35508693  0.10529683  1  -0.171057  -9.8e-05  3.686962  0.0  -0.270375  7.6e-05  3.934126  0.0  -0.267319  6.9e-05  3.944939  0.0  -0.13545  -0.272455  6.5e-05  3.927214  0.0
S  S68  1  0.80463730  0.95936655  0.14904335  1  0.120196  -0.021643  2.498714  -0.021  0.096962  -0.000817  2.833643  -0.001  0.095593  -0.00026  2.833865  0.0  0.061281  0.098162  -0.001055  2.834905  -0.001
S  S69  1  0.19535469  0.04064117  0.85094937  1  0.120167  -0.021682  2.498493  -0.021  0.096927  -0.000815  2.83343  -0.001  0.095555  -0.000268  2.833653  0.0  0.061309  0.098138  -0.001056  2.834699  -0.001
S  S70  1  0.12677437  0.89309694  0.12882860  1  0.100562  -0.011468  2.524788  -0.011  0.083073  -7.8e-05  2.858651  0.0  0.081527  9.4e-05  2.859412  0.0  0.052511  0.08521  -0.000972  2.859173  -0.001
S  S71  1  0.87321180  0.10691621  0.87117007  1  0.100405  -0.01149  2.524875  -0.011  0.082913  -7.9e-05  2.858693  0.0  0.081367  9.6e-05  2.859459  0.0  0.052498  0.085059  -0.000972  2.859218  -0.001
N  N72  1  0.11550779  0.32858415  0.34887458  1  -0.329792  -0.066459  3.326218  -0.085  -0.285692  -0.053613  3.613277  -0.074  -0.316068  -0.043987  3.635583  -0.065  -0.343867  -0.267808  -0.057817  3.600306  -0.075
N  N73  1  0.88449801  0.67141733  0.65112126  1  -0.329718  -0.066405  3.326061  -0.085  -0.285561  -0.053612  3.613138  -0.074  -0.315934  -0.043994  3.635431  -0.065  -0.34384  -0.267701  -0.057815  3.600189  -0.075
N  N74  1  0.82728693  0.37016478  0.38894010  1  -0.317991  -0.064198  3.31848  -0.082  -0.276749  -0.052131  3.611474  -0.071  -0.304928  -0.043026  3.629903  -0.064  -0.339882  -0.260862  -0.057325  3.601846  -0.075
N  N75  1  0.17271417  0.62983042  0.61105951  1  -0.318009  -0.064105  3.318542  -0.082  -0.276713  -0.052137  3.611503  -0.071  -0.304891  -0.043032  3.629924  -0.064  -0.33986  -0.260849  -0.057327  3.601888  -0.075
N  N76  1  0.09053191  0.64353018  0.98050070  1  -0.090664  0.00014  3.506552  0.0  0.019129  6.2e-05  3.729062  0.0  -0.000958  7e-05  3.755094  0.0  -0.28701  0.032945  7.4e-05  3.711544  0.0
N  N77  1  0.90946553  0.35647039  0.01950184  1  -0.090625  7.9e-05  3.506794  0.0  0.019162  6.4e-05  3.729281  0.0  -0.000923  6.2e-05  3.755311  0.0  -0.287022  0.032976  7.4e-05  3.711768  0.0
O  O78  1  0.76455851  0.65971067  0.41598080  1  -0.593253  -0.065451  2.081683  -0.09  -0.563981  -0.048534  2.361949  -0.073  -0.606298  -0.035957  2.352908  -0.059  -0.326  -0.5347  -0.058336  2.367174  -0.084
O  O79  1  0.23544424  0.34028224  0.58401169  1  -0.593257  -0.065404  2.081755  -0.09  -0.563901  -0.048535  2.361977  -0.073  -0.606217  -0.035962  2.352928  -0.059  -0.325991  -0.534642  -0.058337  2.367201  -0.084
O  O80  1  0.61965400  0.88123778  0.38542300  1  -0.573668  -0.012632  1.899532  -0.017  -0.532627  -0.006665  2.116634  -0.01  -0.558233  -0.003279  2.110372  -0.005  -0.302186  -0.512721  -0.011549  2.119212  -0.016
O  O81  1  0.38034711  0.11875749  0.61457900  1  -0.573673  -0.012617  1.89934  -0.017  -0.532621  -0.006669  2.116436  -0.01  -0.558219  -0.003279  2.110163  -0.005  -0.302219  -0.512714  -0.011554  2.119006  -0.016
O  O82  1  0.07275223  0.59721855  0.39587506  1  -0.610022  -0.076219  2.131434  -0.107  -0.60062  -0.050438  2.441126  -0.079  -0.644546  -0.036224  2.42978  -0.062  -0.328972  -0.571786  -0.058977  2.449455  -0.086
O  O83  1  0.92725833  0.40277287  0.60409948  1  -0.609857  -0.076184  2.131352  -0.107  -0.600418  -0.050442  2.440995  -0.079  -0.644353  -0.036221  2.429675  -0.062  -0.328903  -0.571587  -0.058977  2.449295  -0.086
O  O84  1  0.19935052  0.75949763  0.34648176  1  -0.561161  -0.012058  1.870386  -0.016  -0.524328  -0.008117  2.07546  -0.012  -0.548089  -0.00387  2.069417  -0.007  -0.317483  -0.506852  -0.011073  2.078482  -0.015
O  O85  1  0.80060355  0.24052976  0.65353801  1  -0.5609  -0.012056  1.870567  -0.016  -0.524042  -0.008116  2.07558  -0.012  -0.547797  -0.003876  2.069532  -0.007  -0.317336  -0.506579  -0.011077  2.078617  -0.015
O  O86  1  0.95945661  0.57087475  0.17018714  1  -0.543921  0.001477  2.085922  0.0  -0.515198  0.001833  2.348685  0.0  -0.540271  0.002161  2.343571  0.001  -0.31355  -0.497806  0.0014  2.352266  0.0
O  O87  1  0.04055037  0.42913431  0.82981526  1  -0.544012  0.001536  2.085526  0.0  -0.51528  0.001834  2.348217  0.0  -0.540351  0.00216  2.343088  0.001  -0.31363  -0.497891  0.0014  2.351785  0.0
