# generated using pymatgen
data_ThH12(C7O3)3
_symmetry_space_group_name_H-M   'P 1'
_cell_length_a   8.86524284
_cell_length_b   9.04898372
_cell_length_c   14.54259730
_cell_angle_alpha   84.69350026
_cell_angle_beta   79.11731029
_cell_angle_gamma   60.66920746
_symmetry_Int_Tables_number   1
_chemical_formula_structural   ThH12(C7O3)3
_chemical_formula_sum   'Th2 H24 C42 O18'
_cell_volume   998.78225440
_cell_formula_units_Z   2
loop_
 _symmetry_equiv_pos_site_id
 _symmetry_equiv_pos_as_xyz
  1  'x, y, z'
loop_
 _atom_site_type_symbol
 _atom_site_label
 _atom_site_symmetry_multiplicity
 _atom_site_fract_x
 _atom_site_fract_y
 _atom_site_fract_z
 _atom_site_occupancy
 _atom_site_pbe_bader_charge
 _atom_site_pbe_bader_spin_density
 _atom_site_pbe_cm5_charge
 _atom_site_pbe_ddec_charge
 _atom_site_pbe_ddec_spin_density
 _atom_site_pbe_ddec_sum_bond_order
 _atom_site_pbe_magmom
Th  Th0  1  0.87502095  0.24996002  0.99999934  1  2.881639  0  1.655705  2.395147  0  3.356976  0
Th  Th1  1  0.12498090  0.75003811  0.00000018  1  2.881694  0  1.655708  2.395092  0  3.35696  0
H  H2  1  0.20550552  0.00000071  0.06684363  1  0.61167  0  0.320529  0.414641  0  0.881553  0
H  H3  1  0.79449507  0.99999995  0.93315657  1  0.611673  0  0.320474  0.414554  0  0.881688  0
H  H4  1  0.75971092  0.49864359  0.21991554  1  0.112167  0  0.10956  0.10123  0  1.048007  0
H  H5  1  0.74164849  0.49864193  0.78008497  1  0.09706  0  0.109575  0.101254  0  1.04794  0
H  H6  1  0.24028663  0.50136088  0.78008549  1  0.112109  0  0.109563  0.101235  0  1.047971  0
H  H7  1  0.25835262  0.50136000  0.21991441  1  0.097057  0  0.109569  0.101243  0  1.047928  0
H  H8  1  0.74631826  0.54305360  0.38997414  1  0.100408  0  0.10594  0.122518  0  1.025477  0
H  H9  1  0.71062853  0.54305225  0.61002593  1  0.098408  0  0.105926  0.122503  0  1.025469  0
H  H10  1  0.25367710  0.45694833  0.61002660  1  0.100359  0  0.105955  0.122562  0  1.025465  0
H  H11  1  0.28937448  0.45694588  0.38997345  1  0.098399  0  0.105944  0.122532  0  1.025508  0
H  H12  1  0.18254274  0.82424505  0.42273051  1  0.083984  0  0.102671  0.114559  0  1.014056  0
H  H13  1  0.99321138  0.82424421  0.57726947  1  0.042016  0  0.10266  0.114553  0  1.013984  0
H  H14  1  0.81744905  0.17575941  0.57727050  1  0.084133  0  0.102646  0.114548  0  1.01404  0
H  H15  1  0.00679202  0.17575772  0.42272965  1  0.041994  0  0.102648  0.114539  0  1.014024  0
H  H16  1  0.19805776  0.78611849  0.25323784  1  0.111767  0  0.107942  0.105547  0  1.036012  0
H  H17  1  0.01582307  0.78611729  0.74676334  1  0.101777  0  0.107948  0.105569  0  1.035959  0
H  H18  1  0.80193289  0.21388597  0.74676262  1  0.111841  0  0.107968  0.105565  0  1.036049  0
H  H19  1  0.98417792  0.21388718  0.25323728  1  0.101707  0  0.107978  0.105585  0  1.036001  0
H  H20  1  0.34802484  0.72621642  0.69003301  1  0.132393  0  0.108518  0.131764  0  1.030331  0
H  H21  1  0.92575660  0.72621657  0.30996783  1  0.111161  0  0.108517  0.131752  0  1.030296  0
H  H22  1  0.65196735  0.27379185  0.30996705  1  0.132452  0  0.1085  0.131729  0  1.030326  0
H  H23  1  0.07424133  0.27379170  0.69003224  1  0.111091  0  0.108506  0.131756  0  1.030356  0
H  H24  1  0.35718115  0.99999762  0.43171924  1  0.08081  0  0.111945  0.141383  0  1.016881  0
H  H25  1  0.64282186  0.00000051  0.56828083  1  0.080678  0  0.111934  0.141374  0  1.016923  0
C  C26  1  0.48983322  0.60259833  0.12687487  1  1.58352  0  0.251356  0.660576  0  4.133023  0
C  C27  1  0.90756915  0.60260053  0.87312492  1  1.578633  0  0.251377  0.660664  0  4.132985  0
C  C28  1  0.51015806  0.39740486  0.87312491  1  1.583518  0  0.251347  0.660542  0  4.133029  0
C  C29  1  0.09243695  0.39740520  0.12687503  1  1.578668  0  0.251351  0.660526  0  4.133056  0
C  C30  1  0.48059301  0.63951945  0.22615059  1  -0.058973  0  -0.024494  -0.079969  0  3.985344  0
C  C31  1  0.87988750  0.63952058  0.77384932  1  -0.066864  0  -0.02453  -0.0801  0  3.985391  0
C  C32  1  0.51940476  0.36047994  0.77384933  1  -0.058998  0  -0.024515  -0.080012  0  3.985364  0
C  C33  1  0.12011476  0.36048135  0.22615131  1  -0.066882  0  -0.024511  -0.079968  0  3.985507  0
C  C34  1  0.63457379  0.57145439  0.26485196  1  -0.032869  0  -0.074065  -0.055496  0  3.964079  0
C  C35  1  0.79397182  0.57145363  0.73514741  1  -0.021663  0  -0.074071  -0.055494  0  3.964102  0
C  C36  1  0.36541876  0.42854628  0.73514781  1  -0.032886  0  -0.074087  -0.055514  0  3.964015  0
C  C37  1  0.20603118  0.42854450  0.26485128  1  -0.021656  0  -0.074081  -0.055527  0  3.964079  0
C  C38  1  0.62776547  0.59499733  0.35894565  1  0.004704  0  -0.097178  -0.190091  0  3.967985  0
C  C39  1  0.77723818  0.59499674  0.64105565  1  0.031622  0  -0.09715  -0.190016  0  3.968023  0
C  C40  1  0.37222645  0.40500460  0.64105619  1  0.004912  0  -0.097192  -0.190111  0  3.967912  0
C  C41  1  0.22276891  0.40500012  0.35894470  1  0.031553  0  -0.097196  -0.190103  0  3.968024  0
C  C42  1  0.46482351  0.68513240  0.41530387  1  0.415527  0  0.090291  0.267074  0  4.020037  0
C  C43  1  0.85004259  0.68513386  0.58469615  1  0.402117  0  0.090242  0.266933  0  4.020187  0
C  C44  1  0.53517261  0.31486573  0.58469700  1  0.415494  0  0.090269  0.267052  0  4.020112  0
C  C45  1  0.14996219  0.31486300  0.41530172  1  0.402039  0  0.090252  0.267028  0  4.020283  0
C  C46  1  0.30915837  0.75559195  0.37786000  1  -0.013811  0  -0.10095  -0.203302  0  3.992  0
C  C47  1  0.93524775  0.75559149  0.62214220  1  -0.006143  0  -0.100905  -0.203188  0  3.992043  0
C  C48  1  0.69083291  0.24441124  0.62213908  1  -0.014098  0  -0.100924  -0.203254  0  3.992009  0
C  C49  1  0.06475566  0.24441044  0.37785967  1  -0.006102  0  -0.10089  -0.203167  0  3.992109  0
C  C50  1  0.31792769  0.73449293  0.28316219  1  -0.046477  0  -0.078345  -0.065648  0  3.975474  0
C  C51  1  0.94757759  0.73449231  0.71683658  1  -0.005315  0  -0.078339  -0.065655  0  3.97555  0
C  C52  1  0.68206652  0.26550901  0.71683937  1  -0.046366  0  -0.078318  -0.065618  0  3.975473  0
C  C53  1  0.05242529  0.26550836  0.28316199  1  -0.005168  0  -0.078349  -0.0657  0  3.97553  0
C  C54  1  0.35896322  0.84771146  0.55542293  1  0.406821  0  0.082729  0.275332  0  4.063976  0
C  C55  1  0.79332374  0.84771428  0.44457760  1  0.393062  0  0.082683  0.275324  0  4.063954  0
C  C56  1  0.64103546  0.15229301  0.44457522  1  0.406874  0  0.082737  0.275302  0  4.064085  0
C  C57  1  0.20667559  0.15228892  0.55542398  1  0.393011  0  0.082741  0.275292  0  4.06406  0
C  C58  1  0.30942522  0.84541463  0.65218725  1  -0.027284  0  -0.101965  -0.230153  0  3.949221  0
C  C59  1  0.84515926  0.84541608  0.34781327  1  0.008139  0  -0.101948  -0.230116  0  3.949047  0
C  C60  1  0.69057537  0.15458604  0.34781295  1  -0.027174  0  -0.101943  -0.230065  0  3.949142  0
C  C61  1  0.15483840  0.15458585  0.65218789  1  0.008123  0  -0.101962  -0.230095  0  3.949215  0
C  C62  1  0.20787332  0.00000402  0.70014540  1  0.015592  0  -0.017036  -0.001612  0  3.983897  0
C  C63  1  0.79212181  0.00000162  0.29985576  1  0.015274  0  -0.017058  -0.001612  0  3.983828  0
C  C64  1  0.14658738  0.99999404  0.80383221  1  1.592112  0  0.243232  0.62877  0  4.132154  0
C  C65  1  0.85341559  0.99999404  0.19616991  1  1.592235  0  0.243301  0.628761  0  4.132054  0
C  C66  1  0.31199031  0.99999757  0.50659097  1  0.003371  0  -0.116504  -0.336433  0  4.013519  0
C  C67  1  0.68801334  0.99999793  0.49340979  1  0.003569  0  -0.116473  -0.336432  0  4.013567  0
O  O68  1  0.63466790  0.49029183  0.08344544  1  -1.217218  0  -0.364722  -0.626166  0  2.348194  0
O  O69  1  0.87504360  0.49029186  0.91655631  1  -1.207104  0  -0.364763  -0.626221  0  2.348112  0
O  O70  1  0.36532896  0.50970249  0.91655420  1  -1.217356  0  -0.36469  -0.626075  0  2.348217  0
O  O71  1  0.12496707  0.50970246  0.08344652  1  -1.207148  0  -0.364675  -0.626071  0  2.348275  0
O  O72  1  0.35077802  0.68381591  0.09058601  1  -1.216777  0  -0.368248  -0.638873  0  2.351983  0
O  O73  1  0.96540487  0.68382136  0.90941306  1  -1.216817  0  -0.36821  -0.638851  0  2.352032  0
O  O74  1  0.64922510  0.31617969  0.90941420  1  -1.21671  0  -0.368256  -0.638922  0  2.351904  0
O  O75  1  0.03460043  0.31617677  0.09058399  1  -1.216696  0  -0.368282  -0.638921  0  2.351866  0
O  O76  1  0.46405064  0.69367971  0.51002218  1  -1.104945  0  -0.146523  -0.207277  0  2.573391  0
O  O77  1  0.84226574  0.69368133  0.48997811  1  -1.100713  0  -0.146489  -0.207245  0  2.573395  0
O  O78  1  0.53594087  0.30631842  0.48997717  1  -1.104976  0  -0.146504  -0.207312  0  2.573474  0
O  O79  1  0.15774187  0.30631680  0.51002280  1  -1.100686  0  -0.146509  -0.207326  0  2.573449  0
O  O80  1  0.19224106  0.85631607  0.84381081  1  -1.197897  0  -0.350562  -0.613828  0  2.297162  0
O  O81  1  0.95144333  0.85631473  0.15618902  1  -1.200122  0  -0.350589  -0.613842  0  2.297188  0
O  O82  1  0.80775694  0.14367826  0.15618526  1  -1.197895  0  -0.350608  -0.61381  0  2.29683  0
O  O83  1  0.04856682  0.14367832  0.84381395  1  -1.200071  0  -0.350574  -0.613808  0  2.296941  0
O  O84  1  0.14048538  0.99999720  0.02009772  1  -1.259504  0  -0.701805  -0.977512  0  2.061884  0
O  O85  1  0.85951723  0.99999849  0.97990194  1  -1.259576  0  -0.701747  -0.9774  0  2.061961  0
