# generated using pymatgen
data_Zn2H21C42S5Br2N2O23
_symmetry_space_group_name_H-M   'P 1'
_cell_length_a   16.50898995
_cell_length_b   17.82122100
_cell_length_c   28.78424483
_cell_angle_alpha   90.39720265
_cell_angle_beta   89.88987945
_cell_angle_gamma   90.13656160
_symmetry_Int_Tables_number   1
_chemical_formula_structural   Zn2H21C42S5Br2N2O23
_chemical_formula_sum   'Zn4 H42 C84 S10 Br4 N4 O46'
_cell_volume   8468.38006135
_cell_formula_units_Z   2
loop_
 _symmetry_equiv_pos_site_id
 _symmetry_equiv_pos_as_xyz
  1  'x, y, z'
loop_
 _atom_site_type_symbol
 _atom_site_label
 _atom_site_symmetry_multiplicity
 _atom_site_fract_x
 _atom_site_fract_y
 _atom_site_fract_z
 _atom_site_occupancy
 _atom_site_pbe_bader_charge
 _atom_site_pbe_bader_spin_density
 _atom_site_pbe_cm5_charge
 _atom_site_pbe_ddec_charge
 _atom_site_pbe_ddec_spin_density
 _atom_site_pbe_ddec_sum_bond_order
 _atom_site_pbe_magmom
Zn  Zn0  1  0.58204112  0.50028784  0.49828786  1  1.292045  0  0.67282  0.813617  0  2.449367  0
Zn  Zn1  1  0.41331995  0.49944363  0.49942226  1  1.297426  0  0.671571  0.817637  0  2.43532  0
Zn  Zn2  1  0.41431614  0.50065779  0.88032185  1  1.285541  0  0.670426  0.817613  0  2.442996  0
Zn  Zn3  1  0.58321676  0.50445172  0.88090166  1  1.274721  0  0.672419  0.813658  0  2.443374  0
H  H4  1  0.28409625  0.58819357  0.54627096  1  0.159609  0  0.136554  0.112552  0  0.96983  0
H  H5  1  0.13180295  0.59081187  0.54845043  1  0.132437  0  0.130453  0.145395  0  0.958082  0
H  H6  1  0.28503744  0.41242801  0.45087384  1  0.150297  0  0.141962  0.127933  0  0.968173  0
H  H7  1  0.70767809  0.57430561  0.55630839  1  0.186104  0  0.140235  0.129704  0  0.974588  0
H  H8  1  0.71362017  0.42633161  0.44448584  1  0.153438  0  0.139188  0.117168  0  0.958649  0
H  H9  1  0.86635172  0.42329087  0.44453093  1  0.139609  0  0.130111  0.146983  0  0.959929  0
H  H10  1  0.62809984  0.73313031  0.48722819  1  0.111662  0  0.11496  0.121285  0  0.983323  0
H  H11  1  0.63482964  0.87344506  0.49296823  1  0.087716  0  0.11761  0.125304  0  0.970514  0
H  H12  1  0.36963915  0.74078537  0.50420162  1  0.130868  0  0.11712  0.132602  0  0.993813  0
H  H13  1  0.62733016  0.26899391  0.51944181  1  0.145407  0  0.110605  0.122401  0  1.019099  0
H  H14  1  0.37125235  0.25598694  0.49403190  1  0.113141  0  0.115686  0.121745  0  0.98258  0
H  H15  1  0.37887295  0.11542492  0.49294957  1  0.113718  0  0.117734  0.128906  0  0.973211  0
H  H16  1  0.58588313  0.40151142  0.77557628  1  0.110222  0  0.10472  0.13189  0  1.020797  0
H  H17  1  0.58287160  0.40015357  0.60234654  1  0.131844  0  0.104404  0.130553  0  1.022651  0
H  H18  1  0.37167381  0.49804943  0.02873418  1  0.113866  0  0.112998  0.117156  0  0.989346  0
H  H19  1  0.37364488  0.50475485  0.11579019  1  0.126262  0  0.115982  0.123896  0  0.975046  0
H  H20  1  0.63198800  0.49693188  0.02602991  1  0.152187  0  0.119667  0.134851  0  0.989613  0
H  H21  1  0.37327223  0.50262944  0.35275015  1  0.164841  0  0.119711  0.135967  0  0.989603  0
H  H22  1  0.63219555  0.47800344  0.35150542  1  0.108172  0  0.111514  0.113612  0  0.991556  0
H  H23  1  0.63293903  0.48835694  0.26463738  1  0.092376  0  0.116563  0.12497  0  0.973846  0
H  H24  1  0.71346080  0.59079676  0.83320201  1  0.129508  0  0.142502  0.122038  0  0.947932  0
H  H25  1  0.86563505  0.59200992  0.83056297  1  0.097735  0  0.130424  0.14472  0  0.958994  0
H  H26  1  0.71070971  0.42028183  0.93070427  1  0.156286  0  0.141236  0.127057  0  0.970118  0
H  H27  1  0.28947595  0.57935049  0.82566500  1  0.158686  0  0.13504  0.120535  0  0.989122  0
H  H28  1  0.28186824  0.42009813  0.93013972  1  0.146155  0  0.141015  0.116379  0  0.949647  0
H  H29  1  0.12931391  0.41924453  0.93077903  1  0.12699  0  0.129822  0.146387  0  0.960338  0
H  H30  1  0.36407953  0.74366284  0.88229916  1  0.076013  0  0.114842  0.12233  0  0.9791  0
H  H31  1  0.36897425  0.88365158  0.87609065  1  0.102705  0  0.115444  0.122794  0  0.97686  0
H  H32  1  0.62416675  0.73555088  0.88094010  1  0.144887  0  0.117837  0.132109  0  0.994671  0
H  H33  1  0.37264990  0.26404523  0.87185544  1  0.155565  0  0.117225  0.13192  0  0.995659  0
H  H34  1  0.63276584  0.26563472  0.86658555  1  0.117139  0  0.110052  0.115861  0  0.994066  0
H  H35  1  0.63385334  0.12516768  0.86629100  1  0.083022  0  0.116073  0.123609  0  0.971218  0
H  H36  1  0.03051618  0.32315770  0.47860159  1  0.638966  0  0.356012  0.405484  0  0.836843  0
H  H37  1  0.97487680  0.53412893  0.59428243  1  0.614466  0  0.34154  0.38697  0  0.868194  0
H  H38  1  0.39221232  0.98435443  0.55227806  1  0.623629  0  0.324929  0.370965  0  0.904664  0
H  H39  1  0.62723743  0.01830982  0.55306405  1  0.635625  0  0.325769  0.371619  0  0.901401  0
H  H40  1  0.62994670  0.57815081  0.17711309  1  0.61681  0  0.325942  0.370619  0  0.90188  0
H  H41  1  0.38495269  0.58400522  0.20342469  1  0.638308  0  0.32482  0.369711  0  0.904596  0
H  H42  1  0.96322281  0.32710128  0.90014699  1  0.619221  0  0.354866  0.404112  0  0.839428  0
H  H43  1  0.02428899  0.54264781  0.78238140  1  0.643976  0  0.344382  0.389996  0  0.86199  0
H  H44  1  0.62548135  0.97663695  0.82838240  1  0.615927  0  0.321845  0.366368  0  0.912317  0
H  H45  1  0.37666340  0.01746487  0.83013893  1  0.604965  0  0.323605  0.368534  0  0.909322  0
C  C46  1  0.49556733  0.64494402  0.49287922  1  1.571793  0  0.21586  0.588511  0  4.179063  0
C  C47  1  0.50103957  0.51675229  0.58844793  1  1.613964  0  0.213192  0.607583  0  4.198958  0
C  C48  1  0.49453332  0.35458607  0.50662083  1  1.578444  0  0.217791  0.5921  0  4.167993  0
C  C49  1  0.50273587  0.48656638  0.40908576  1  1.58987  0  0.217278  0.591985  0  4.174598  0
C  C50  1  0.49167614  0.64779482  0.88565388  1  1.567682  0  0.215555  0.588054  0  4.181395  0
C  C51  1  0.50375993  0.51782110  0.79080928  1  1.628828  0  0.213171  0.606796  0  4.201124  0
C  C52  1  0.50146445  0.35706356  0.87188173  1  1.614978  0  0.217837  0.592539  0  4.169863  0
C  C53  1  0.49947201  0.49233840  0.97043415  1  1.589675  0  0.218305  0.593701  0  4.172175  0
C  C54  1  0.24779746  0.54913045  0.52561613  1  0.440514  0  0.081428  0.128267  0  3.87179  0
C  C55  1  0.16374768  0.54986185  0.52697146  1  0.01321  0  -0.052862  -0.145691  0  3.856929  0
C  C56  1  0.11997903  0.49751211  0.49996855  1  0.20183  0  0.033338  0.167261  0  4.079761  0
C  C57  1  0.16478195  0.44705666  0.47181211  1  -0.166084  0  0.00257  -0.16613  0  3.87363  0
C  C58  1  0.24892265  0.45050496  0.47221467  1  0.581838  0  0.080072  0.106462  0  3.875178  0
C  C59  1  0.03453262  0.49690439  0.50191041  1  -0.155263  0  -0.014951  -0.070578  0  4.063558  0
C  C60  1  0.96083330  0.49949853  0.50358152  1  -0.184333  0  -0.01704  -0.076312  0  4.066532  0
C  C61  1  0.87534482  0.50089840  0.50271227  1  0.080378  0  0.033687  0.171061  0  4.076709  0
C  C62  1  0.82912369  0.54461263  0.53420865  1  -0.05505  0  0.000927  -0.17388  0  3.892115  0
C  C63  1  0.74508289  0.54240201  0.53198988  1  0.502152  0  0.078133  0.107029  0  3.870764  0
C  C64  1  0.74902995  0.45871315  0.46957279  1  0.483397  0  0.078023  0.11825  0  3.889219  0
C  C65  1  0.83310311  0.45719594  0.46974468  1  0.027505  0  -0.053714  -0.14447  0  3.857398  0
C  C66  1  0.49884474  0.72884944  0.49506615  1  0.035185  0  -0.004376  -0.010947  0  3.933505  0
C  C67  1  0.57333531  0.76625723  0.49201637  1  -0.017194  0  -0.067314  -0.06896  0  3.949193  0
C  C68  1  0.57703333  0.84397727  0.49530703  1  -0.002563  0  -0.068684  -0.10866  0  3.914141  0
C  C69  1  0.50566279  0.88628961  0.50132030  1  0.076709  0  0.009143  0.129804  0  4.104267  0
C  C70  1  0.43067073  0.84760222  0.50434708  1  -0.185461  0  -0.007837  -0.13238  0  3.9201  0
C  C71  1  0.42741990  0.76993406  0.50141806  1  0.035397  0  -0.066898  -0.085543  0  3.94172  0
C  C72  1  0.50946669  0.96531277  0.50433471  1  -0.309915  0  -0.028553  -0.099379  0  4.109819  0
C  C73  1  0.51020932  0.03390289  0.50551250  1  -0.059877  0  -0.029294  -0.10106  0  4.116564  0
C  C74  1  0.50767225  0.11308659  0.50555429  1  0.089985  0  0.009396  0.13047  0  4.102531  0
C  C75  1  0.57784979  0.15759151  0.51262557  1  -0.170054  0  -0.010377  -0.137223  0  3.933278  0
C  C76  1  0.57328121  0.23529252  0.51345322  1  0.037049  0  -0.069738  -0.089667  0  3.962529  0
C  C77  1  0.49856778  0.27065480  0.50673739  1  -0.049313  0  -0.005722  -0.012798  0  3.928414  0
C  C78  1  0.42868752  0.22742866  0.49943714  1  0.058874  0  -0.065471  -0.066019  0  3.944259  0
C  C79  1  0.43282600  0.14956841  0.49896658  1  -0.044877  0  -0.068157  -0.107335  0  3.900801  0
C  C80  1  0.50516873  0.52066057  0.73858721  1  0.018385  0  -0.014486  -0.1005  0  3.931846  0
C  C81  1  0.54463545  0.46118368  0.71415373  1  -0.02173  0  -0.00018  0.079421  0  3.961516  0
C  C82  1  0.46840836  0.57836453  0.71464442  1  0.009254  0  -0.020169  0.034706  0  3.964758  0
C  C83  1  0.58444373  0.40210013  0.73773469  1  0.067934  0  -0.095064  -0.169644  0  3.931871  0
C  C84  1  0.62268342  0.34554096  0.71323963  1  -0.092826  0  -0.024569  0.066557  0  3.983085  0
C  C85  1  0.50355523  0.51988050  0.64067269  1  0.06876  0  -0.013527  -0.09882  0  3.92647  0
C  C86  1  0.46776595  0.57800666  0.66524639  1  -0.128601  0  -0.020086  0.037108  0  3.96053  0
C  C87  1  0.54375180  0.46073788  0.66445934  1  0.016815  0  -0.000695  0.078352  0  3.963039  0
C  C88  1  0.58278132  0.40136004  0.64020044  1  0.049568  0  -0.096213  -0.169916  0  3.936155  0
C  C89  1  0.62209846  0.34505863  0.66386090  1  -0.102388  0  -0.026682  0.054166  0  3.993436  0
C  C90  1  0.50124651  0.49597610  0.02239171  1  -0.038764  0  -0.004381  -0.013089  0  3.935487  0
C  C91  1  0.42872360  0.49909176  0.04765640  1  0.058954  0  -0.068764  -0.071597  0  3.960954  0
C  C92  1  0.42980853  0.50362987  0.09579809  1  -0.089164  0  -0.068962  -0.1076  0  3.913869  0
C  C93  1  0.50416510  0.50606346  0.11979225  1  0.139903  0  0.009705  0.130988  0  4.106484  0
C  C94  1  0.57709691  0.50392045  0.09379015  1  -0.203565  0  -0.006291  -0.129115  0  3.917505  0
C  C95  1  0.57564227  0.49845379  0.04569220  1  0.026327  0  -0.062752  -0.080597  0  3.932476  0
C  C96  1  0.50438873  0.50971871  0.16872155  1  -0.055348  0  -0.029362  -0.101848  0  4.121077  0
C  C97  1  0.50439956  0.50797012  0.21114316  1  -0.305474  0  -0.028919  -0.09892  0  4.117742  0
C  C98  1  0.50332498  0.50143853  0.25990726  1  0.111829  0  0.010223  0.131002  0  4.104567  0
C  C99  1  0.42988145  0.50457077  0.28541874  1  -0.198783  0  -0.007068  -0.129652  0  3.917974  0
C  C100  1  0.42982509  0.49894195  0.33341979  1  0.019716  0  -0.063406  -0.081324  0  3.935194  0
C  C101  1  0.50303078  0.48936558  0.35715358  1  0.050106  0  -0.005801  -0.014228  0  3.937672  0
C  C102  1  0.57597275  0.48530369  0.33234887  1  -0.046666  0  -0.068792  -0.0712  0  3.960893  0
C  C103  1  0.57648629  0.49145601  0.28428171  1  -0.034518  0  -0.069074  -0.108192  0  3.912186  0
C  C104  1  0.74932805  0.55262505  0.85426285  1  0.547702  0  0.081836  0.125272  0  3.876406  0
C  C105  1  0.83334649  0.55223218  0.85245607  1  0.025832  0  -0.052571  -0.145541  0  3.859117  0
C  C106  1  0.87654470  0.50033069  0.87948019  1  0.178562  0  0.033916  0.16999  0  4.07686  0
C  C107  1  0.83120631  0.45156945  0.90819102  1  -0.15815  0  0.002259  -0.170789  0  3.878412  0
C  C108  1  0.74717213  0.45651803  0.90854740  1  0.58869  0  0.080085  0.109226  0  3.874982  0
C  C109  1  0.96193438  0.49862549  0.87707620  1  -0.356135  0  -0.014972  -0.069222  0  4.0618  0
C  C110  1  0.03562259  0.50063926  0.87506033  1  0.028977  0  -0.017292  -0.076306  0  4.06818  0
C  C111  1  0.12110090  0.50147011  0.87575781  1  0.109805  0  0.032733  0.169531  0  4.077995  0
C  C112  1  0.16780376  0.54758279  0.84609767  1  -0.15666  0  0.001265  -0.172564  0  3.884374  0
C  C113  1  0.25184363  0.54475028  0.84822577  1  0.617639  0  0.077793  0.11232  0  3.867199  0
C  C114  1  0.24697660  0.45543447  0.90677482  1  0.495134  0  0.07951  0.120265  0  3.889819  0
C  C115  1  0.16288580  0.45478217  0.90681525  1  0.024076  0  -0.053314  -0.144963  0  3.858797  0
C  C116  1  0.49361003  0.73155354  0.88232083  1  0.044412  0  -0.00505  -0.012506  0  3.940976  0
C  C117  1  0.42185486  0.77317216  0.88052923  1  -0.006342  0  -0.068502  -0.071357  0  3.950715  0
C  C118  1  0.42461534  0.85081221  0.87660499  1  -0.022542  0  -0.068912  -0.10703  0  3.908794  0
C  C119  1  0.49968532  0.88855153  0.87364531  1  0.132274  0  0.009271  0.129696  0  4.100398  0
C  C120  1  0.57171039  0.84545610  0.87502561  1  -0.128994  0  -0.007474  -0.130794  0  3.921044  0
C  C121  1  0.56859306  0.76815147  0.87968346  1  -0.012714  0  -0.064843  -0.082509  0  3.940544  0
C  C122  1  0.50180049  0.96741559  0.86943083  1  -0.003133  0  -0.027408  -0.099244  0  4.110068  0
C  C123  1  0.50401476  0.03595551  0.86779194  1  -0.468599  0  -0.028742  -0.100073  0  4.106038  0
C  C124  1  0.50353368  0.11517821  0.86818438  1  0.163432  0  0.010333  0.13178  0  4.097558  0
C  C125  1  0.42972213  0.15574796  0.86971804  1  -0.245261  0  -0.008156  -0.131764  0  3.921021  0
C  C126  1  0.42958211  0.23349905  0.87054680  1  0.152603  0  -0.065806  -0.082599  0  3.941741  0
C  C127  1  0.50298740  0.27307854  0.86968458  1  -0.140602  0  -0.005193  -0.013093  0  3.930921  0
C  C128  1  0.57633181  0.23391879  0.86758528  1  -0.014234  0  -0.069189  -0.071258  0  3.961115  0
C  C129  1  0.57684667  0.15593317  0.86705193  1  0.045606  0  -0.069518  -0.105878  0  3.905507  0
S  S130  1  0.11790179  0.37787379  0.43535526  1  3.093336  0  0.550105  1.157869  0  6.011073  0
S  S131  1  0.87583873  0.60475266  0.57625090  1  3.092667  0  0.544459  1.152041  0  6.032368  0
S  S132  1  0.33792824  0.89772833  0.51150366  1  3.081544  0  0.53621  1.156971  0  6.009999  0
S  S133  1  0.67459354  0.11473681  0.51902248  1  3.074103  0  0.53332  1.157414  0  6.008704  0
S  S134  1  0.67284473  0.50723578  0.12247088  1  3.062117  0  0.536744  1.153979  0  6.014934  0
S  S135  1  0.33514022  0.51470433  0.25634978  1  3.061274  0  0.537961  1.156301  0  6.011152  0
S  S136  1  0.87746306  0.38262835  0.94433408  1  3.097782  0  0.550533  1.159297  0  6.009953  0
S  S137  1  0.12175150  0.61134973  0.80654405  1  3.092017  0  0.54453  1.154449  0  6.020033  0
S  S138  1  0.66874383  0.88950796  0.87199743  1  3.062656  0  0.535527  1.15702  0  6.011517  0
S  S139  1  0.33476105  0.10791805  0.87243829  1  3.055307  0  0.53444  1.155286  0  6.0141  0
Br  Br140  1  0.41970428  0.65822786  0.63207520  1  -0.037082  0  0.032241  -0.039918  0  1.467863  0
Br  Br141  1  0.41994059  0.65835903  0.74849471  1  -0.018461  0  0.040096  -0.025521  0  1.488262  0
Br  Br142  1  0.67622581  0.26918842  0.74707165  1  -0.05121  0  0.01103  -0.074962  0  1.409194  0
Br  Br143  1  0.67461555  0.26884668  0.62878849  1  -0.03242  0  0.028384  -0.04296  0  1.492152  0
N  N144  1  0.28916100  0.50018076  0.49887892  1  -1.213294  0  -0.306423  -0.174714  0  3.485045  0
N  N145  1  0.70626467  0.50022064  0.50013558  1  -1.232055  0  -0.308835  -0.179329  0  3.49391  0
N  N146  1  0.70743142  0.50562092  0.88175561  1  -1.24029  0  -0.308056  -0.179811  0  3.492073  0
N  N147  1  0.29018752  0.49932757  0.87804041  1  -1.244251  0  -0.307619  -0.177247  0  3.488046  0
O  O148  1  0.56157471  0.61116176  0.48356234  1  -1.161282  0  -0.318004  -0.545336  0  2.318687  0
O  O149  1  0.42742137  0.61409440  0.50094055  1  -1.163024  0  -0.313478  -0.545657  0  2.340199  0
O  O150  1  0.43389599  0.49881494  0.57011982  1  -1.152017  0  -0.312887  -0.540486  0  2.314977  0
O  O151  1  0.56740557  0.52942582  0.56744110  1  -1.168717  0  -0.310091  -0.540828  0  2.318982  0
O  O152  1  0.42618402  0.38415113  0.49815278  1  -1.157054  0  -0.312647  -0.540025  0  2.311842  0
O  O153  1  0.56039315  0.38991914  0.51475978  1  -1.169342  0  -0.316008  -0.549488  0  2.338213  0
O  O154  1  0.57016511  0.47400024  0.42913169  1  -1.164245  0  -0.319049  -0.553893  0  2.322316  0
O  O155  1  0.43524434  0.49835559  0.42919251  1  -1.167886  0  -0.310988  -0.536956  0  2.327027  0
O  O156  1  0.42365966  0.61564723  0.87925535  1  -1.166188  0  -0.315262  -0.548276  0  2.339079  0
O  O157  1  0.55866968  0.61541420  0.89408275  1  -1.161413  0  -0.316075  -0.541608  0  2.31952  0
O  O158  1  0.57066279  0.53000815  0.81135794  1  -1.158998  0  -0.3126  -0.544304  0  2.310069  0
O  O159  1  0.43681048  0.50039089  0.80950926  1  -1.156929  0  -0.311916  -0.539894  0  2.317928  0
O  O160  1  0.56803507  0.39173638  0.86500997  1  -1.168425  0  -0.315416  -0.551082  0  2.320093  0
O  O161  1  0.43329417  0.38714164  0.88072927  1  -1.158929  0  -0.31376  -0.53966  0  2.327712  0
O  O162  1  0.43097943  0.50166447  0.95110352  1  -1.167237  0  -0.315825  -0.547935  0  2.322467  0
O  O163  1  0.56667001  0.48103741  0.94972219  1  -1.166489  0  -0.315027  -0.542677  0  2.322931  0
O  O164  1  0.08886871  0.31732304  0.47360306  1  -1.180769  0  -0.356496  -0.527824  0  2.109763  0
O  O165  1  0.18092120  0.34257876  0.40912983  1  -1.262342  0  -0.283076  -0.47745  0  2.099507  0
O  O166  1  0.04683294  0.40924369  0.41428366  1  -1.28396  0  -0.304059  -0.526109  0  2.11652  0
O  O167  1  0.92220006  0.54494560  0.60865718  1  -1.164636  0  -0.357518  -0.518885  0  2.123029  0
O  O168  1  0.81341864  0.63619085  0.60474596  1  -1.269397  0  -0.288071  -0.479803  0  2.096125  0
O  O169  1  0.93547675  0.64977603  0.55290680  1  -1.274317  0  -0.305196  -0.521135  0  2.105831  0
O  O170  1  0.35369748  0.94364975  0.55925958  1  -1.191271  0  -0.364727  -0.522912  0  2.131602  0
O  O171  1  0.27504916  0.84510280  0.52229865  1  -1.28491  0  -0.308819  -0.505169  0  2.091858  0
O  O172  1  0.33018562  0.95068811  0.47424894  1  -1.286434  0  -0.315458  -0.533397  0  2.100063  0
O  O173  1  0.66091955  0.06103185  0.56328505  1  -1.204395  0  -0.3626  -0.520488  0  2.141568  0
O  O174  1  0.73139534  0.17057915  0.53445142  1  -1.290648  0  -0.312093  -0.508608  0  2.125289  0
O  O175  1  0.69009315  0.06864456  0.47874673  1  -1.283703  0  -0.317454  -0.531521  0  2.093219  0
O  O176  1  0.66708358  0.58581470  0.15075385  1  -1.179207  0  -0.364608  -0.521797  0  2.129967  0
O  O177  1  0.73478602  0.51851274  0.08834547  1  -1.286262  0  -0.30369  -0.498599  0  2.094497  0
O  O178  1  0.67646123  0.44709414  0.15551901  1  -1.273351  0  -0.317037  -0.53383  0  2.101747  0
O  O179  1  0.34738634  0.59328809  0.22944652  1  -1.204275  0  -0.364926  -0.522623  0  2.131055  0
O  O180  1  0.27365388  0.52910323  0.29037200  1  -1.279735  0  -0.305257  -0.500484  0  2.093529  0
O  O181  1  0.32739773  0.45554188  0.22234666  1  -1.274561  0  -0.316913  -0.533727  0  2.098483  0
O  O182  1  0.90502109  0.32126121  0.90574532  1  -1.16254  0  -0.356919  -0.528499  0  2.110703  0
O  O183  1  0.81428834  0.34821889  0.97070503  1  -1.268842  0  -0.282135  -0.475072  0  2.099679  0
O  O184  1  0.94930698  0.41369799  0.96515435  1  -1.283563  0  -0.304148  -0.525598  0  2.115083  0
O  O185  1  0.07847852  0.55424543  0.77035354  1  -1.194746  0  -0.357904  -0.519751  0  2.117571  0
O  O186  1  0.18487698  0.64732957  0.78091832  1  -1.270382  0  -0.289351  -0.487295  0  2.12079  0
O  O187  1  0.05972145  0.65220838  0.83094377  1  -1.272622  0  -0.304009  -0.520114  0  2.107365  0
O  O188  1  0.66309849  0.93443318  0.82352772  1  -1.18061  0  -0.365187  -0.522377  0  2.13391  0
O  O189  1  0.72879434  0.83285631  0.86426350  1  -1.289968  0  -0.309921  -0.507329  0  2.09091  0
O  O190  1  0.67521884  0.94314775  0.90939982  1  -1.269448  0  -0.315618  -0.529708  0  2.092739  0
O  O191  1  0.33653374  0.05757018  0.82553547  1  -1.171155  0  -0.364753  -0.521716  0  2.133122  0
O  O192  1  0.27118556  0.16126270  0.86543872  1  -1.28269  0  -0.313724  -0.51244  0  2.092476  0
O  O193  1  0.33512622  0.05867584  0.91184596  1  -1.275295  0  -0.315641  -0.530804  0  2.098443  0
