# generated using pymatgen
data_LiBH3C4N(O2F)2
_symmetry_space_group_name_H-M   'P 1'
_cell_length_a   6.15945078
_cell_length_b   8.04908088
_cell_length_c   14.98675732
_cell_angle_alpha   90.00018939
_cell_angle_beta   90.00001915
_cell_angle_gamma   90.00023875
_symmetry_Int_Tables_number   1
_chemical_formula_structural   LiBH3C4N(O2F)2
_chemical_formula_sum   'Li4 B4 H12 C16 N4 O16 F8'
_cell_volume   743.01221739
_cell_formula_units_Z   4
loop_
 _symmetry_equiv_pos_site_id
 _symmetry_equiv_pos_as_xyz
  1  'x, y, z'
loop_
 _atom_site_type_symbol
 _atom_site_label
 _atom_site_symmetry_multiplicity
 _atom_site_fract_x
 _atom_site_fract_y
 _atom_site_fract_z
 _atom_site_occupancy
 _atom_site_hle17_bader_spin_density
 _atom_site_hle17_ddec_charge
 _atom_site_hle17_ddec_spin_density
 _atom_site_hle17_ddec_sum_bond_order
 _atom_site_hle17_magmom
 _atom_site_hse06_10hf_bader_spin_density
 _atom_site_hse06_10hf_ddec_charge
 _atom_site_hse06_10hf_ddec_spin_density
 _atom_site_hse06_10hf_ddec_sum_bond_order
 _atom_site_hse06_10hf_magmom
 _atom_site_hse06_bader_spin_density
 _atom_site_hse06_ddec_charge
 _atom_site_hse06_ddec_spin_density
 _atom_site_hse06_ddec_sum_bond_order
 _atom_site_hse06_magmom
 _atom_site_pbe_bader_spin_density
 _atom_site_pbe_cm5_charge
 _atom_site_pbe_ddec_charge
 _atom_site_pbe_ddec_spin_density
 _atom_site_pbe_ddec_sum_bond_order
 _atom_site_pbe_magmom
Li  Li0  1  0.25000945  0.54252609  0.53124016  1  0  0.87103  0  0.355081  0  0  0.822498  0  0.471029  0  0  0.833622  0  0.452415  0  0  0.52215  0.81446  0  0.484397  0
Li  Li1  1  0.74999972  0.95747954  0.03123713  1  0  0.871037  0  0.355088  0  0  0.822501  0  0.471021  0  0  0.833631  0  0.452397  0  0  0.522129  0.814462  0  0.484387  0
Li  Li2  1  0.25000017  0.04251879  0.96876065  1  0  0.871025  0  0.355101  0  0  0.822498  0  0.471029  0  0  0.833624  0  0.452413  0  0  0.522132  0.814462  0  0.484392  0
Li  Li3  1  0.74998883  0.45747349  0.46876296  1  0  0.871031  0  0.355079  0  0  0.822493  0  0.471036  0  0  0.833619  0  0.452421  0  0  0.52215  0.814455  0  0.484405  0
B  B4  1  0.24999636  0.56603830  0.19771440  1  0  1.128613  0  2.857288  0  0  0.959235  0  3.234265  0  0  0.996027  0  3.198201  0  0  0.064727  0.933152  0  3.260405  0
B  B5  1  0.74999838  0.93396214  0.69771084  1  0  1.128462  0  2.857685  0  0  0.958947  0  3.235038  0  0  0.995926  0  3.198316  0  0  0.064676  0.932925  0  3.261031  0
B  B6  1  0.24999665  0.06604116  0.30228561  1  0  1.128611  0  2.85737  0  0  0.959282  0  3.234194  0  0  0.995987  0  3.198439  0  0  0.064697  0.933197  0  3.260245  0
B  B7  1  0.75000192  0.43396252  0.80228805  1  0  1.128581  0  2.857446  0  0  0.959145  0  3.234621  0  0  0.996053  0  3.198134  0  0  0.064726  0.933026  0  3.260805  0
H  H8  1  0.25000188  0.13119876  0.65642899  1  0  0.171751  0  0.897352  0  0  0.191839  0  0.949069  0  0  0.193799  0  0.947495  0  0  0.12621  0.19036  0  0.950311  0
H  H9  1  0.75000141  0.36881520  0.15643114  1  0  0.171749  0  0.897368  0  0  0.191826  0  0.949085  0  0  0.193788  0  0.947501  0  0  0.126168  0.190346  0  0.95033  0
H  H10  1  0.25000498  0.63118562  0.84357332  1  0  0.171766  0  0.897374  0  0  0.191862  0  0.949097  0  0  0.193822  0  0.947519  0  0  0.126216  0.190384  0  0.950335  0
H  H11  1  0.75000613  0.86880330  0.34357013  1  0  0.171763  0  0.897342  0  0  0.19184  0  0.949072  0  0  0.193807  0  0.94748  0  0  0.126223  0.190357  0  0.950321  0
H  H12  1  0.10480552  0.15796898  0.55401993  1  0  0.158401  0  0.940316  0  0  0.175586  0  1.001011  0  0  0.176772  0  1.00115  0  0  0.122648  0.17471  0  1.000949  0
H  H13  1  0.89519442  0.34203566  0.05402404  1  0  0.158319  0  0.940334  0  0  0.175511  0  1.00103  0  0  0.176699  0  1.001165  0  0  0.122609  0.174631  0  1.000977  0
H  H14  1  0.39519825  0.65795692  0.94597842  1  0  0.158394  0  0.940306  0  0  0.175617  0  1.00097  0  0  0.176805  0  1.001105  0  0  0.122654  0.174744  0  1.000902  0
H  H15  1  0.60480810  0.84203263  0.44597717  1  0  0.158296  0  0.940338  0  0  0.17548  0  1.001047  0  0  0.176668  0  1.001182  0  0  0.122603  0.174599  0  1.000994  0
H  H16  1  0.89519276  0.84203557  0.44597785  1  0  0.158263  0  0.940389  0  0  0.175458  0  1.001084  0  0  0.176646  0  1.001221  0  0  0.122583  0.174578  0  1.00103  0
H  H17  1  0.10480547  0.65796392  0.94598041  1  0  0.158325  0  0.940349  0  0  0.175534  0  1.001034  0  0  0.17672  0  1.001173  0  0  0.122621  0.17466  0  1.000966  0
H  H18  1  0.60480327  0.34203644  0.05402536  1  0  0.158309  0  0.940363  0  0  0.175517  0  1.001038  0  0  0.176704  0  1.001174  0  0  0.122614  0.174636  0  1.000986  0
H  H19  1  0.39519667  0.15796695  0.55402128  1  0  0.158401  0  0.940319  0  0  0.175603  0  1.000995  0  0  0.17679  0  1.001132  0  0  0.122652  0.174728  0  1.000933  0
C  C20  1  0.12570122  0.55418751  0.34298397  1  0  0.578248  0  3.849198  0  0  0.524968  0  4.153117  0  0  0.555606  0  4.14065  0  0  0.276773  0.504099  0  4.161351  0
C  C21  1  0.87427417  0.94581507  0.84298311  1  0  0.57832  0  3.848956  0  0  0.524965  0  4.15289  0  0  0.555588  0  4.140473  0  0  0.276819  0.504091  0  4.161133  0
C  C22  1  0.37427548  0.05418987  0.15701402  1  0  0.57832  0  3.849052  0  0  0.52486  0  4.15318  0  0  0.555501  0  4.140709  0  0  0.276784  0.504024  0  4.161351  0
C  C23  1  0.62574080  0.44581664  0.65701313  1  0  0.578476  0  3.848848  0  0  0.525039  0  4.15295  0  0  0.555663  0  4.140522  0  0  0.276883  0.504216  0  4.161105  0
C  C24  1  0.87428893  0.44581082  0.65702049  1  0  0.578452  0  3.848711  0  0  0.525023  0  4.152797  0  0  0.555641  0  4.140372  0  0  0.276847  0.504179  0  4.160984  0
C  C25  1  0.12572897  0.05418948  0.15701734  1  0  0.578365  0  3.848993  0  0  0.524926  0  4.153088  0  0  0.555567  0  4.140618  0  0  0.276847  0.504097  0  4.16125  0
C  C26  1  0.62572441  0.94581219  0.84298042  1  0  0.578326  0  3.849085  0  0  0.524945  0  4.153026  0  0  0.555565  0  4.14061  0  0  0.276809  0.504062  0  4.161282  0
C  C27  1  0.37425748  0.55417920  0.34298598  1  0  0.57845  0  3.848842  0  0  0.524831  0  4.153163  0  0  0.555466  0  4.140703  0  0  0.276842  0.504002  0  4.161337  0
C  C28  1  0.25000403  0.92635637  0.57125183  1  0  0.474229  0  3.674204  0  0  0.460505  0  3.963057  0  0  0.47442  0  3.975386  0  0  0.234228  0.450872  0  3.954911  0
C  C29  1  0.75000031  0.57364950  0.07125078  1  0  0.474459  0  3.674208  0  0  0.46071  0  3.963076  0  0  0.474633  0  3.975383  0  0  0.234352  0.451083  0  3.954911  0
C  C30  1  0.25000121  0.42634759  0.92874967  1  0  0.474625  0  3.674087  0  0  0.460911  0  3.962943  0  0  0.474829  0  3.975264  0  0  0.234458  0.451273  0  3.954801  0
C  C31  1  0.75000236  0.07364818  0.42874595  1  0  0.47429  0  3.674328  0  0  0.460559  0  3.963183  0  0  0.474485  0  3.975481  0  0  0.234328  0.450931  0  3.955029  0
C  C32  1  0.25000015  0.10365005  0.58467829  1  0  -0.382721  0  3.713632  0  0  -0.456903  0  3.94428  0  0  -0.458804  0  3.948256  0  0  -0.198509  -0.455317  0  3.94152  0
C  C33  1  0.74999983  0.39635725  0.08468048  1  0  -0.382641  0  3.713648  0  0  -0.456824  0  3.944281  0  0  -0.458719  0  3.948243  0  0  -0.198451  -0.455242  0  3.941517  0
C  C34  1  0.25000170  0.60364232  0.91532330  1  0  -0.382781  0  3.713627  0  0  -0.457046  0  3.944373  0  0  -0.458943  0  3.948341  0  0  -0.198595  -0.455452  0  3.941589  0
C  C35  1  0.75000137  0.89635573  0.41531883  1  0  -0.382518  0  3.713613  0  0  -0.456691  0  3.944244  0  0  -0.458587  0  3.948202  0  0  -0.198442  -0.455114  0  3.941502  0
N  N36  1  0.25000526  0.78375993  0.55934252  1  0  -0.555398  0  2.666156  0  0  -0.533574  0  2.910467  0  0  -0.546567  0  2.917181  0  0  -0.39814  -0.524865  0  2.906337  0
N  N37  1  0.75000232  0.71624339  0.05934240  1  0  -0.55554  0  2.666215  0  0  -0.53371  0  2.910553  0  0  -0.546699  0  2.917244  0  0  -0.398192  -0.524994  0  2.906403  0
N  N38  1  0.24999758  0.28375370  0.94065672  1  0  -0.555678  0  2.666163  0  0  -0.533847  0  2.910465  0  0  -0.546839  0  2.91717  0  0  -0.398264  -0.525158  0  2.906372  0
N  N39  1  0.75000276  0.21623965  0.44065926  1  0  -0.555439  0  2.666349  0  0  -0.533634  0  2.910698  0  0  -0.546618  0  2.917383  0  0  -0.398206  -0.52492  0  2.906554  0
O  O40  1  0.05507640  0.56224521  0.26101694  1  0  -0.511447  0  2.151504  0  0  -0.443333  0  2.38402  0  0  -0.465574  0  2.37203  0  0  -0.138607  -0.428099  0  2.392184  0
O  O41  1  0.94491515  0.93775935  0.76101741  1  0  -0.511525  0  2.151393  0  0  -0.44338  0  2.383946  0  0  -0.465656  0  2.371919  0  0  -0.138763  -0.428152  0  2.392105  0
O  O42  1  0.44491659  0.06224829  0.23898173  1  0  -0.511542  0  2.151329  0  0  -0.443385  0  2.383888  0  0  -0.465615  0  2.371927  0  0  -0.138711  -0.428168  0  2.392032  0
O  O43  1  0.55508841  0.43775499  0.73898015  1  0  -0.511623  0  2.151183  0  0  -0.443462  0  2.383768  0  0  -0.465728  0  2.371758  0  0  -0.138785  -0.428241  0  2.391937  0
O  O44  1  0.94492187  0.43775436  0.73898685  1  0  -0.511488  0  2.151327  0  0  -0.44334  0  2.383923  0  0  -0.465591  0  2.371908  0  0  -0.138676  -0.428117  0  2.3921  0
O  O45  1  0.05508150  0.06224892  0.23898037  1  0  -0.511433  0  2.151457  0  0  -0.443299  0  2.38403  0  0  -0.465519  0  2.372063  0  0  -0.138697  -0.428087  0  2.392171  0
O  O46  1  0.55508169  0.93775376  0.76101672  1  0  -0.511419  0  2.151565  0  0  -0.443271  0  2.384126  0  0  -0.465542  0  2.372099  0  0  -0.138661  -0.428039  0  2.392286  0
O  O47  1  0.44490824  0.56224458  0.26102363  1  0  -0.511539  0  2.151265  0  0  -0.443367  0  2.383936  0  0  -0.465597  0  2.371936  0  0  -0.138786  -0.428145  0  2.392086  0
O  O48  1  0.01898068  0.54684883  0.41232117  1  0  -0.607926  0  2.048029  0  0  -0.57224  0  2.290815  0  0  -0.590285  0  2.278246  0  0  -0.318959  -0.559862  0  2.299319  0
O  O49  1  0.98098991  0.95316039  0.91232233  1  0  -0.607931  0  2.048009  0  0  -0.572212  0  2.290758  0  0  -0.590261  0  2.278204  0  0  -0.318958  -0.559836  0  2.299267  0
O  O50  1  0.48099111  0.04683991  0.08767547  1  0  -0.607934  0  2.048042  0  0  -0.572165  0  2.29083  0  0  -0.590209  0  2.278263  0  0  -0.318931  -0.559792  0  2.299307  0
O  O51  1  0.51903159  0.45316865  0.58767259  1  0  -0.608042  0  2.048081  0  0  -0.572258  0  2.290834  0  0  -0.590302  0  2.278278  0  0  -0.318987  -0.559888  0  2.299306  0
O  O52  1  0.98102084  0.45314826  0.58767861  1  0  -0.608058  0  2.047698  0  0  -0.572332  0  2.290551  0  0  -0.59038  0  2.277997  0  0  -0.319009  -0.559954  0  2.299036  0
O  O53  1  0.01900674  0.04684167  0.08767078  1  0  -0.608032  0  2.04777  0  0  -0.572277  0  2.290559  0  0  -0.590326  0  2.277993  0  0  -0.318984  -0.559901  0  2.299032  0
O  O54  1  0.51900067  0.95315593  0.91232431  1  0  -0.608013  0  2.047884  0  0  -0.572302  0  2.29067  0  0  -0.590352  0  2.278115  0  0  -0.318977  -0.55992  0  2.299184  0
O  O55  1  0.48096830  0.54682719  0.41233120  1  0  -0.608045  0  2.047964  0  0  -0.572188  0  2.290765  0  0  -0.590238  0  2.278204  0  0  -0.318979  -0.559818  0  2.299244  0
F  F56  1  0.24999998  0.71063105  0.14808271  1  0  -0.467461  0  1.062422  0  0  -0.403872  0  1.236678  0  0  -0.41966  0  1.219187  0  0  -0.113355  -0.392398  0  1.248604  0
F  F57  1  0.75000282  0.78936784  0.64807956  1  0  -0.467402  0  1.062557  0  0  -0.403799  0  1.23686  0  0  -0.41961  0  1.219295  0  0  -0.113308  -0.392327  0  1.248768  0
F  F58  1  0.24999870  0.21063422  0.35191889  1  0  -0.467465  0  1.062527  0  0  -0.403883  0  1.236774  0  0  -0.41966  0  1.219324  0  0  -0.113311  -0.392407  0  1.248689  0
F  F59  1  0.74999830  0.28936976  0.85191841  1  0  -0.467435  0  1.062493  0  0  -0.403839  0  1.236766  0  0  -0.419646  0  1.219234  0  0  -0.113348  -0.392325  0  1.248692  0
F  F60  1  0.24999594  0.42440582  0.14485694  1  0  -0.474577  0  1.058177  0  0  -0.40955  0  1.235064  0  0  -0.425759  0  1.218302  0  0  -0.120898  -0.397846  0  1.246531  0
F  F61  1  0.74999598  0.07558944  0.64485208  1  0  -0.474495  0  1.058166  0  0  -0.409445  0  1.235092  0  0  -0.425679  0  1.21825  0  0  -0.120859  -0.397776  0  1.246581  0
F  F62  1  0.24999743  0.92440890  0.35514370  1  0  -0.474583  0  1.058121  0  0  -0.409571  0  1.235015  0  0  -0.425771  0  1.218295  0  0  -0.120918  -0.397826  0  1.246427  0
F  F63  1  0.75000071  0.57559376  0.85514484  1  0  -0.474557  0  1.058226  0  0  -0.40951  0  1.235121  0  0  -0.425737  0  1.218312  0  0  -0.120889  -0.397814  0  1.246624  0
