# generated using pymatgen
data_CdH17C23(NO2)2
_symmetry_space_group_name_H-M   'P 1'
_cell_length_a   11.38547531
_cell_length_b   11.38546646
_cell_length_c   20.33278177
_cell_angle_alpha   74.20091876
_cell_angle_beta   74.20084978
_cell_angle_gamma   79.00683700
_symmetry_Int_Tables_number   1
_chemical_formula_structural   CdH17C23(NO2)2
_chemical_formula_sum   'Cd4 H68 C92 N8 O16'
_cell_volume   2420.91885646
_cell_formula_units_Z   4
loop_
 _symmetry_equiv_pos_site_id
 _symmetry_equiv_pos_as_xyz
  1  'x, y, z'
loop_
 _atom_site_type_symbol
 _atom_site_label
 _atom_site_symmetry_multiplicity
 _atom_site_fract_x
 _atom_site_fract_y
 _atom_site_fract_z
 _atom_site_occupancy
 _atom_site_pbe_bader_charge
 _atom_site_pbe_bader_spin_density
 _atom_site_pbe_cm5_charge
 _atom_site_pbe_ddec_charge
 _atom_site_pbe_ddec_spin_density
 _atom_site_pbe_ddec_sum_bond_order
 _atom_site_pbe_magmom
Cd  Cd0  1  0.25697251  0.80756756  0.66875984  1  1.248162  0  0.7626  0.907808  0  2.317687  0
Cd  Cd1  1  0.19243111  0.74302798  0.83124053  1  1.25643  0  0.7626  0.907786  0  2.317738  0
Cd  Cd2  1  0.74302722  0.19243329  0.33124017  1  1.248184  0  0.762593  0.907778  0  2.317736  0
Cd  Cd3  1  0.80756861  0.25697379  0.16875934  1  1.256428  0  0.762621  0.907833  0  2.317699  0
H  H4  1  0.41443897  0.07852431  0.40463249  1  0.164649  0  0.119203  0.125645  0  1.049075  0
H  H5  1  0.92147666  0.58555961  0.09536761  1  0.16466  0  0.119205  0.12566  0  1.049082  0
H  H6  1  0.58555985  0.92147483  0.59536742  1  0.164645  0  0.11919  0.125641  0  1.049102  0
H  H7  1  0.07852492  0.41444010  0.90463180  1  0.164642  0  0.119194  0.12564  0  1.04908  0
H  H8  1  0.35942894  0.95686351  0.31550029  1  0.053034  0  0.096567  0.096888  0  1.03528  0
H  H9  1  0.04313725  0.64057038  0.18449910  1  0.053018  0  0.096562  0.096879  0  1.035312  0
H  H10  1  0.64056987  0.04313653  0.68450047  1  0.053046  0  0.096563  0.096883  0  1.035309  0
H  H11  1  0.95686158  0.35942786  0.81549995  1  0.053047  0  0.096563  0.096875  0  1.035349  0
H  H12  1  0.67458230  0.71436361  0.65834277  1  0.097263  0  0.106405  0.110865  0  0.988326  0
H  H13  1  0.28563605  0.32541622  0.84165853  1  0.097234  0  0.106414  0.110867  0  0.988332  0
H  H14  1  0.32541651  0.28563735  0.34165785  1  0.09724  0  0.106396  0.110866  0  0.988296  0
H  H15  1  0.71436368  0.67458463  0.15834148  1  0.097242  0  0.106407  0.110858  0  0.98835  0
H  H16  1  0.89252966  0.73240415  0.65317084  1  0.112852  0  0.106349  0.112715  0  0.995469  0
H  H17  1  0.26759680  0.10746873  0.84682923  1  0.112843  0  0.106351  0.112749  0  0.995462  0
H  H18  1  0.10747008  0.26759671  0.34682867  1  0.112862  0  0.106372  0.112769  0  0.995468  0
H  H19  1  0.73240477  0.89253189  0.15317104  1  0.112845  0  0.106362  0.112737  0  0.995469  0
H  H20  1  0.61173447  0.77980358  0.40628354  1  0.06616  0  0.112113  0.09301  0  0.991881  0
H  H21  1  0.22019769  0.38826499  0.09371559  1  0.066132  0  0.112109  0.093005  0  0.991853  0
H  H22  1  0.38826527  0.22019637  0.59371562  1  0.066156  0  0.112106  0.093004  0  0.991886  0
H  H23  1  0.77980390  0.61173291  0.90628409  1  0.066176  0  0.112124  0.093027  0  0.991873  0
H  H24  1  0.57844894  0.92705512  0.35362542  1  0.139973  0  0.117056  0.117147  0  0.98696  0
H  H25  1  0.07294630  0.42155018  0.14637430  1  0.140013  0  0.117048  0.117165  0  0.986936  0
H  H26  1  0.42155080  0.07294482  0.64637423  1  0.139998  0  0.11705  0.11714  0  0.986978  0
H  H27  1  0.92705528  0.57844862  0.85362525  1  0.13998  0  0.117059  0.117165  0  0.986943  0
H  H28  1  0.25631768  0.06611973  0.53824082  1  0.115401  0  0.119156  0.115952  0  1.003734  0
H  H29  1  0.93388011  0.74368158  0.96175977  1  0.115404  0  0.119182  0.116014  0  1.003721  0
H  H30  1  0.74368115  0.93387941  0.46175909  1  0.115388  0  0.119156  0.115974  0  1.003736  0
H  H31  1  0.06612055  0.25631825  0.03824025  1  0.115387  0  0.119164  0.115974  0  1.003752  0
H  H32  1  0.41796796  0.63746018  0.58738555  1  0.099414  0  0.104192  0.163282  0  1.019292  0
H  H33  1  0.36253970  0.58203158  0.91261416  1  0.099402  0  0.104208  0.163284  0  1.019329  0
H  H34  1  0.58203178  0.36253976  0.41261459  1  0.099406  0  0.104197  0.16327  0  1.01937  0
H  H35  1  0.63746006  0.41796381  0.08738519  1  0.099373  0  0.104197  0.163281  0  1.019345  0
H  H36  1  0.55482389  0.65680688  0.51942280  1  0.050763  0  0.101122  0.144576  0  0.98448  0
H  H37  1  0.34319228  0.44517607  0.98057642  1  0.050763  0  0.101135  0.144589  0  0.98446  0
H  H38  1  0.44517676  0.34319295  0.48057722  1  0.050764  0  0.101141  0.144588  0  0.98447  0
H  H39  1  0.65680656  0.55482034  0.01942291  1  0.050809  0  0.101139  0.144593  0  0.984449  0
H  H40  1  0.42179049  0.62418975  0.50160018  1  0.063283  0  0.100419  0.147533  0  0.990283  0
H  H41  1  0.37581005  0.57820928  0.99840000  1  0.063299  0  0.100413  0.147501  0  0.990261  0
H  H42  1  0.57821016  0.37580916  0.49840048  1  0.063282  0  0.100391  0.14745  0  0.990338  0
H  H43  1  0.62419063  0.42178782  0.00159896  1  0.063232  0  0.100407  0.147512  0  0.990287  0
H  H44  1  0.57619030  0.60790165  0.37350706  1  0.05909  0  0.097959  0.097718  0  1.024537  0
H  H45  1  0.39209906  0.42380996  0.12649247  1  0.059074  0  0.097957  0.097708  0  1.024571  0
H  H46  1  0.42380760  0.39209852  0.62649234  1  0.059061  0  0.097965  0.09769  0  1.024603  0
H  H47  1  0.60790159  0.57619077  0.87350791  1  0.059061  0  0.097962  0.097686  0  1.024583  0
H  H48  1  0.86893573  0.91131419  0.84494512  1  0.100199  0  0.103586  0.116152  0  1.020895  0
H  H49  1  0.08868582  0.13106502  0.65505482  1  0.100211  0  0.103592  0.116137  0  1.020907  0
H  H50  1  0.13106768  0.08868530  0.15505455  1  0.10024  0  0.103595  0.116173  0  1.020915  0
H  H51  1  0.91131575  0.86893652  0.34494432  1  0.100178  0  0.103581  0.11614  0  1.02091  0
H  H52  1  0.48037691  0.51757413  0.30684422  1  0.057118  0  0.098916  0.103744  0  1.014669  0
H  H53  1  0.48242622  0.51962301  0.19315592  1  0.057124  0  0.098895  0.10371  0  1.014644  0
H  H54  1  0.51962007  0.48242798  0.69315454  1  0.057093  0  0.098921  0.103726  0  1.014639  0
H  H55  1  0.51757259  0.48037886  0.80684457  1  0.057101  0  0.098917  0.103728  0  1.01466  0
H  H56  1  0.43438005  0.87936337  0.85418254  1  0.080276  0  0.102024  0.114828  0  1.026508  0
H  H57  1  0.12063462  0.56562166  0.64581967  1  0.079596  0  0.102021  0.114834  0  1.026488  0
H  H58  1  0.56562243  0.12063347  0.14582061  1  0.079581  0  0.10202  0.114814  0  1.026552  0
H  H59  1  0.87936326  0.43438032  0.35418143  1  0.080278  0  0.102024  0.114828  0  1.026514  0
H  H60  1  0.70028161  0.98771136  0.93444707  1  0.042251  0  0.100392  0.09667  0  0.995886  0
H  H61  1  0.01229114  0.29971913  0.56555308  1  0.042271  0  0.100381  0.096672  0  0.995891  0
H  H62  1  0.29972087  0.01228915  0.06555356  1  0.042271  0  0.100376  0.096635  0  0.995938  0
H  H63  1  0.98771135  0.70028321  0.43444629  1  0.042292  0  0.100378  0.096629  0  0.99594  0
H  H64  1  0.26635915  0.86813780  0.24699261  1  0.069031  0  0.096518  0.096966  0  1.033983  0
H  H65  1  0.13186274  0.73364163  0.25300611  1  0.069046  0  0.096533  0.096954  0  1.033971  0
H  H66  1  0.73363781  0.13186521  0.75300798  1  0.066131  0  0.096533  0.096982  0  1.034032  0
H  H67  1  0.86813516  0.26636037  0.74699203  1  0.066097  0  0.096518  0.096942  0  1.034049  0
H  H68  1  0.48175468  0.97157995  0.93915512  1  0.052767  0  0.098176  0.093403  0  1.006053  0
H  H69  1  0.02841932  0.51824621  0.56084705  1  0.052924  0  0.098165  0.093446  0  1.005998  0
H  H70  1  0.51824780  0.02841781  0.06084691  1  0.052895  0  0.098159  0.09341  0  1.006039  0
H  H71  1  0.97157856  0.48175669  0.43915392  1  0.052808  0  0.098173  0.093413  0  1.006077  0
C  C72  1  0.59999825  0.78864976  0.74901483  1  -0.033213  0  -0.01222  -0.077517  0  3.939283  0
C  C73  1  0.21134969  0.40000278  0.75098668  1  -0.033269  0  -0.012214  -0.077401  0  3.939161  0
C  C74  1  0.40000331  0.21134903  0.25098669  1  -0.03324  0  -0.012206  -0.077448  0  3.939253  0
C  C75  1  0.78865096  0.59999887  0.24901307  1  -0.033058  0  -0.012194  -0.077407  0  3.939215  0
C  C76  1  0.84620741  0.80699661  0.74390855  1  -0.093137  0  -0.007977  -0.063215  0  3.920023  0
C  C77  1  0.19300322  0.15379277  0.75609146  1  -0.093169  0  -0.007992  -0.063258  0  3.91996  0
C  C78  1  0.15379325  0.19300322  0.25609098  1  -0.092947  0  -0.007947  -0.063136  0  3.919987  0
C  C79  1  0.80699742  0.84620888  0.24390878  1  -0.093363  0  -0.007937  -0.06317  0  3.919912  0
C  C80  1  0.39302006  0.00216527  0.44957725  1  0.283389  0  -0.001809  -0.104483  0  3.941557  0
C  C81  1  0.99783540  0.60697995  0.05042266  1  0.283391  0  -0.001815  -0.104474  0  3.941578  0
C  C82  1  0.60697968  0.99783376  0.55042254  1  0.283469  0  -0.001801  -0.104483  0  3.941569  0
C  C83  1  0.00216525  0.39301987  0.94957736  1  0.283495  0  -0.001792  -0.10445  0  3.941533  0
C  C84  1  0.75027792  0.84880378  0.79769005  1  -0.024824  0  -0.001829  0.052574  0  3.942814  0
C  C85  1  0.15119540  0.24972065  0.70231183  1  -0.025077  0  -0.001842  0.052597  0  3.942956  0
C  C86  1  0.24972272  0.15119512  0.20231159  1  -0.025077  0  -0.001867  0.052557  0  3.942873  0
C  C87  1  0.84880525  0.75027826  0.29768931  1  -0.024856  0  -0.001901  0.05246  0  3.942971  0
C  C88  1  0.47282705  0.77094248  0.74873352  1  1.586097  0  0.212227  0.591212  0  4.197889  0
C  C89  1  0.22905850  0.52717044  0.75126783  1  1.58604  0  0.212079  0.591044  0  4.197961  0
C  C90  1  0.52717267  0.22905744  0.25126810  1  1.58604  0  0.212138  0.591138  0  4.197902  0
C  C91  1  0.77094306  0.47283018  0.24873292  1  1.586067  0  0.212125  0.591158  0  4.19789  0
C  C92  1  0.98006738  0.80297734  0.74081264  1  1.589106  0  0.209855  0.590552  0  4.205664  0
C  C93  1  0.19702365  0.01993260  0.75918669  1  1.589175  0  0.209871  0.590575  0  4.205614  0
C  C94  1  0.01993420  0.19702329  0.25918615  1  1.588914  0  0.209888  0.590597  0  4.205595  0
C  C95  1  0.80297701  0.98006815  0.24081270  1  1.589363  0  0.20986  0.590578  0  4.205633  0
C  C96  1  0.38593828  0.86020872  0.31395873  1  -0.019495  0  -0.093994  -0.123775  0  3.982379  0
C  C97  1  0.13978973  0.61406344  0.18604159  1  -0.019488  0  -0.093995  -0.123767  0  3.982416  0
C  C98  1  0.61406053  0.13979224  0.68604140  1  -0.0195  0  -0.093987  -0.123761  0  3.982425  0
C  C99  1  0.86020909  0.38593845  0.81395742  1  -0.019532  0  -0.094004  -0.123856  0  3.982422  0
C  C100  1  0.69562252  0.75295373  0.69669900  1  -0.079468  0  -0.083916  -0.096078  0  4.019905  0
C  C101  1  0.24704599  0.30437448  0.80330302  1  -0.079515  0  -0.083906  -0.096104  0  4.019896  0
C  C102  1  0.30437444  0.24704654  0.30330249  1  -0.07952  0  -0.083895  -0.096083  0  4.019947  0
C  C103  1  0.75295467  0.69562535  0.19669701  1  -0.079513  0  -0.08392  -0.09613  0  4.019944  0
C  C104  1  0.62450403  0.83948776  0.80036187  1  -0.025243  0  -0.001761  0.051135  0  3.951682  0
C  C105  1  0.16051039  0.37549709  0.69964032  1  -0.025131  0  -0.001749  0.050984  0  3.951827  0
C  C106  1  0.37549755  0.16050920  0.19963993  1  -0.025153  0  -0.001744  0.051018  0  3.951944  0
C  C107  1  0.83948934  0.62450375  0.30036018  1  -0.025406  0  -0.0017  0.051122  0  3.951797  0
C  C108  1  0.41114207  0.80844610  0.51212805  1  0.988444  0  0.217544  0.337231  0  3.950524  0
C  C109  1  0.19155472  0.58885771  0.98787107  1  0.988425  0  0.217515  0.337189  0  3.95062  0
C  C110  1  0.58885767  0.19155293  0.48787174  1  0.988464  0  0.217568  0.337266  0  3.950492  0
C  C111  1  0.80844687  0.41114019  0.01212763  1  0.988459  0  0.217541  0.337224  0  3.950552  0
C  C112  1  0.81785149  0.76231910  0.69397339  1  0.000249  0  -0.083505  -0.094597  0  4.000701  0
C  C113  1  0.23768212  0.18214710  0.80602763  1  0.000256  0  -0.083474  -0.094562  0  4.000591  0
C  C114  1  0.18214823  0.23768266  0.30602697  1  0.000257  0  -0.083539  -0.094678  0  4.000779  0
C  C115  1  0.76231853  0.81785364  0.19397226  1  0.000253  0  -0.083502  -0.094575  0  4.000589  0
C  C116  1  0.47521764  0.78891817  0.34901166  1  0.023939  0  -0.018967  0.07764  0  3.985527  0
C  C117  1  0.21108342  0.52478201  0.15098794  1  0.023981  0  -0.018951  0.077635  0  3.985504  0
C  C118  1  0.52478209  0.21108177  0.65098849  1  0.02395  0  -0.018958  0.077654  0  3.985481  0
C  C119  1  0.78891817  0.47521680  0.84901111  1  0.023853  0  -0.01898  0.077626  0  3.985467  0
C  C120  1  0.36674089  0.68615657  0.27136058  1  -0.048189  0  -0.009782  0.06355  0  4.006902  0
C  C121  1  0.31384409  0.63325806  0.22863878  1  -0.007236  0  -0.009832  0.063428  0  4.007017  0
C  C122  1  0.63325700  0.31384543  0.72863904  1  -0.007289  0  -0.009838  0.0635  0  4.006968  0
C  C123  1  0.68615565  0.36674281  0.77135975  1  -0.048214  0  -0.009786  0.063548  0  4.006894  0
C  C124  1  0.53697112  0.84556287  0.38776578  1  0.253945  0  -0.046256  -0.106282  0  3.891132  0
C  C125  1  0.15443862  0.46302837  0.11223337  1  0.253939  0  -0.046263  -0.106318  0  3.891085  0
C  C126  1  0.46302862  0.15443707  0.61223437  1  0.253923  0  -0.046265  -0.1063  0  3.891132  0
C  C127  1  0.84556205  0.53697055  0.88776580  1  0.253956  0  -0.046266  -0.106303  0  3.891062  0
C  C128  1  0.31700284  0.99450041  0.51537638  1  0.381796  0  -0.010671  -0.037449  0  4.035432  0
C  C129  1  0.00549931  0.68299725  0.98462345  1  0.381789  0  -0.010668  -0.037507  0  4.035423  0
C  C130  1  0.68299690  0.00549771  0.48462355  1  0.381676  0  -0.01067  -0.037468  0  4.035397  0
C  C131  1  0.99450227  0.31700155  0.01537610  1  0.381673  0  -0.010665  -0.03747  0  4.035353  0
C  C132  1  0.45374128  0.67465674  0.53116533  1  -0.055108  0  -0.22902  -0.465443  0  3.94258  0
C  C133  1  0.32534290  0.54625862  0.96883387  1  -0.055118  0  -0.229045  -0.465413  0  3.942572  0
C  C134  1  0.54625846  0.32534321  0.46883383  1  -0.055086  0  -0.229018  -0.46535  0  3.942645  0
C  C135  1  0.67465594  0.45373870  0.03116582  1  -0.055044  0  -0.229021  -0.465421  0  3.942598  0
C  C136  1  0.50709042  0.66511818  0.34644241  1  -0.071853  0  -0.098043  -0.141676  0  4.024265  0
C  C137  1  0.33488274  0.49290920  0.15355674  1  -0.071867  0  -0.09802  -0.141607  0  4.024194  0
C  C138  1  0.49290840  0.33488279  0.65355673  1  -0.071838  0  -0.097993  -0.141571  0  4.024192  0
C  C139  1  0.66511700  0.50709165  0.84644277  1  -0.071894  0  -0.097962  -0.141497  0  4.02413  0
C  C140  1  0.77414585  0.90315493  0.84730729  1  -0.065754  0  -0.094862  -0.140316  0  3.989006  0
C  C141  1  0.09684442  0.22585469  0.65269379  1  -0.065493  0  -0.094883  -0.140285  0  3.988985  0
C  C142  1  0.22585573  0.09684386  0.15269324  1  -0.065539  0  -0.0949  -0.140377  0  3.988944  0
C  C143  1  0.90315622  0.77414788  0.34730582  1  -0.065748  0  -0.094844  -0.140267  0  3.988985  0
C  C144  1  0.45385546  0.61434596  0.30813500  1  -0.079888  0  -0.094152  -0.130492  0  3.986505  0
C  C145  1  0.38565291  0.54614599  0.19186518  1  -0.079962  0  -0.094143  -0.13048  0  3.986427  0
C  C146  1  0.54614244  0.38565513  0.69186378  1  -0.079934  0  -0.0942  -0.130532  0  3.98649  0
C  C147  1  0.61434589  0.45385771  0.80813504  1  -0.079868  0  -0.094247  -0.130619  0  3.98646  0
C  C148  1  0.52940422  0.88527237  0.85247196  1  0.040852  0  -0.094286  -0.132213  0  3.973204  0
C  C149  1  0.11472591  0.47059704  0.64753024  1  0.041551  0  -0.09429  -0.132152  0  3.973261  0
C  C150  1  0.47059828  0.11472447  0.14752971  1  0.041206  0  -0.094278  -0.132114  0  3.973406  0
C  C151  1  0.88527105  0.52940505  0.35247148  1  0.040797  0  -0.094325  -0.132246  0  3.973362  0
C  C152  1  0.67958241  0.94546570  0.89741120  1  0.002279  0  -0.096018  -0.089426  0  4.060084  0
C  C153  1  0.05453369  0.32041861  0.60258985  1  0.002293  0  -0.096005  -0.089434  0  4.06008  0
C  C154  1  0.32042008  0.05453298  0.10258970  1  0.002345  0  -0.095985  -0.089335  0  4.060092  0
C  C155  1  0.94546603  0.67958406  0.39741038  1  0.00224  0  -0.095984  -0.089357  0  4.060033  0
C  C156  1  0.33244850  0.80975243  0.27582415  1  -0.02597  0  -0.091769  -0.123014  0  3.975057  0
C  C157  1  0.19024792  0.66755198  0.22417508  1  -0.025962  0  -0.091766  -0.122937  0  3.975054  0
C  C158  1  0.66755030  0.19024945  0.72417633  1  -0.022999  0  -0.091767  -0.123036  0  3.975128  0
C  C159  1  0.80975091  0.33244992  0.77582245  1  -0.022865  0  -0.091731  -0.122887  0  3.974992  0
C  C160  1  0.55629044  0.93648866  0.89995832  1  -0.125688  0  -0.097377  -0.089542  0  4.056704  0
C  C161  1  0.06351029  0.44371008  0.60004390  1  -0.125896  0  -0.097366  -0.089606  0  4.056741  0
C  C162  1  0.44371297  0.06350990  0.10004296  1  -0.125586  0  -0.097385  -0.08962  0  4.05679  0
C  C163  1  0.93648758  0.55629189  0.39995818  1  -0.125615  0  -0.097399  -0.089563  0  4.056751  0
N  N164  1  0.32909101  0.87396399  0.55364930  1  -1.214125  0  -0.368335  -0.351989  0  3.492297  0
N  N165  1  0.12603701  0.67090880  0.94635082  1  -1.214132  0  -0.368326  -0.35193  0  3.492314  0
N  N166  1  0.67090965  0.12603584  0.44635023  1  -1.214119  0  -0.368357  -0.352026  0  3.492272  0
N  N167  1  0.87396366  0.32908921  0.05364898  1  -1.214112  0  -0.368355  -0.351993  0  3.492249  0
N  N168  1  0.45144307  0.88432748  0.44843532  1  -1.23141  0  -0.238922  -0.009352  0  3.736363  0
N  N169  1  0.11567306  0.54855601  0.05156457  1  -1.231406  0  -0.238921  -0.009405  0  3.736402  0
N  N170  1  0.54855667  0.11567155  0.55156447  1  -1.231393  0  -0.23891  -0.009352  0  3.736307  0
N  N171  1  0.88432760  0.45144199  0.94843524  1  -1.23141  0  -0.238946  -0.009406  0  3.736375  0
O  O172  1  0.39960884  0.73500741  0.80793153  1  -1.17202  0  -0.32478  -0.563283  0  2.324476  0
O  O173  1  0.26499380  0.60038964  0.69206917  1  -1.171985  0  -0.324768  -0.563261  0  2.324469  0
O  O174  1  0.60039090  0.26499069  0.19206938  1  -1.171984  0  -0.324789  -0.563295  0  2.324481  0
O  O175  1  0.73500776  0.39961007  0.30793172  1  -1.171978  0  -0.324765  -0.563285  0  2.3244  0
O  O176  1  0.44962361  0.79155541  0.68858498  1  -1.161125  0  -0.32582  -0.561866  0  2.286926  0
O  O177  1  0.20844502  0.55037623  0.81141662  1  -1.161119  0  -0.32571  -0.561779  0  2.286949  0
O  O178  1  0.55037610  0.20844542  0.31141700  1  -1.16113  0  -0.32573  -0.561794  0  2.286907  0
O  O179  1  0.79155471  0.44962370  0.18858402  1  -1.161124  0  -0.325755  -0.561832  0  2.286912  0
O  O180  1  0.01123498  0.77039665  0.79938449  1  -1.167787  0  -0.324828  -0.566081  0  2.338874  0
O  O181  1  0.22960425  0.98876468  0.70061477  1  -1.167814  0  -0.32484  -0.566096  0  2.338789  0
O  O182  1  0.98876567  0.22960501  0.20061477  1  -1.167794  0  -0.324842  -0.566113  0  2.338863  0
O  O183  1  0.77039640  0.01123698  0.29938400  1  -1.167754  0  -0.324825  -0.566063  0  2.33878  0
O  O184  1  0.05147907  0.82736248  0.68004541  1  -1.15206  0  -0.331471  -0.550691  0  2.24561  0
O  O185  1  0.17263838  0.94851945  0.81995403  1  -1.152067  0  -0.331466  -0.550672  0  2.245653  0
O  O186  1  0.94852067  0.17263747  0.31995375  1  -1.152035  0  -0.331471  -0.550699  0  2.245595  0
O  O187  1  0.82736411  0.05148107  0.18004562  1  -1.152093  0  -0.33148  -0.55071  0  2.245626  0
