# generated using pymatgen
data_Co3H52C78(N7O8)2
_symmetry_space_group_name_H-M   'P 1'
_cell_length_a   16.04890060
_cell_length_b   16.93925625
_cell_length_c   26.68031124
_cell_angle_alpha   100.74089408
_cell_angle_beta   89.99996479
_cell_angle_gamma   90.00055256
_symmetry_Int_Tables_number   1
_chemical_formula_structural   Co3H52C78(N7O8)2
_chemical_formula_sum   'Co6 H104 C156 N28 O32'
_cell_volume   7126.13831923
_cell_formula_units_Z   2
loop_
 _symmetry_equiv_pos_site_id
 _symmetry_equiv_pos_as_xyz
  1  'x, y, z'
loop_
 _atom_site_type_symbol
 _atom_site_label
 _atom_site_symmetry_multiplicity
 _atom_site_fract_x
 _atom_site_fract_y
 _atom_site_fract_z
 _atom_site_occupancy
 _atom_site_pbe_bader_charge
 _atom_site_pbe_bader_spin_density
 _atom_site_pbe_cm5_charge
 _atom_site_pbe_ddec_charge
 _atom_site_pbe_ddec_spin_density
 _atom_site_pbe_ddec_sum_bond_order
 _atom_site_pbe_magmom
Co  Co0  1  0.01786152  0.34388697  0.06637126  1  1.270336  2.584616  0.668465  0.841964  2.807251  2.551486  2.564
Co  Co1  1  0.51785595  0.15610346  0.43363740  1  1.270378  2.584672  0.668492  0.842015  2.807275  2.551127  2.564
Co  Co2  1  0.98213675  0.65610341  0.93362512  1  1.270194  2.584669  0.668468  0.841869  2.807246  2.551266  2.564
Co  Co3  1  0.48214792  0.84390254  0.56636202  1  1.270239  2.584603  0.668428  0.841825  2.807177  2.551308  2.564
Co  Co4  1  0.00000194  0.49998290  0.00000530  1  1.415809  2.690148  0.696198  1.127225  2.922552  2.402391  2.677
Co  Co5  1  0.49999796  0.99999856  0.50000207  1  1.415882  2.690125  0.696315  1.127412  2.922552  2.402466  2.677
H  H6  1  0.87604828  0.16356256  0.17478187  1  0.064972  0.001207  0.105747  0.115157  0.000541  0.998791  0.0
H  H7  1  0.37604972  0.33643182  0.32522452  1  0.065219  0.001206  0.105834  0.115304  0.000541  0.998797  0.0
H  H8  1  0.12395061  0.83642537  0.82521833  1  0.065071  0.001206  0.105781  0.115259  0.000541  0.998795  0.0
H  H9  1  0.62394543  0.66358261  0.67477368  1  0.065339  0.001206  0.105861  0.115411  0.000541  0.998725  0.0
H  H10  1  0.92513892  0.29218789  0.15251529  1  0.10353  0.001888  0.11912  0.084173  0.00049  1.003118  0.001
H  H11  1  0.42513091  0.20780989  0.34749750  1  0.103525  0.001887  0.119157  0.084153  0.000489  1.003045  0.001
H  H12  1  0.07485373  0.70780717  0.84749291  1  0.103728  0.001889  0.119104  0.084212  0.00049  1.003013  0.001
H  H13  1  0.57486486  0.79220451  0.65250370  1  0.10348  0.001888  0.119151  0.08428  0.00049  1.002974  0.001
H  H14  1  0.05488126  0.17226695  0.02679679  1  0.185276  0.001505  0.125493  0.103728  0.00028  1.014423  0.001
H  H15  1  0.55486308  0.32773521  0.47321592  1  0.184978  0.001505  0.125444  0.103656  0.00028  1.01444  0.001
H  H16  1  0.94513071  0.82771911  0.97320956  1  0.185215  0.001506  0.125528  0.103735  0.00028  1.014438  0.001
H  H17  1  0.44512957  0.67228582  0.52678422  1  0.185104  0.001505  0.125458  0.103664  0.00028  1.014521  0.001
H  H18  1  0.01183276  0.03900279  0.04309880  1  0.163336  0.000555  0.116454  0.14276  0.000273  1.021083  0.0
H  H19  1  0.51182905  0.46099367  0.45690385  1  0.163193  0.000555  0.116463  0.142734  0.000273  1.021124  0.0
H  H20  1  0.98816986  0.96099046  0.95691105  1  0.163241  0.000555  0.116489  0.142819  0.000273  1.02101  0.0
H  H21  1  0.48816859  0.53901720  0.54309017  1  0.163375  0.000555  0.116461  0.142834  0.000273  1.021074  0.0
H  H22  1  0.87823615  0.79031841  0.04852054  1  0.150334  0.000121  0.116009  0.125173  2e-05  1.013269  0.0
H  H23  1  0.37825046  0.70969193  0.45147825  1  0.150529  0.000121  0.115958  0.125145  2e-05  1.013219  0.0
H  H24  1  0.12176835  0.20967853  0.95148227  1  0.150271  0.000121  0.116  0.125107  2e-05  1.013399  0.0
H  H25  1  0.62174718  0.29032672  0.54851898  1  0.150556  0.000121  0.115999  0.12517  2e-05  1.013274  0.0
H  H26  1  0.77518061  0.69395125  0.07215416  1  0.132602  -4.9e-05  0.110022  0.110445  -8.7e-05  1.009316  0.0
H  H27  1  0.27519096  0.80605386  0.42784964  1  0.132454  -4.9e-05  0.109952  0.110364  -8.8e-05  1.009402  0.0
H  H28  1  0.22482015  0.30604570  0.92784678  1  0.132654  -4.9e-05  0.110013  0.110426  -8.8e-05  1.009392  0.0
H  H29  1  0.72479111  0.19394920  0.57214342  1  0.132559  -4.9e-05  0.109964  0.110312  -8.8e-05  1.009444  0.0
H  H30  1  0.67675286  0.73782682  0.14454748  1  0.117011  -3.7e-05  0.118118  0.121038  -5.1e-05  0.984144  0.0
H  H31  1  0.17676098  0.76217795  0.35545856  1  0.117057  -3.7e-05  0.118139  0.121088  -5.1e-05  0.984079  0.0
H  H32  1  0.32324416  0.26217195  0.85545180  1  0.117068  -3.7e-05  0.118135  0.121012  -5.1e-05  0.984165  0.0
H  H33  1  0.82322607  0.23783047  0.64453928  1  0.115261  -3.7e-05  0.118092  0.120963  -5.1e-05  0.984094  0.0
H  H34  1  0.78235631  0.97430821  0.16849851  1  0.032731  5.8e-05  0.097816  0.071022  2.3e-05  1.062539  0.0
H  H35  1  0.28236701  0.52570429  0.33149571  1  0.032965  5.8e-05  0.097836  0.071005  2.3e-05  1.062563  0.0
H  H36  1  0.21763821  0.02568820  0.83149674  1  0.032676  5.8e-05  0.097804  0.070999  2.3e-05  1.062485  0.0
H  H37  1  0.71763624  0.47431380  0.66849808  1  0.032617  5.8e-05  0.09781  0.071043  2.3e-05  1.062468  0.0
H  H38  1  0.52899930  0.98208745  0.37930894  1  0.176717  0.000961  0.126431  0.103546  -0.000143  1.012767  0.001
H  H39  1  0.02901392  0.51790329  0.12069919  1  0.177295  0.000961  0.12636  0.103412  -0.000144  1.01278  0.001
H  H40  1  0.47099397  0.01792274  0.62069137  1  0.176645  0.000962  0.12644  0.103614  -0.000143  1.012758  0.001
H  H41  1  0.97097811  0.48209669  0.87929987  1  0.17741  0.000962  0.126344  0.103349  -0.000143  1.012826  0.001
H  H42  1  0.57795680  0.89933632  0.29797562  1  0.117622  0.000552  0.117156  0.144533  0.000248  1.0209  0.0
H  H43  1  0.07796656  0.60066030  0.20203170  1  0.117756  0.000552  0.117183  0.144516  0.000248  1.021082  0.0
H  H44  1  0.42204520  0.10067691  0.70202281  1  0.117503  0.000552  0.117155  0.144498  0.000248  1.020992  0.0
H  H45  1  0.92203295  0.39933850  0.79796571  1  0.117723  0.000552  0.117214  0.144551  0.000248  1.021055  0.0
H  H46  1  0.64856951  0.12090456  0.25061384  1  0.056222  0.00118  0.10533  0.114829  0.000513  0.999394  0.0
H  H47  1  0.14858269  0.37910508  0.24940013  1  0.055997  0.00118  0.105427  0.115012  0.000513  0.999308  0.0
H  H48  1  0.35143250  0.87910331  0.74937944  1  0.056445  0.00118  0.10527  0.114788  0.000513  0.999271  0.0
H  H49  1  0.85143676  0.62089674  0.75059578  1  0.056007  0.001181  0.105385  0.11493  0.000514  0.999417  0.0
H  H50  1  0.59501850  0.19425420  0.33346212  1  0.097173  0.001825  0.117707  0.085646  0.00056  0.991565  0.001
H  H51  1  0.09503415  0.30574105  0.16655684  1  0.096741  0.001825  0.117849  0.085751  0.00056  0.991261  0.001
H  H52  1  0.40497478  0.80575366  0.66653190  1  0.097372  0.001826  0.117649  0.0835  0.000556  0.994034  0.001
H  H53  1  0.90497409  0.69426315  0.83344161  1  0.096637  0.001825  0.117818  0.08571  0.00056  0.991384  0.001
H  H54  1  0.64940421  0.11779614  0.62316106  1  0.085406  0.000282  0.103173  0.106973  0.000118  1.015349  0.0
H  H55  1  0.14940731  0.38220877  0.87683938  1  0.085794  0.000282  0.10314  0.106834  0.000118  1.015407  0.0
H  H56  1  0.35058283  0.88220381  0.37684061  1  0.085461  0.000282  0.103158  0.106972  0.000118  1.015453  0.0
H  H57  1  0.85059283  0.61777194  0.12316106  1  0.086157  0.000282  0.103178  0.107013  0.000118  1.01536  0.0
H  H58  1  0.73087295  0.17200963  0.70290204  1  0.090004  0.0001  0.102913  0.100944  2.9e-05  1.044105  0.0
H  H59  1  0.23087621  0.32799841  0.79710138  1  0.090134  0.0001  0.102895  0.100951  3e-05  1.043895  0.0
H  H60  1  0.26912469  0.82799456  0.29709754  1  0.090067  0.0001  0.102892  0.100878  3e-05  1.04415  0.0
H  H61  1  0.76912829  0.67200033  0.20290052  1  0.089932  0.0001  0.102891  0.10091  2.9e-05  1.043848  0.0
H  H62  1  0.78055501  0.93106985  0.72352505  1  0.04744  0.000161  0.099731  0.101353  7.8e-05  1.004511  0.0
H  H63  1  0.28057058  0.56892926  0.77647594  1  0.047137  0.000161  0.099693  0.101377  7.8e-05  1.004368  0.0
H  H64  1  0.21943889  0.06892712  0.27647439  1  0.047419  0.000161  0.099708  0.101316  7.8e-05  1.00442  0.0
H  H65  1  0.71942644  0.43107420  0.22353479  1  0.047124  0.000161  0.099713  0.101382  7.8e-05  1.004544  0.0
H  H66  1  0.69817780  0.87703194  0.64384796  1  0.087481  0.000366  0.099649  0.102277  0.000155  1.01391  0.0
H  H67  1  0.19817825  0.62296829  0.85614608  1  0.087504  0.000366  0.099605  0.102245  0.000155  1.013858  0.0
H  H68  1  0.30181050  0.12296138  0.35615515  1  0.087319  0.000366  0.099579  0.102254  0.000155  1.013951  0.0
H  H69  1  0.80181004  0.37702856  0.14386422  1  0.087166  0.000366  0.099591  0.102314  0.000155  1.013897  0.0
H  H70  1  0.18776830  0.54565054  0.02149324  1  0.13165  0.000164  0.109088  0.122963  6e-06  1.02256  0.0
H  H71  1  0.68777509  0.95433260  0.47851990  1  0.131522  0.000164  0.108997  0.122856  6e-06  1.022652  0.0
H  H72  1  0.81223620  0.45433315  0.97851019  1  0.131408  0.000164  0.109023  0.122839  6e-06  1.022657  0.0
H  H73  1  0.31223439  0.04566556  0.52148119  1  0.131299  0.000164  0.109036  0.122806  6e-06  1.022622  0.0
H  H74  1  0.33023068  0.59907093  0.00660512  1  0.087749  5.7e-05  0.107913  0.111875  3.3e-05  0.991923  0.0
H  H75  1  0.83022755  0.90092018  0.49340519  1  0.087819  5.7e-05  0.107891  0.111868  3.3e-05  0.992074  0.0
H  H76  1  0.66978379  0.40092836  0.99340210  1  0.088086  5.7e-05  0.107899  0.111901  3.3e-05  0.992031  0.0
H  H77  1  0.16978567  0.09908343  0.50659206  1  0.087848  5.7e-05  0.107945  0.111884  3.3e-05  0.991969  0.0
H  H78  1  0.43723681  0.36637217  0.00704424  1  0.097267  1.6e-05  0.103785  0.105178  -8e-06  1.018652  0.0
H  H79  1  0.93722284  0.13360847  0.49295070  1  0.097647  1.6e-05  0.103777  0.105208  -8e-06  1.018704  0.0
H  H80  1  0.56277890  0.63361628  0.99296352  1  0.097877  1.6e-05  0.103758  0.105109  -8e-06  1.018609  0.0
H  H81  1  0.06278165  0.86638439  0.50703924  1  0.097794  1.6e-05  0.103728  0.105084  -8e-06  1.018661  0.0
H  H82  1  0.29482740  0.31304849  0.02222008  1  0.080691  0.000576  0.103755  0.108603  0.000313  1.00018  0.0
H  H83  1  0.79483019  0.18694277  0.47778259  1  0.080674  0.000576  0.103771  0.1086  0.000313  1.000104  0.0
H  H84  1  0.70517336  0.68694359  0.97778625  1  0.080629  0.000576  0.103776  0.108643  0.000313  1.000155  0.0
H  H85  1  0.20517742  0.81305728  0.52221048  1  0.080765  0.000576  0.103734  0.108573  0.000313  1.000179  0.0
H  H86  1  0.86071894  0.37999540  0.89222776  1  0.12  0.000178  0.104183  0.108941  9e-06  1.024532  0.0
H  H87  1  0.36071468  0.11999449  0.60778576  1  0.119702  0.000178  0.104108  0.108967  9e-06  1.02439  0.0
H  H88  1  0.13928556  0.61999851  0.10777580  1  0.119748  0.000178  0.104192  0.108992  9e-06  1.024601  0.0
H  H89  1  0.63927985  0.88001147  0.39221703  1  0.119552  0.000178  0.104148  0.109001  9e-06  1.024492  0.0
H  H90  1  0.79104466  0.30282802  0.81317199  1  0.111642  0.000166  0.105021  0.108099  8.6e-05  1.009158  0.0
H  H91  1  0.29103362  0.19716669  0.68683652  1  0.111297  0.000166  0.105032  0.108252  8.6e-05  1.009067  0.0
H  H92  1  0.20895298  0.69716837  0.18682550  1  0.111642  0.000166  0.104992  0.108059  8.6e-05  1.009196  0.0
H  H93  1  0.70895343  0.80283807  0.31316575  1  0.111268  0.000166  0.105024  0.108157  8.6e-05  1.00909  0.0
H  H94  1  0.88467920  0.08172828  0.84801815  1  0.063507  0.000146  0.098699  0.10066  6.4e-05  1.021011  0.0
H  H95  1  0.38465739  0.41826682  0.65197951  1  0.064084  0.000146  0.098721  0.100631  6.4e-05  1.021188  0.0
H  H96  1  0.11532592  0.91826515  0.15197524  1  0.064018  0.000146  0.098727  0.100644  6.4e-05  1.021085  0.0
H  H97  1  0.61533527  0.58173911  0.34802589  1  0.064164  0.000146  0.09877  0.100695  6.4e-05  1.021101  0.0
H  H98  1  0.95182246  0.15857576  0.92776671  1  0.094067  0.000219  0.100432  0.10828  8.1e-05  1.025724  0.0
H  H99  1  0.45181616  0.34141453  0.57223221  1  0.094218  0.000219  0.10046  0.108353  8.1e-05  1.025767  0.0
H  H100  1  0.04818452  0.84141405  0.07222735  1  0.094106  0.000219  0.100432  0.1083  8.1e-05  1.025724  0.0
H  H101  1  0.54818647  0.65859142  0.42777133  1  0.094238  0.000219  0.100452  0.108404  8.1e-05  1.025744  0.0
H  H102  1  0.87878796  0.02494860  0.15606216  1  0.451169  0.000117  0.316167  0.265597  0.000102  0.957777  0.0
H  H103  1  0.37879266  0.47504768  0.34393847  1  0.451216  0.000117  0.316208  0.26558  0.000102  0.957751  0.0
H  H104  1  0.12119972  0.97503995  0.84393737  1  0.451402  0.000117  0.316256  0.265677  0.000103  0.95761  0.0
H  H105  1  0.62121432  0.52497577  0.65606046  1  0.451264  0.000117  0.316234  0.265643  0.000103  0.957553  0.0
H  H106  1  0.67407237  0.99903762  0.19808682  1  0.431266  0.000122  0.317461  0.266709  8.9e-05  0.952259  0.0
H  H107  1  0.17408597  0.50097429  0.30192385  1  0.431946  0.000122  0.317438  0.266737  8.9e-05  0.952296  0.0
H  H108  1  0.32592340  0.00096595  0.80191418  1  0.431377  0.000122  0.3174  0.266666  8.9e-05  0.952138  0.0
H  H109  1  0.82592850  0.49902990  0.69807535  1  0.43197  0.000122  0.317558  0.266974  8.9e-05  0.952217  0.0
C  C110  1  0.89591041  0.94620437  0.08859636  1  1.36522  -0.00275  0.248503  0.479846  -0.003283  4.108579  -0.002
C  C111  1  0.39591881  0.55380255  0.41140013  1  1.364615  -0.002751  0.248516  0.479942  -0.003283  4.108689  -0.002
C  C112  1  0.10409284  0.05379131  0.91141079  1  1.365662  -0.002752  0.248596  0.480003  -0.003284  4.108501  -0.002
C  C113  1  0.60409191  0.44621619  0.58858924  1  1.365442  -0.00275  0.248737  0.480258  -0.003282  4.10817  -0.002
C  C114  1  0.93933639  0.08992916  0.11019361  1  0.3141  -0.007639  0.113215  0.286772  -0.008617  4.041067  -0.006
C  C115  1  0.43933228  0.41006883  0.38981283  1  0.313937  -0.007643  0.11312  0.286761  -0.008621  4.041278  -0.006
C  C116  1  0.06066686  0.91007196  0.88981158  1  0.314071  -0.007648  0.113099  0.28668  -0.008626  4.041285  -0.006
C  C117  1  0.56066599  0.58994140  0.61018486  1  0.314919  -0.007642  0.113128  0.286997  -0.008619  4.041076  -0.006
C  C118  1  0.91643237  0.16281561  0.14177386  1  0.010955  0.005355  -0.101452  -0.252897  0.002436  3.995643  0.004
C  C119  1  0.41642381  0.33717849  0.35823736  1  0.010924  0.005355  -0.10153  -0.253135  0.002435  3.995989  0.004
C  C120  1  0.08356901  0.83718008  0.85823179  1  0.011167  0.005357  -0.101482  -0.252991  0.002436  3.995682  0.004
C  C121  1  0.58357508  0.66283295  0.64175861  1  0.010249  0.005354  -0.101704  -0.253414  0.002435  3.995994  0.004
C  C122  1  0.94353554  0.23452996  0.12971514  1  0.452807  -0.004485  0.041399  0.094386  -0.005103  4.007525  -0.003
C  C123  1  0.44352062  0.26546557  0.37029924  1  0.452938  -0.004485  0.041442  0.094556  -0.005104  4.007429  -0.003
C  C124  1  0.05646335  0.76546814  0.87029156  1  0.452612  -0.00449  0.041413  0.094275  -0.005107  4.007564  -0.003
C  C125  1  0.55647640  0.73454765  0.62969919  1  0.452589  -0.004484  0.041541  0.094486  -0.005104  4.007172  -0.003
C  C126  1  0.01596890  0.16794253  0.05952340  1  0.432245  -0.00568  0.059984  0.131845  -0.006734  3.908531  -0.004
C  C127  1  0.51595329  0.33205449  0.44048644  1  0.432976  -0.005688  0.060059  0.131905  -0.006739  3.908551  -0.004
C  C128  1  0.98403747  0.83204896  0.94048174  1  0.432473  -0.00569  0.059943  0.131823  -0.006742  3.908812  -0.004
C  C129  1  0.48403936  0.66795633  0.55951207  1  0.433032  -0.005684  0.060007  0.131892  -0.006737  3.909044  -0.004
C  C130  1  0.99159422  0.09315973  0.06850034  1  0.047752  0.004568  -0.086639  -0.219189  0.002006  3.898882  0.004
C  C131  1  0.49158254  0.40683993  0.43150779  1  0.047776  0.00457  -0.086696  -0.219118  0.002007  3.899065  0.004
C  C132  1  0.00841402  0.90683716  0.93150659  1  0.04781  0.004572  -0.086614  -0.21918  0.002008  3.899017  0.004
C  C133  1  0.50841448  0.59317210  0.56849049  1  0.047549  0.00457  -0.086624  -0.219285  0.002007  3.899145  0.004
C  C134  1  0.83682008  0.88914281  0.10657222  1  0.026391  0.000236  -0.015244  -0.037693  -4.1e-05  4.003645  0.0
C  C135  1  0.33683781  0.61086597  0.39342377  1  0.026555  0.000236  -0.015324  -0.037863  -4.1e-05  4.003866  0.0
C  C136  1  0.16317756  0.11085534  0.89342924  1  0.026295  0.000236  -0.01527  -0.037869  -4.1e-05  4.003364  0.0
C  C137  1  0.66316918  0.38914612  0.60656928  1  0.026405  0.000236  -0.015446  -0.038114  -4.1e-05  4.003676  0.0
C  C138  1  0.83462826  0.80952352  0.07975807  1  -0.064715  -0.00176  -0.058662  -0.057181  -0.00186  3.877253  -0.001
C  C139  1  0.33463930  0.69048580  0.42024174  1  -0.074093  -0.00176  -0.05853  -0.057048  -0.00186  3.877186  -0.001
C  C140  1  0.16537312  0.19047644  0.92024324  1  -0.064841  -0.00176  -0.058679  -0.057072  -0.00186  3.877243  -0.001
C  C141  1  0.66536083  0.30952506  0.57975303  1  -0.064726  -0.001759  -0.058689  -0.057225  -0.001859  3.877311  -0.001
C  C142  1  0.77700533  0.75551683  0.09328417  1  -0.081838  0.000459  -0.072191  -0.060213  0.000174  3.949166  0.0
C  C143  1  0.27701695  0.74448891  0.40671896  1  -0.072819  0.000459  -0.072118  -0.060167  0.000175  3.949349  0.0
C  C144  1  0.22299729  0.24447890  0.90671849  1  -0.081834  0.000459  -0.072207  -0.060271  0.000174  3.949238  0.0
C  C145  1  0.72297820  0.25551475  0.59327380  1  -0.082904  0.000459  -0.072034  -0.059921  0.000174  3.94925  0.0
C  C146  1  0.72154618  0.77971344  0.13343059  1  0.019881  -0.001779  -0.061944  -0.064979  -0.001883  3.911616  -0.001
C  C147  1  0.22155946  0.72029361  0.36657122  1  0.020002  -0.00178  -0.061759  -0.064703  -0.001884  3.91169  -0.001
C  C148  1  0.27844959  0.22028533  0.86656944  1  0.019879  -0.001779  -0.061925  -0.064819  -0.001884  3.911667  -0.001
C  C149  1  0.77842945  0.27971425  0.63342355  1  0.022392  -0.001778  -0.06182  -0.064736  -0.001882  3.911432  -0.001
C  C150  1  0.72296910  0.85901002  0.16070256  1  -0.074259  0.000284  -0.016817  -0.039654  5.8e-05  4.012132  0.0
C  C151  1  0.22297911  0.64100003  0.33930074  1  -0.072719  0.000284  -0.016896  -0.039823  5.8e-05  4.01219  0.0
C  C152  1  0.27703103  0.14099362  0.83929282  1  -0.074264  0.000284  -0.016826  -0.039747  5.8e-05  4.012151  0.0
C  C153  1  0.77701729  0.35900902  0.66069455  1  -0.074447  0.000284  -0.016821  -0.03973  5.8e-05  4.012256  0.0
C  C154  1  0.78084126  0.91289965  0.14687799  1  -0.087443  -0.001081  -0.088917  -0.147614  -0.001149  4.004605  -0.001
C  C155  1  0.28085755  0.58711159  0.35311981  1  -0.089313  -0.001081  -0.089058  -0.147654  -0.001149  4.004834  -0.001
C  C156  1  0.21915575  0.08709974  0.85311987  1  -0.087218  -0.001081  -0.088978  -0.147573  -0.00115  4.004266  -0.001
C  C157  1  0.71914445  0.41290347  0.64687585  1  -0.087258  -0.00108  -0.08902  -0.147671  -0.001149  4.004871  -0.001
C  C158  1  0.55463597  0.01105068  0.34952109  1  0.396754  -0.004965  0.053525  0.122021  -0.005813  3.913277  -0.003
C  C159  1  0.05465289  0.48894430  0.15048774  1  0.396934  -0.004964  0.053458  0.122121  -0.005812  3.91261  -0.003
C  C160  1  0.44536043  0.98896133  0.65047869  1  0.396062  -0.00496  0.053298  0.121714  -0.005807  3.913359  -0.003
C  C161  1  0.94534475  0.51105750  0.84951041  1  0.39697  -0.004962  0.053499  0.122215  -0.00581  3.912497  -0.003
C  C162  1  0.58273690  0.96434657  0.30426652  1  0.044461  0.004283  -0.086182  -0.219679  0.002074  3.889309  0.003
C  C163  1  0.08274537  0.53565008  0.19574231  1  0.043327  0.004281  -0.086223  -0.219635  0.002073  3.889233  0.003
C  C164  1  0.41725825  0.03566365  0.69573155  1  0.044021  0.004282  -0.086078  -0.219634  0.002074  3.889316  0.003
C  C165  1  0.91725725  0.46434933  0.80425443  1  0.043304  0.004281  -0.086221  -0.219569  0.002073  3.889193  0.003
C  C166  1  0.61830887  0.00301045  0.26726379  1  0.404534  -0.006181  0.114898  0.291176  -0.006893  4.039413  -0.004
C  C167  1  0.11831893  0.49699053  0.23274650  1  0.404843  -0.00618  0.115127  0.291356  -0.006891  4.039343  -0.004
C  C168  1  0.38168690  0.99699496  0.73273443  1  0.405126  -0.006178  0.114837  0.291289  -0.006889  4.039272  -0.004
C  C169  1  0.88168619  0.50300767  0.76725084  1  0.405055  -0.006177  0.115025  0.291131  -0.006888  4.039589  -0.004
C  C170  1  0.62166405  0.08752835  0.27795192  1  -0.10707  0.0042  -0.102193  -0.254585  0.001943  3.992749  0.003
C  C171  1  0.12168135  0.41247446  0.22205822  1  -0.107957  0.0042  -0.102407  -0.255015  0.001943  3.992618  0.003
C  C172  1  0.37833484  0.91247949  0.72204398  1  -0.10734  0.004198  -0.102133  -0.254444  0.001942  3.991866  0.003
C  C173  1  0.87832938  0.58752374  0.77793874  1  -0.107813  0.0042  -0.102394  -0.25486  0.001943  3.992749  0.003
C  C174  1  0.59168959  0.12884780  0.32418522  1  0.522313  -0.003907  0.041706  0.097759  -0.004441  4.015387  -0.002
C  C175  1  0.09170652  0.37114930  0.17582685  1  0.524484  -0.00391  0.041736  0.098214  -0.004442  4.014873  -0.002
C  C176  1  0.40830805  0.87116066  0.67580888  1  0.523115  -0.003907  0.041826  0.09949  -0.004437  4.015315  -0.002
C  C177  1  0.90830109  0.62885493  0.82416898  1  0.524544  -0.003908  0.041791  0.098224  -0.00444  4.014883  -0.002
C  C178  1  0.66556712  0.88082997  0.20545047  1  1.387399  -0.001662  0.245494  0.477802  -0.001998  4.105494  -0.001
C  C179  1  0.16557447  0.61917652  0.29455391  1  1.387265  -0.001661  0.245454  0.47769  -0.001997  4.1051  -0.001
C  C180  1  0.33442740  0.11917365  0.79454641  1  1.387181  -0.001661  0.245417  0.477577  -0.001998  4.105728  -0.001
C  C181  1  0.83442504  0.38082832  0.70544087  1  1.387469  -0.00166  0.245431  0.47776  -0.001996  4.105403  -0.001
C  C182  1  0.61325782  0.96392593  0.58499562  1  1.563396  -0.001564  0.212377  0.570606  -0.002705  4.194046  -0.001
C  C183  1  0.11325669  0.53607770  0.91499999  1  1.563824  -0.001562  0.212376  0.570543  -0.002701  4.193752  -0.001
C  C184  1  0.38673920  0.03607340  0.41500786  1  1.563288  -0.001566  0.212421  0.570766  -0.002707  4.193822  -0.001
C  C185  1  0.88674095  0.46390356  0.08500577  1  1.56291  -0.001568  0.212448  0.570551  -0.002707  4.193904  -0.001
C  C186  1  0.66869851  0.99443714  0.62922955  1  -0.008821  0.008881  -0.017515  -0.032017  0.004517  3.968883  0.007
C  C187  1  0.16869961  0.50556822  0.87076550  1  -0.0091  0.008886  -0.017324  -0.031788  0.004519  3.968676  0.007
C  C188  1  0.33129041  0.00556037  0.37077520  1  -0.008371  0.008884  -0.017412  -0.032048  0.004519  3.96885  0.007
C  C189  1  0.83129305  0.49441790  0.12923636  1  -0.00855  0.008878  -0.01722  -0.031421  0.004514  3.968239  0.007
C  C190  1  0.67887455  0.07771163  0.64540755  1  -0.111176  -5.5e-05  -0.083945  -0.079141  -0.000623  3.973384  0.0
C  C191  1  0.17886998  0.42229300  0.85458910  1  -0.111424  -5.5e-05  -0.083868  -0.078985  -0.000622  3.973152  0.0
C  C192  1  0.32111748  0.92228653  0.35459316  1  -0.111329  -5.7e-05  -0.083913  -0.079144  -0.000624  3.973507  0.0
C  C193  1  0.82112018  0.57769672  0.14541282  1  -0.111612  -5.5e-05  -0.083957  -0.079382  -0.000622  3.973255  0.0
C  C194  1  0.72332383  0.10769254  0.68927400  1  0.015289  -0.000388  -0.085971  -0.145049  -0.000569  3.951272  0.0
C  C195  1  0.22331963  0.39231368  0.81072508  1  0.014816  -0.000386  -0.085958  -0.145087  -0.000567  3.951174  0.0
C  C196  1  0.27667693  0.89230867  0.31072296  1  0.014937  -0.000385  -0.086006  -0.145008  -0.000566  3.951381  0.0
C  C197  1  0.77667428  0.60768446  0.18927787  1  0.014593  -0.000388  -0.086038  -0.145047  -0.000569  3.951088  0.0
C  C198  1  0.75896211  0.05439119  0.71798007  1  0.289502  -0.00191  0.085051  0.178393  -0.002393  4.034429  -0.001
C  C199  1  0.25896036  0.44560996  0.78201763  1  0.290385  -0.001908  0.084939  0.178419  -0.002392  4.034785  -0.001
C  C200  1  0.24103366  0.94560819  0.28201854  1  0.289899  -0.001912  0.084985  0.178379  -0.002395  4.034402  -0.001
C  C201  1  0.74103229  0.55438876  0.21798690  1  0.290758  -0.001911  0.084921  0.178534  -0.002394  4.034767  -0.001
C  C202  1  0.75148034  0.97112034  0.70103489  1  -0.021431  -0.000234  -0.089849  -0.153333  -0.000455  3.982708  0.0
C  C203  1  0.25148177  0.52887795  0.79896189  1  -0.020462  -0.000233  -0.089809  -0.153495  -0.000455  3.982877  0.0
C  C204  1  0.24851356  0.02887840  0.29896777  1  -0.02148  -0.000232  -0.089665  -0.153226  -0.000454  3.982512  0.0
C  C205  1  0.74850466  0.47112076  0.20104413  1  -0.022165  -0.000235  -0.089626  -0.153349  -0.000456  3.982868  0.0
C  C206  1  0.70599236  0.94143735  0.65715924  1  -0.001954  -0.000988  -0.090055  -0.092615  -0.00138  3.996477  0.0
C  C207  1  0.20599529  0.55856415  0.84283570  1  -0.002797  -0.000987  -0.090095  -0.092564  -0.001379  3.99672  0.0
C  C208  1  0.29399344  0.05855776  0.34284559  1  -0.001999  -0.000989  -0.090159  -0.092623  -0.001382  3.996699  0.0
C  C209  1  0.79399176  0.44143156  0.15716958  1  -0.001427  -0.00099  -0.090337  -0.093041  -0.001382  3.996573  0.0
C  C210  1  0.15159806  0.39396211  0.03462380  1  1.490573  -0.00366  0.205518  0.568311  -0.005317  4.135486  -0.002
C  C211  1  0.65159817  0.10602541  0.46537958  1  1.490019  -0.003645  0.205625  0.568392  -0.005301  4.135614  -0.002
C  C212  1  0.84840021  0.60602282  0.96537566  1  1.490305  -0.003644  0.205599  0.568357  -0.005297  4.135515  -0.002
C  C213  1  0.34840695  0.89397039  0.53461709  1  1.490096  -0.003643  0.205597  0.568413  -0.005299  4.135681  -0.002
C  C214  1  0.23336832  0.42616088  0.02268278  1  -0.018532  -0.000273  -0.014983  -0.030553  -0.001312  3.965053  0.0
C  C215  1  0.73337058  0.07382261  0.47731821  1  -0.018404  -0.000276  -0.015149  -0.030803  -0.001314  3.964969  0.0
C  C216  1  0.76663119  0.57382765  0.97731825  1  -0.018616  -0.000282  -0.015188  -0.03085  -0.001318  3.965117  0.0
C  C217  1  0.26663766  0.92617561  0.52267651  1  -0.018451  -0.000274  -0.015127  -0.030973  -0.001313  3.965117  0.0
C  C218  1  0.24252824  0.50691162  0.01806330  1  -0.04221  -0.001961  -0.079799  -0.07633  -0.00246  3.935268  -0.001
C  C219  1  0.74252483  0.99307624  0.48195002  1  -0.043355  -0.001954  -0.079698  -0.076107  -0.002453  3.935183  -0.001
C  C220  1  0.75747999  0.49307862  0.98194618  1  -0.043316  -0.001952  -0.079743  -0.076169  -0.002451  3.935161  -0.001
C  C221  1  0.25748278  0.00692258  0.51804590  1  -0.04334  -0.001954  -0.079604  -0.075853  -0.002453  3.935002  -0.001
C  C222  1  0.32122101  0.53642669  0.00986527  1  -0.051815  -0.00311  -0.079276  -0.139717  -0.003425  3.940766  -0.001
C  C223  1  0.82121667  0.96356313  0.49014526  1  -0.051831  -0.003111  -0.079211  -0.139761  -0.003425  3.941199  -0.001
C  C224  1  0.67878847  0.46356659  0.99014158  1  -0.05186  -0.003114  -0.0791  -0.139621  -0.003429  3.940977  -0.001
C  C225  1  0.17879219  0.03643986  0.50985342  1  -0.051932  -0.003111  -0.079343  -0.139796  -0.003425  3.940826  -0.001
C  C226  1  0.39155018  0.48609485  0.00644063  1  0.344855  -0.002551  0.088084  0.175468  -0.00344  4.043778  -0.002
C  C227  1  0.89154184  0.01389490  0.49356295  1  0.3453  -0.002544  0.088054  0.175462  -0.003433  4.044311  -0.002
C  C228  1  0.60846553  0.51389844  0.99356511  1  0.345418  -0.002542  0.087906  0.175348  -0.00343  4.044118  -0.002
C  C229  1  0.10846515  0.98610453  0.50643192  1  0.34549  -0.002545  0.08803  0.17535  -0.003434  4.044312  -0.002
C  C230  1  0.38215099  0.40459928  0.01023639  1  -0.001631  -0.001584  -0.087303  -0.145868  -0.001701  3.958589  -0.001
C  C231  1  0.88214286  0.09538860  0.48976508  1  -0.001834  -0.001587  -0.087273  -0.146006  -0.001704  3.95871  -0.001
C  C232  1  0.61786597  0.59539344  0.98976702  1  -0.001828  -0.00159  -0.087209  -0.145854  -0.001707  3.958676  -0.001
C  C233  1  0.11786350  0.90460961  0.51023114  1  -0.001919  -0.001586  -0.087245  -0.145882  -0.001703  3.958762  -0.001
C  C234  1  0.30375232  0.37546144  0.01843532  1  -0.039947  0.000294  -0.085274  -0.092749  -0.000245  3.99845  0.001
C  C235  1  0.80375011  0.12452871  0.48156646  1  -0.039722  0.000298  -0.085275  -0.092561  -0.000241  3.998244  0.001
C  C236  1  0.69625778  0.62453306  0.98156944  1  -0.039858  0.0003  -0.085289  -0.092589  -0.000239  3.998522  0.001
C  C237  1  0.19625937  0.87547251  0.51842937  1  -0.039957  0.000298  -0.085272  -0.092502  -0.000241  3.998303  0.001
C  C238  1  0.95198467  0.32246123  0.96030891  1  1.563673  -0.00388  0.216395  0.591445  -0.004818  4.16422  -0.003
C  C239  1  0.45198108  0.17752358  0.53969721  1  1.562821  -0.003874  0.216423  0.591506  -0.004811  4.164253  -0.003
C  C240  1  0.04802419  0.67752068  0.03969243  1  1.562984  -0.003866  0.216431  0.591486  -0.004804  4.164039  -0.003
C  C241  1  0.54801968  0.82248239  0.46030520  1  1.562337  -0.003874  0.216232  0.591222  -0.004815  4.164579  -0.003
C  C242  1  0.91097478  0.27389295  0.91403926  1  0.02417  0.00958  -0.011714  -0.015867  0.005019  3.930423  0.008
C  C243  1  0.41096416  0.22609327  0.58596667  1  0.024225  0.009581  -0.011828  -0.015969  0.00502  3.929933  0.008
C  C244  1  0.08903220  0.72609318  0.08596072  1  0.023918  0.009575  -0.011761  -0.015832  0.005018  3.930031  0.008
C  C245  1  0.58903286  0.77391389  0.41403589  1  0.024044  0.009577  -0.011776  -0.01573  0.005018  3.929806  0.008
C  C246  1  0.86526160  0.31486754  0.88208169  1  -0.02589  -0.001379  -0.087514  -0.096308  -0.001891  3.984578  -0.001
C  C247  1  0.36525052  0.18512304  0.61792741  1  -0.025561  -0.001378  -0.087248  -0.09603  -0.001891  3.984199  -0.001
C  C248  1  0.13474975  0.68512464  0.11791566  1  -0.025768  -0.001375  -0.087486  -0.096263  -0.001887  3.984509  -0.001
C  C249  1  0.63474214  0.81488412  0.38207590  1  -0.024925  -0.00138  -0.08736  -0.096187  -0.001893  3.984114  -0.001
C  C250  1  0.82673042  0.27272261  0.83882894  1  -0.113096  -0.000707  -0.078659  -0.130391  -0.000899  3.96073  0.0
C  C251  1  0.32671910  0.22727187  0.66117653  1  -0.113865  -0.000706  -0.078886  -0.130915  -0.000898  3.961091  0.0
C  C252  1  0.17327345  0.72727559  0.16116840  1  -0.11345  -0.000708  -0.078724  -0.130594  -0.0009  3.960776  0.0
C  C253  1  0.67327730  0.77273228  0.33882679  1  -0.114188  -0.000708  -0.078836  -0.130728  -0.0009  3.960676  0.0
C  C254  1  0.83453614  0.18874414  0.82608998  1  0.355079  -0.00197  0.087057  0.17025  -0.002478  4.045607  -0.001
C  C255  1  0.33453065  0.31124925  0.67391198  1  0.355192  -0.00197  0.087191  0.170482  -0.002477  4.045317  -0.001
C  C256  1  0.16546524  0.81125287  0.17390571  1  0.354977  -0.001967  0.087088  0.170453  -0.002474  4.045253  -0.001
C  C257  1  0.66546575  0.68875250  0.32609104  1  0.355203  -0.001971  0.087236  0.170533  -0.002479  4.045284  -0.001
C  C258  1  0.88013965  0.14697870  0.85807091  1  -0.005054  -0.000198  -0.089002  -0.147312  -0.000353  3.951713  0.0
C  C259  1  0.38013151  0.35301454  0.64192727  1  -0.005343  -0.000196  -0.089028  -0.147217  -0.000352  3.951702  0.0
C  C260  1  0.11986297  0.85301472  0.14192322  1  -0.00518  -0.000198  -0.088987  -0.147222  -0.000353  3.951834  0.0
C  C261  1  0.61986613  0.64699020  0.35807612  1  -0.005158  -0.000198  -0.089055  -0.147289  -0.000353  3.951848  0.0
C  C262  1  0.91732869  0.18956588  0.90197834  1  -0.084771  -0.000411  -0.087943  -0.095114  -0.000814  3.974415  0.0
C  C263  1  0.41732203  0.31042410  0.59802018  1  -0.084622  -0.000411  -0.087912  -0.095225  -0.000814  3.974296  0.0
C  C264  1  0.08266958  0.81042268  0.09801969  1  -0.084717  -0.000409  -0.08791  -0.095217  -0.000812  3.974314  0.0
C  C265  1  0.58267125  0.68958309  0.40197976  1  -0.084731  -0.000411  -0.087966  -0.09542  -0.000814  3.974431  0.0
N  N266  1  0.99221991  0.23783823  0.08894257  1  -1.235052  0.056925  -0.338019  -0.256485  0.030441  3.603963  0.046
N  N267  1  0.49220428  0.26215415  0.41107104  1  -1.235619  0.056909  -0.338092  -0.256651  0.030434  3.603766  0.046
N  N268  1  0.00778521  0.76215446  0.91106346  1  -1.235539  0.056921  -0.338074  -0.25647  0.030439  3.604225  0.046
N  N269  1  0.50778899  0.73785425  0.58892868  1  -1.235594  0.056917  -0.338065  -0.256416  0.030436  3.603487  0.046
N  N270  1  0.90723226  0.01888581  0.12163631  1  -1.242221  0.000173  -0.398481  -0.37531  -5e-06  3.565142  0.001
N  N271  1  0.40723637  0.48111434  0.37836478  1  -1.241805  0.000173  -0.398451  -0.375268  -5e-06  3.565093  0.001
N  N272  1  0.09276725  0.98111532  0.87836851  1  -1.24233  0.000171  -0.39852  -0.375347  -6e-06  3.565215  0.001
N  N273  1  0.59277000  0.51889891  0.62163141  1  -1.24236  0.000173  -0.398569  -0.375481  -5e-06  3.564665  0.001
N  N274  1  0.65242582  0.96292634  0.22153257  1  -1.226504  -0.000376  -0.398204  -0.378204  -0.000315  3.558819  0.0
N  N275  1  0.15243359  0.53707998  0.27847630  1  -1.22703  -0.000375  -0.398281  -0.378346  -0.000315  3.558983  0.0
N  N276  1  0.34757057  0.03708087  0.77846625  1  -1.226824  -0.000375  -0.398086  -0.378065  -0.000314  3.558907  0.0
N  N277  1  0.84757339  0.46292183  0.72152036  1  -1.22738  -0.000375  -0.398326  -0.378506  -0.000315  3.559078  0.0
N  N278  1  0.55828834  0.09212601  0.36013949  1  -1.190663  0.053867  -0.326102  -0.268843  0.029295  3.555133  0.046
N  N279  1  0.05830507  0.40786837  0.13987264  1  -1.191469  0.053875  -0.326159  -0.269308  0.029299  3.55522  0.046
N  N280  1  0.44171179  0.90788960  0.63986111  1  -1.191013  0.053871  -0.326013  -0.268576  0.029297  3.55419  0.046
N  N281  1  0.94169756  0.59213344  0.86012477  1  -1.191517  0.053886  -0.326139  -0.269261  0.029305  3.555094  0.046
N  N282  1  0.46843479  0.52258335  0.99953998  1  -0.532038  -0.012293  -0.157052  -0.148823  -0.012505  3.289116  -0.008
N  N283  1  0.96843242  0.97741510  0.50046087  1  -0.531648  -0.012297  -0.15705  -0.148769  -0.012508  3.289301  -0.008
N  N284  1  0.53157905  0.47741954  0.00046843  1  -0.488631  -0.012315  -0.157007  -0.148871  -0.012518  3.289387  -0.008
N  N285  1  0.03157519  0.02258494  0.49953258  1  -0.48878  -0.012304  -0.15698  -0.148802  -0.012507  3.289386  -0.008
N  N286  1  0.79263842  0.15509550  0.78107185  1  -0.491097  -0.006078  -0.146982  -0.120839  -0.006143  3.328992  -0.004
N  N287  1  0.29262574  0.34490111  0.71893015  1  -0.49122  -0.006074  -0.147065  -0.120924  -0.006139  3.329065  -0.004
N  N288  1  0.20736047  0.84490088  0.21892676  1  -0.4909  -0.006076  -0.147052  -0.120965  -0.006142  3.32885  -0.004
N  N289  1  0.70736317  0.65510186  0.28107152  1  -0.491163  -0.006081  -0.147154  -0.121058  -0.006146  3.329107  -0.004
N  N290  1  0.80315092  0.08068483  0.76405866  1  -0.467511  -0.006179  -0.162902  -0.164843  -0.006301  3.253625  -0.004
N  N291  1  0.30315207  0.41931005  0.73594462  1  -0.467762  -0.006174  -0.162845  -0.164852  -0.006295  3.253935  -0.004
N  N292  1  0.19684797  0.91931277  0.23593823  1  -0.467487  -0.00617  -0.162882  -0.164848  -0.006292  3.253512  -0.004
N  N293  1  0.69684432  0.58069227  0.26406072  1  -0.467679  -0.006181  -0.16277  -0.164786  -0.006303  3.254  -0.004
O  O294  1  0.92994882  0.93038641  0.04648685  1  -1.122533  -0.001963  -0.262323  -0.445599  -0.002002  2.150386  -0.002
O  O295  1  0.42995297  0.56962322  0.45351070  1  -1.122405  -0.001964  -0.262342  -0.445653  -0.002003  2.1505  -0.002
O  O296  1  0.07006377  0.06961285  0.95352298  1  -1.122899  -0.001965  -0.262322  -0.445603  -0.002004  2.150377  -0.002
O  O297  1  0.57005214  0.43038709  0.54647987  1  -1.122869  -0.001963  -0.262304  -0.445633  -0.002002  2.150386  -0.002
O  O298  1  0.63434664  0.82967652  0.22685532  1  -1.101694  -0.001433  -0.264756  -0.434609  -0.001479  2.105856  -0.001
O  O299  1  0.13435017  0.67032787  0.27314994  1  -1.101425  -0.001432  -0.264758  -0.434539  -0.001478  2.105613  -0.001
O  O300  1  0.36565038  0.17033494  0.77313952  1  -1.101235  -0.001433  -0.264699  -0.434515  -0.001479  2.105516  -0.001
O  O301  1  0.86562877  0.32967692  0.72685045  1  -1.101448  -0.001431  -0.264736  -0.434571  -0.001477  2.105972  -0.001
O  O302  1  0.59533160  0.88875889  0.57695128  1  -1.147188  0.098213  -0.321057  -0.553318  0.050051  2.39431  0.081
O  O303  1  0.09532251  0.61124225  0.92303616  1  -1.147038  0.098214  -0.32112  -0.553336  0.050046  2.394134  0.081
O  O304  1  0.40467227  0.11123745  0.42305070  1  -1.147203  0.09822  -0.321054  -0.553387  0.050049  2.394352  0.081
O  O305  1  0.90467576  0.38874156  0.07695567  1  -1.146798  0.098216  -0.321217  -0.553462  0.050047  2.39412  0.081
O  O306  1  0.58449211  0.01450569  0.55979908  1  -1.15183  0.079029  -0.30093  -0.560512  0.041005  2.378273  0.071
O  O307  1  0.08449432  0.48548729  0.94019280  1  -1.152251  0.079001  -0.300909  -0.560432  0.04099  2.377834  0.071
O  O308  1  0.41550553  0.98549603  0.44020656  1  -1.151961  0.079025  -0.30094  -0.560552  0.041005  2.378266  0.071
O  O309  1  0.91550706  0.51448562  0.05980669  1  -1.151682  0.079036  -0.300823  -0.560393  0.041009  2.378183  0.071
O  O310  1  0.14582346  0.32339073  0.04457674  1  -1.138494  0.084344  -0.312998  -0.530286  0.043622  2.177509  0.071
O  O311  1  0.64582867  0.17659968  0.45543224  1  -1.137858  0.084329  -0.313136  -0.53033  0.043619  2.177156  0.071
O  O312  1  0.85416670  0.67659243  0.95542063  1  -1.138218  0.084326  -0.313094  -0.530287  0.043617  2.177212  0.071
O  O313  1  0.35417208  0.82339669  0.54456637  1  -1.138046  0.084328  -0.313114  -0.530307  0.043612  2.177149  0.071
O  O314  1  0.08545294  0.43831508  0.03849725  1  -1.146373  0.107846  -0.307936  -0.589735  0.058253  2.503329  0.093
O  O315  1  0.58546133  0.06166645  0.46150242  1  -1.146165  0.107815  -0.307795  -0.58978  0.058238  2.503655  0.093
O  O316  1  0.91453598  0.56165845  0.96150006  1  -1.14606  0.107769  -0.307783  -0.589763  0.058216  2.50344  0.093
O  O317  1  0.41453756  0.93833532  0.53849836  1  -1.146159  0.107824  -0.30782  -0.589741  0.05824  2.503713  0.093
O  O318  1  0.94689125  0.39837088  0.96345923  1  -1.15665  0.06989  -0.314584  -0.582496  0.037006  2.448156  0.06
O  O319  1  0.44690122  0.10161580  0.53653626  1  -1.15627  0.069873  -0.314795  -0.582822  0.037004  2.448599  0.06
O  O320  1  0.05310826  0.60161106  0.03653874  1  -1.156419  0.069844  -0.314682  -0.582743  0.036989  2.448257  0.06
O  O321  1  0.55310328  0.89838895  0.46346713  1  -1.155736  0.06987  -0.314643  -0.582632  0.037005  2.448693  0.06
O  O322  1  0.98758939  0.28576322  0.99188597  1  -1.156592  0.066512  -0.305682  -0.545982  0.033612  2.344608  0.06
O  O323  1  0.48758248  0.21422912  0.50812144  1  -1.156012  0.066522  -0.305644  -0.545936  0.033615  2.344518  0.06
O  O324  1  0.01242632  0.71423367  0.00812058  1  -1.156068  0.066501  -0.305703  -0.545919  0.033606  2.344233  0.06
O  O325  1  0.51241578  0.78577685  0.49188060  1  -1.156164  0.066533  -0.305557  -0.545827  0.033622  2.344643  0.06
