# generated using pymatgen
data_GdPH19C24NO8
_symmetry_space_group_name_H-M   'P 1'
_cell_length_a   10.72246071
_cell_length_b   11.88976732
_cell_length_c   14.40396081
_cell_angle_alpha   74.39466313
_cell_angle_beta   74.63222973
_cell_angle_gamma   64.85689234
_symmetry_Int_Tables_number   1
_chemical_formula_structural   GdPH19C24NO8
_chemical_formula_sum   'Gd2 P2 H38 C48 N2 O16'
_cell_volume   1576.95230948
_cell_formula_units_Z   2
loop_
 _symmetry_equiv_pos_site_id
 _symmetry_equiv_pos_as_xyz
  1  'x, y, z'
loop_
 _atom_site_type_symbol
 _atom_site_label
 _atom_site_symmetry_multiplicity
 _atom_site_fract_x
 _atom_site_fract_y
 _atom_site_fract_z
 _atom_site_occupancy
 _atom_site_pbe_bader_charge
 _atom_site_pbe_bader_spin_density
 _atom_site_pbe_cm5_charge
 _atom_site_pbe_ddec_charge
 _atom_site_pbe_ddec_spin_density
 _atom_site_pbe_ddec_sum_bond_order
 _atom_site_pbe_magmom
Gd  Gd0  1  0.99672467  0.55031691  0.62749129  1  2.199219  0  1.481891  2.085146  0  2.208114  0
Gd  Gd1  1  0.00327464  0.44967639  0.37251279  1  2.199125  0  1.481968  2.085125  0  2.208302  0
P  P2  1  0.14895657  0.71630475  0.73059052  1  2.780863  0  0.276597  0.875898  0  4.812051  0
P  P3  1  0.85104779  0.28369691  0.26939880  1  2.780807  0  0.276613  0.875728  0  4.811779  0
H  H4  1  0.50417453  0.63056663  0.43753793  1  0.091318  0  0.109085  0.114848  0  0.995906  0
H  H5  1  0.49583612  0.36942177  0.56245581  1  0.090837  0  0.10914  0.114968  0  0.995672  0
H  H6  1  0.95430004  0.89284030  0.61066621  1  0.129466  0  0.111758  0.119541  0  1.030257  0
H  H7  1  0.04569800  0.10715970  0.38931789  1  0.129574  0  0.11178  0.119575  0  1.030147  0
H  H8  1  0.26351713  0.67397835  0.53759719  1  0.123617  0  0.11374  0.116764  0  1.032362  0
H  H9  1  0.73649565  0.32600163  0.46239034  1  0.123734  0  0.113834  0.116808  0  1.032372  0
H  H10  1  0.96038322  0.83278412  0.89229176  1  0.072387  0  0.102715  0.099851  0  1.007447  0
H  H11  1  0.03963635  0.16721427  0.10770756  1  0.072272  0  0.102726  0.0998  0  1.007408  0
H  H12  1  0.66242030  0.60529152  0.69040293  1  0.114201  0  0.113793  0.114448  0  1.042263  0
H  H13  1  0.33757373  0.39474870  0.30958201  1  0.113851  0  0.113761  0.114465  0  1.042179  0
H  H14  1  0.42369523  0.65630650  0.78904498  1  0.063537  0  0.100932  0.09628  0  1.013091  0
H  H15  1  0.57629339  0.34372267  0.21094012  1  0.063396  0  0.100906  0.096353  0  1.013178  0
H  H16  1  0.19950826  0.90855708  0.79729555  1  0.073939  0  0.099939  0.093453  0  1.008697  0
H  H17  1  0.80048642  0.09144480  0.20269855  1  0.073767  0  0.099914  0.093423  0  1.008701  0
H  H18  1  0.27340081  0.40426685  0.03164380  1  0.084156  0  0.105852  0.107511  0  0.993197  0
H  H19  1  0.72659432  0.59571080  0.96834176  1  0.084308  0  0.105855  0.107525  0  0.993366  0
H  H20  1  0.91848492  0.74742872  0.07191701  1  0.107916  0  0.108276  0.113146  0  0.994886  0
H  H21  1  0.08151552  0.25256366  0.92808009  1  0.107587  0  0.108262  0.113056  0  0.994903  0
H  H22  1  0.88233744  0.12738882  0.55179127  1  0.049605  0  0.103061  0.099464  0  1.035821  0
H  H23  1  0.11765607  0.87260566  0.44819711  1  0.049784  0  0.103044  0.099466  0  1.03593  0
H  H24  1  0.11695533  0.14390928  0.74310435  1  0.104477  0  0.112178  0.120726  0  0.992566  0
H  H25  1  0.88302256  0.85609862  0.25689475  1  0.104352  0  0.112262  0.120821  0  0.992578  0
H  H26  1  0.30873488  0.48167380  0.85064415  1  0.058963  0  0.111309  0.110756  0  0.98333  0
H  H27  1  0.69126705  0.51831672  0.14934610  1  0.059183  0  0.111303  0.110779  0  0.983253  0
H  H28  1  0.67227724  0.79129391  0.74220368  1  0.103506  0  0.125217  0.050296  0  0.986631  0
H  H29  1  0.32773551  0.20871107  0.25781644  1  0.104179  0  0.125204  0.050276  0  0.986528  0
H  H30  1  0.68578864  0.09289965  0.53854733  1  0.04116  0  0.100104  0.111624  0  1.01863  0
H  H31  1  0.31418591  0.90710735  0.46145893  1  0.04092  0  0.100121  0.111613  0  1.018767  0
H  H32  1  0.56581845  0.05720193  0.49880884  1  0.04781  0  0.10287  0.113595  0  1.001321  0
H  H33  1  0.43415626  0.94278350  0.50121334  1  0.047627  0  0.102894  0.113616  0  1.001452  0
H  H34  1  0.74480867  0.94799835  0.49511072  1  0.111303  0  0.113187  0.135305  0  1.012756  0
H  H35  1  0.25517410  0.05199813  0.50490241  1  0.110875  0  0.113098  0.135254  0  1.012735  0
H  H36  1  0.40387269  0.04765746  0.66550255  1  0.040474  0  0.106546  0.120452  0  0.99252  0
H  H37  1  0.59613851  0.95235772  0.33453367  1  0.039964  0  0.106534  0.120578  0  0.992583  0
H  H38  1  0.50402670  0.10634960  0.70621976  1  0.051626  0  0.110981  0.127618  0  0.96685  0
H  H39  1  0.49600536  0.89365858  0.29380387  1  0.051463  0  0.111006  0.127557  0  0.967061  0
H  H40  1  0.48749486  0.96027096  0.76917395  1  0.072516  0  0.110354  0.116591  0  0.991768  0
H  H41  1  0.51252777  0.03973930  0.23085469  1  0.072402  0  0.110302  0.116605  0  0.991744  0
C  C42  1  0.13906663  0.66335823  0.86049485  1  -0.591878  0  -0.023305  -0.153387  0  4.005503  0
C  C43  1  0.86094102  0.33663303  0.13950097  1  -0.592665  0  -0.023351  -0.153335  0  4.005622  0
C  C44  1  0.48373396  0.63820059  0.51430058  1  -0.064068  0  -0.077233  -0.091285  0  3.962744  0
C  C45  1  0.51628272  0.36179423  0.48568558  1  -0.064089  0  -0.077213  -0.09133  0  3.962568  0
C  C46  1  0.08159728  0.88686405  0.70660857  1  -0.604702  0  -0.028326  -0.155476  0  4.011848  0
C  C47  1  0.91839655  0.11313228  0.29338210  1  -0.604372  0  -0.028326  -0.155272  0  4.011408  0
C  C48  1  0.32834631  0.67064021  0.66890136  1  -0.595108  0  -0.019202  -0.141322  0  3.988651  0
C  C49  1  0.67164183  0.32937307  0.33108810  1  -0.596277  0  -0.019241  -0.141054  0  3.988759  0
C  C50  1  0.98945659  0.94853542  0.63918693  1  -0.052942  0  -0.081567  -0.08074  0  3.968097  0
C  C51  1  0.01054161  0.05146454  0.36080200  1  -0.053294  0  -0.081519  -0.080827  0  3.967749  0
C  C52  1  0.35041044  0.66282786  0.56981205  1  0.003655  0  -0.072587  -0.071299  0  3.95672  0
C  C53  1  0.64960170  0.33716614  0.43017456  1  0.003862  0  -0.072719  -0.071485  0  3.956947  0
C  C54  1  0.59611421  0.61945671  0.55671782  1  -0.067617  0  -0.006048  -0.014989  0  3.921815  0
C  C55  1  0.40388546  0.38055719  0.44327460  1  -0.067145  0  -0.006142  -0.015156  0  3.922011  0
C  C56  1  0.02865791  0.73866139  0.92269012  1  -0.081709  0  -0.082103  -0.081652  0  4.010825  0
C  C57  1  0.97134948  0.26133548  0.07730519  1  -0.081626  0  -0.082081  -0.081691  0  4.010875  0
C  C58  1  0.57435174  0.62486798  0.65609757  1  -0.015855  0  -0.077075  -0.089626  0  3.933677  0
C  C59  1  0.42564886  0.37515806  0.34388915  1  -0.014894  0  -0.077009  -0.089549  0  3.933278  0
C  C60  1  0.44041532  0.65183416  0.71181332  1  -0.036609  0  -0.087203  -0.093882  0  4.016162  0
C  C61  1  0.55959356  0.34818986  0.28816376  1  -0.035942  0  -0.087148  -0.094061  0  4.016467  0
C  C62  1  0.12797424  0.95654190  0.74467396  1  -0.108543  0  -0.087446  -0.091942  0  4.033707  0
C  C63  1  0.87201952  0.04345253  0.25532201  1  -0.108702  0  -0.087493  -0.092069  0  4.033549  0
C  C64  1  0.09458342  0.57226063  0.06179491  1  -0.040526  0  -0.000731  0.007551  0  3.922802  0
C  C65  1  0.90541123  0.42772164  0.93820221  1  -0.041716  0  -0.000924  0.007425  0  3.922985  0
C  C66  1  0.06475055  0.52566515  0.16978767  1  1.590892  0  0.189272  0.570964  0  4.237163  0
C  C67  1  0.93525139  0.47433091  0.83021036  1  1.590753  0  0.189324  0.571066  0  4.237105  0
C  C68  1  0.20558253  0.49773942  0.99999969  1  -0.011497  0  -0.077958  -0.091021  0  3.951449  0
C  C69  1  0.79440250  0.50224708  0.99999282  1  -0.010078  0  -0.077938  -0.091068  0  3.951634  0
C  C70  1  0.00557482  0.69230921  0.02245589  1  -0.037416  0  -0.079502  -0.090993  0  3.961976  0
C  C71  1  0.99442689  0.30768221  0.97753907  1  -0.037489  0  -0.079335  -0.090667  0  3.961981  0
C  C72  1  0.99599622  0.14818380  0.64398201  1  -0.007846  0  -0.00607  -0.014155  0  3.927945  0
C  C73  1  0.00399280  0.85180986  0.35600820  1  -0.006525  0  -0.005963  -0.014251  0  3.927756  0
C  C74  1  0.94859170  0.07846137  0.60748465  1  0.004307  0  -0.081395  -0.09075  0  3.961593  0
C  C75  1  0.05140597  0.92153487  0.39250314  1  0.003943  0  -0.081504  -0.090798  0  3.961318  0
C  C76  1  0.08328389  0.08703041  0.71462678  1  -0.046922  0  -0.080513  -0.098716  0  3.962612  0
C  C77  1  0.91669940  0.91296806  0.28536496  1  -0.047543  0  -0.080542  -0.098621  0  3.962257  0
C  C78  1  0.96327510  0.28614180  0.60158769  1  1.613653  0  0.230289  0.635256  0  4.166164  0
C  C79  1  0.03671078  0.71385647  0.39842298  1  1.613784  0  0.230303  0.63546  0  4.166356  0
C  C80  1  0.73896759  0.58787415  0.49533611  1  1.586291  0  0.217045  0.618494  0  4.191125  0
C  C81  1  0.26104732  0.41212814  0.50465638  1  1.586038  0  0.217057  0.618555  0  4.191433  0
C  C82  1  0.22631436  0.54178444  0.89938075  1  0.013594  0  -0.072352  -0.063818  0  3.979574  0
C  C83  1  0.77368157  0.45820903  0.10061011  1  0.014027  0  -0.072314  -0.063839  0  3.979305  0
C  C84  1  0.70702541  0.83168523  0.66604435  1  1.382289  0  0.18472  0.31339  0  4.111127  0
C  C85  1  0.29297952  0.16831248  0.33397699  1  1.381151  0  0.184474  0.313084  0  4.110787  0
C  C86  1  0.65684764  0.01570460  0.53593669  1  0.264949  0  -0.132846  -0.26722  0  3.886836  0
C  C87  1  0.34314104  0.98428702  0.46408044  1  0.265534  0  -0.132797  -0.267236  0  3.886684  0
C  C88  1  0.49778266  0.02004074  0.69708847  1  0.295167  0  -0.12385  -0.270402  0  3.930123  0
C  C89  1  0.50223905  0.97995928  0.30293849  1  0.295932  0  -0.123793  -0.270569  0  3.930122  0
N  N90  1  0.62240022  0.95070798  0.63428466  1  -1.2048  0  -0.285982  0.011337  0  3.725819  0
N  N91  1  0.37761010  0.04928585  0.36573640  1  -1.203989  0  -0.286  0.011576  0  3.725259  0
O  O92  1  0.94021194  0.57279899  0.21420563  1  -1.162332  0  -0.371478  -0.607714  0  2.19441  0
O  O93  1  0.05979426  0.42721652  0.78579824  1  -1.162295  0  -0.371482  -0.607776  0  2.194564  0
O  O94  1  0.75604163  0.56724949  0.40992480  1  -1.165203  0  -0.372624  -0.614448  0  2.198377  0
O  O95  1  0.24397349  0.43274252  0.59006996  1  -1.165137  0  -0.37253  -0.614437  0  2.198361  0
O  O96  1  0.92632731  0.32376466  0.51794294  1  -1.189935  0  -0.379919  -0.649961  0  2.305287  0
O  O97  1  0.07366018  0.67625413  0.48206417  1  -1.190132  0  -0.379899  -0.650011  0  2.305464  0
O  O98  1  0.16365127  0.44092454  0.21396619  1  -1.199039  0  -0.388011  -0.659919  0  2.174783  0
O  O99  1  0.83634729  0.55907534  0.78603379  1  -1.199007  0  -0.388024  -0.659985  0  2.17474  0
O  O100  1  0.97969535  0.35099397  0.65082045  1  -1.183124  0  -0.378539  -0.648971  0  2.29544  0
O  O101  1  0.02028207  0.64899507  0.34920937  1  -1.183207  0  -0.378618  -0.64911  0  2.295775  0
O  O102  1  0.84018719  0.57887596  0.53119957  1  -1.206399  0  -0.410554  -0.727907  0  2.47765  0
O  O103  1  0.15981931  0.42112561  0.46879486  1  -1.206058  0  -0.410595  -0.727945  0  2.47767  0
O  O104  1  0.06810449  0.67167524  0.68794516  1  -1.432998  0  -0.428743  -0.733372  0  2.375527  0
O  O105  1  0.93190160  0.32832259  0.31205159  1  -1.433193  0  -0.428751  -0.733375  0  2.375467  0
O  O106  1  0.81606802  0.77056693  0.61501356  1  -1.169688  0  -0.328611  -0.505298  0  2.417499  0
O  O107  1  0.18392561  0.22942456  0.38500463  1  -1.169757  0  -0.328368  -0.505085  0  2.417313  0
