# generated using pymatgen
data_Zn2H36C48N2O13
_symmetry_space_group_name_H-M   'P 1'
_cell_length_a   10.79652732
_cell_length_b   11.74458246
_cell_length_c   13.03152101
_cell_angle_alpha   82.95055036
_cell_angle_beta   88.54251218
_cell_angle_gamma   85.60193069
_symmetry_Int_Tables_number   1
_chemical_formula_structural   Zn2H36C48N2O13
_chemical_formula_sum   'Zn2 H36 C48 N2 O13'
_cell_volume   1634.87146046
_cell_formula_units_Z   1
loop_
 _symmetry_equiv_pos_site_id
 _symmetry_equiv_pos_as_xyz
  1  'x, y, z'
loop_
 _atom_site_type_symbol
 _atom_site_label
 _atom_site_symmetry_multiplicity
 _atom_site_fract_x
 _atom_site_fract_y
 _atom_site_fract_z
 _atom_site_occupancy
 _atom_site_pbe_bader_charge
 _atom_site_pbe_bader_spin_density
 _atom_site_pbe_cm5_charge
 _atom_site_pbe_ddec_charge
 _atom_site_pbe_ddec_spin_density
 _atom_site_pbe_ddec_sum_bond_order
 _atom_site_pbe_magmom
Zn  Zn0  1  0.47709044  0.61825748  0.49622795  1  1.290029  0  0.677987  0.826176  0  2.43216  0
Zn  Zn1  1  0.50787990  0.38048757  0.49855355  1  1.287766  0  0.676131  0.819469  0  2.429424  0
H  H2  1  0.08381671  0.67775922  0.48204632  1  0.053258  0  0.102096  0.05265  0  0.96344  0
H  H3  1  0.30369827  0.98196320  0.65314647  1  0.089297  0  0.126772  0.135933  0  0.964416  0
H  H4  1  0.62899976  0.23251078  0.34860027  1  0.13831  0  0.133115  0.113008  0  0.971614  0
H  H5  1  0.38064048  0.18383288  0.59431674  1  0.122286  0  0.134387  0.110733  0  0.966481  0
H  H6  1  0.87747173  0.67560003  0.48507604  1  0.003271  0  0.092006  0.052621  0  1.019534  0
H  H7  1  0.07636910  0.56853278  0.34745310  1  0.04637  0  0.105221  0.08841  0  0.977335  0
H  H8  1  0.11847914  0.31090311  0.54965746  1  0.063197  0  0.096214  0.033794  0  1.008602  0
H  H9  1  0.90280059  0.38734383  0.66508469  1  0.060253  0  0.10401  0.122767  0  0.987079  0
H  H10  1  0.23717213  0.51006937  0.24274753  1  0.038384  0  0.100625  0.10295  0  1.00438  0
H  H11  1  0.35343409  0.36066811  0.15342251  1  0.069366  0  0.099644  0.099434  0  1.013082  0
H  H12  1  0.31195669  0.15389065  0.19797611  1  0.056998  0  0.095806  0.09075  0  1.004046  0
H  H13  1  0.90421447  0.30981745  0.55855727  1  0.054002  0  0.096227  0.10401  0  0.994167  0
H  H14  1  0.14990425  0.10042547  0.33159903  1  0.01498  0  0.094823  0.088605  0  1.002969  0
H  H15  1  0.03078530  0.24977236  0.41777677  1  0.023574  0  0.098503  0.094231  0  1.023406  0
H  H16  1  0.61920626  0.15278743  0.00898038  1  0.06513  0  0.101818  0.105925  0  0.995065  0
H  H17  1  0.77143550  0.01214671  0.10506662  1  0.029709  0  0.099108  0.095652  0  0.996263  0
H  H18  1  0.95656814  0.08075991  0.18361501  1  0.051439  0  0.096103  0.089791  0  1.011913  0
H  H19  1  0.98978036  0.28977263  0.16268996  1  0.082039  0  0.099041  0.099731  0  1.027771  0
H  H20  1  0.83930964  0.42922201  0.06428868  1  0.077292  0  0.106016  0.111269  0  0.991297  0
H  H21  1  0.72294716  0.25519625  0.86403080  1  0.592606  0  0.316144  0.340566  0  0.926211  0
H  H22  1  0.40699066  0.63329071  0.73694837  1  0.635795  0  0.29656  0.34032  0  1.011561  0
H  H23  1  0.11636955  0.55847701  0.68042743  1  0.608925  0  0.298847  0.335653  0  0.970193  0
H  H24  1  0.89346212  0.39313682  0.38879098  1  0.055683  0  0.107606  0.057437  0  0.981096  0
H  H25  1  0.76558372  0.79993824  0.56251903  1  0.007013  0  0.084682  0.073884  0  1.036788  0
H  H26  1  0.66368167  0.87130505  0.71714060  1  0.040592  0  0.090496  0.083446  0  1.011629  0
H  H27  1  0.69151112  0.75674290  0.89088857  1  0.043077  0  0.095898  0.092124  0  1.006009  0
H  H28  1  0.82774796  0.57472143  0.90676838  1  0.050355  0  0.095453  0.089054  0  1.01659  0
H  H29  1  0.93218352  0.50652142  0.75441492  1  0.05449  0  0.098444  0.097781  0  1.035673  0
H  H30  1  0.83271281  0.62914947  0.35356832  1  0.583675  0  0.307385  0.336242  0  0.936787  0
H  H31  1  0.21455819  0.38083590  0.67361113  1  0.599996  0  0.313595  0.354205  0  0.91329  0
H  H32  1  0.62350744  0.40175307  0.17953454  1  0.100531  0  0.101121  0.106655  0  1.025117  0
H  H33  1  0.41055383  0.72665521  0.16660779  1  0.059238  0  0.098566  0.104047  0  1.008479  0
H  H34  1  0.38449102  0.72789003  0.97560717  1  0.092121  0  0.104004  0.109847  0  1.000792  0
H  H35  1  0.57840849  0.81858993  0.39029143  1  0.1405  0  0.130901  0.109446  0  0.98171  0
H  H36  1  0.31872773  0.77286163  0.62842624  1  0.161747  0  0.135316  0.120287  0  0.978224  0
H  H37  1  0.64428706  0.02304409  0.32316993  1  0.088325  0  0.117902  0.123613  0  0.991855  0
C  C38  1  0.49585294  0.46673606  0.70137888  1  1.520634  0  0.209852  0.614832  0  4.124386  0
C  C39  1  0.49366031  0.56712227  0.96915028  1  -0.022204  0  -0.021845  -0.045252  0  3.9976  0
C  C40  1  0.56800202  0.47538570  0.02493986  1  -0.007146  0  -0.004398  0.071584  0  4.036768  0
C  C41  1  0.25516219  0.49490886  0.49396404  1  1.583369  0  0.216542  0.593552  0  4.143519  0
C  C42  1  0.57443141  0.47392660  0.13333403  1  -0.023401  0  -0.08642  -0.148019  0  3.945344  0
C  C43  1  0.45244132  0.65739512  0.12578507  1  -0.047432  0  -0.101452  -0.131423  0  4.028146  0
C  C44  1  0.43896164  0.65826002  0.02071426  1  -0.046943  0  -0.089191  -0.101904  0  4.00173  0
C  C45  1  0.58560335  0.05481007  0.38442941  1  0.037955  0  -0.066536  -0.155137  0  3.954695  0
C  C46  1  0.57820231  0.16946648  0.39765315  1  0.40997  0  0.056364  0.090348  0  3.908113  0
C  C47  1  0.43752028  0.14386866  0.53617690  1  0.591338  0  0.086368  0.081307  0  3.846905  0
C  C48  1  0.43787484  0.02464905  0.52909273  1  -0.015744  0  0.013392  0.049274  0  4.016294  0
C  C49  1  0.87271336  0.49248779  0.51645042  1  -0.000699  0  -0.018053  -0.059669  0  3.789858  0
C  C50  1  0.51606691  0.97906873  0.45178187  1  -0.023451  0  0.01224  0.051992  0  4.010474  0
C  C51  1  0.52016941  0.85920226  0.44729847  1  0.53739  0  0.081176  0.075073  0  3.850545  0
C  C52  1  0.37464296  0.83429031  0.58241885  1  0.45407  0  0.057908  0.090677  0  3.890786  0
C  C53  1  0.51685427  0.55162602  0.29809557  1  1.518453  0  0.216677  0.602674  0  4.158924  0
C  C54  1  0.36569359  0.94936480  0.59435695  1  -0.016404  0  -0.061185  -0.148913  0  3.941664  0
C  C55  1  0.73210465  0.48547644  0.51432225  1  1.585712  0  0.221549  0.600489  0  4.107465  0
C  C56  1  0.05856320  0.60736625  0.54044232  1  0.4779  0  0.000399  0.18078  0  3.795935  0
C  C57  1  0.91224361  0.60842407  0.54639903  1  0.029134  0  -0.081518  -0.114228  0  3.779895  0
C  C58  1  0.06083513  0.48583310  0.39382741  1  0.000786  0  -0.077664  -0.110903  0  3.794119  0
C  C59  1  0.07686607  0.38951945  0.57823078  1  0.403646  0  -0.00784  0.20201  0  3.812373  0
C  C60  1  0.91793193  0.47863823  0.40389823  1  0.489648  0  0.003561  0.170155  0  3.797139  0
C  C61  1  0.11410807  0.49354920  0.50319802  1  -0.021217  0  -0.024857  -0.142438  0  3.788436  0
C  C62  1  0.12660209  0.39176104  0.33807361  1  0.000305  0  -0.010181  0.094671  0  3.928551  0
C  C63  1  0.21718488  0.42019194  0.26213681  1  0.013864  0  -0.089237  -0.121607  0  3.946244  0
C  C64  1  0.28322600  0.33573705  0.21176625  1  -0.017078  0  -0.090987  -0.065548  0  4.00531  0
C  C65  1  0.26036517  0.22016917  0.23702094  1  -0.095656  0  -0.101959  -0.105423  0  4.051849  0
C  C66  1  0.16961810  0.19034779  0.31186287  1  -0.000965  0  -0.103058  -0.096096  0  4.070725  0
C  C67  1  0.10284474  0.27529529  0.36116775  1  -0.109465  0  -0.09809  -0.147759  0  3.998364  0
C  C68  1  0.71941637  0.30086779  0.02858354  1  -0.03539  0  -0.01389  0.079095  0  4.046111  0
C  C69  1  0.70170626  0.18248752  0.04112502  1  -0.103298  0  -0.100372  -0.162641  0  4.011974  0
C  C70  1  0.78668825  0.10366503  0.09640840  1  -0.062936  0  -0.101724  -0.092883  0  4.067672  0
C  C71  1  0.93483252  0.38838745  0.58457571  1  -0.024203  0  -0.161454  -0.245166  0  3.846396  0
C  C72  1  0.89021320  0.14193082  0.14037397  1  -0.047056  0  -0.099933  -0.098371  0  4.04222  0
C  C73  1  0.90913324  0.25936427  0.12856734  1  -0.025138  0  -0.091354  -0.071983  0  4.008911  0
C  C74  1  0.82477782  0.33761325  0.07295999  1  -0.05532  0  -0.085577  -0.122419  0  3.948016  0
C  C75  1  0.85462880  0.64690505  0.64525158  1  -0.052771  0  -0.010328  0.113579  0  3.915463  0
C  C76  1  0.77992870  0.75058874  0.63846260  1  0.041062  0  -0.101409  -0.131353  0  4.003528  0
C  C77  1  0.72197583  0.79066609  0.72535655  1  -0.091406  0  -0.104721  -0.091271  0  4.058452  0
C  C78  1  0.73788898  0.72718809  0.82260341  1  -0.048248  0  -0.100424  -0.093062  0  4.043803  0
C  C79  1  0.81379096  0.62497000  0.83130305  1  -0.004022  0  -0.096507  -0.077736  0  4.035652  0
C  C80  1  0.87203495  0.58564236  0.74396216  1  -0.045805  0  -0.096397  -0.13541  0  3.955165  0
C  C81  1  0.51709955  0.56178190  0.18293099  1  -0.000357  0  -0.016665  -0.017345  0  3.994862  0
C  C82  1  0.52527326  0.47059691  0.81113028  1  0.029418  0  -0.051053  -0.296296  0  3.938373  0
C  C83  1  0.62910869  0.38652185  0.97251161  1  0.067945  0  -0.051825  -0.191975  0  4.072257  0
C  C84  1  0.60677851  0.38451045  0.86801719  1  0.480408  0  0.088298  0.280637  0  4.067717  0
C  C85  1  0.47434347  0.56358628  0.86164048  1  0.565187  0  0.102208  0.29437  0  4.038737  0
N  N86  1  0.45314681  0.79050170  0.51072836  1  -1.221494  0  -0.31113  -0.1839  0  3.52474  0
N  N87  1  0.50609691  0.21197742  0.47389055  1  -1.228015  0  -0.308025  -0.174076  0  3.525785  0
O  O88  1  0.44402119  0.56156854  0.65197534  1  -1.176887  0  -0.325793  -0.578072  0  2.391688  0
O  O89  1  0.40374821  0.65103645  0.81209042  1  -1.159289  0  -0.350711  -0.446662  0  2.307454  0
O  O90  1  0.11511019  0.63001047  0.63262123  1  -1.127035  0  -0.416689  -0.505663  0  2.216301  0
O  O91  1  0.85356778  0.55628707  0.32634984  1  -1.116447  0  -0.411684  -0.492605  0  2.170676  0
O  O92  1  0.12417216  0.39263251  0.68110168  1  -1.107235  0  -0.403706  -0.510369  0  2.170476  0
O  O93  1  0.51751895  0.37600189  0.65918169  1  -1.151251  0  -0.307626  -0.508582  0  2.314915  0
O  O94  1  0.30010931  0.58891615  0.45983121  1  -1.164997  0  -0.313674  -0.535765  0  2.347882  0
O  O95  1  0.31831525  0.39997008  0.52072202  1  -1.178863  0  -0.31383  -0.57003  0  2.389041  0
O  O96  1  0.51506965  0.64430472  0.33998876  1  -1.166654  0  -0.325455  -0.559754  0  2.314946  0
O  O97  1  0.51398884  0.45037692  0.34594492  1  -1.174181  0  -0.314232  -0.559819  0  2.355667  0
O  O98  1  0.66320540  0.57750059  0.51962535  1  -1.182086  0  -0.310228  -0.554409  0  2.390206  0
O  O99  1  0.69551134  0.38783453  0.50241587  1  -1.159314  0  -0.317675  -0.534332  0  2.326519  0
O  O100  1  0.66733082  0.30297350  0.81517211  1  -1.112306  0  -0.346546  -0.413351  0  2.30654  0
