# generated using pymatgen
data_H16PbC26(NO)4
_symmetry_space_group_name_H-M   'P 1'
_cell_length_a   9.59724752
_cell_length_b   11.16345410
_cell_length_c   11.97385013
_cell_angle_alpha   62.12179490
_cell_angle_beta   77.28885361
_cell_angle_gamma   72.91515388
_symmetry_Int_Tables_number   1
_chemical_formula_structural   H16PbC26(NO)4
_chemical_formula_sum   'H32 Pb2 C52 N8 O8'
_cell_volume   1078.73411450
_cell_formula_units_Z   2
loop_
 _symmetry_equiv_pos_site_id
 _symmetry_equiv_pos_as_xyz
  1  'x, y, z'
loop_
 _atom_site_type_symbol
 _atom_site_label
 _atom_site_symmetry_multiplicity
 _atom_site_fract_x
 _atom_site_fract_y
 _atom_site_fract_z
 _atom_site_occupancy
 _atom_site_pbe_bader_spin_density
 _atom_site_pbe_cm5_charge
 _atom_site_pbe_ddec_charge
 _atom_site_pbe_ddec_spin_density
 _atom_site_pbe_ddec_sum_bond_order
 _atom_site_pbe_magmom
H  H0  1  0.51057226  0.87924011  0.43792963  1  0  0.124068  0.106634  0  1.021311  0
H  H1  1  0.48943385  0.12075982  0.56206880  1  0  0.124061  0.106596  0  1.021358  0
H  H2  1  0.76206932  0.77768637  0.36707877  1  0  0.108886  0.115483  0  1.023697  0
H  H3  1  0.23793247  0.22230934  0.63291976  1  0  0.108909  0.115526  0  1.023656  0
H  H4  1  0.84656389  0.87407204  0.13290958  1  0  0.105227  0.101686  0  1.004612  0
H  H5  1  0.15343572  0.12591949  0.86708949  1  0  0.10526  0.101722  0  1.004704  0
H  H6  1  0.07568952  0.38865228  0.05834072  1  0  0.114697  0.082329  0  1.012053  0
H  H7  1  0.92431599  0.61134139  0.94166221  1  0  0.114713  0.082296  0  1.011964  0
H  H8  1  0.13772520  0.50482905  0.82112969  1  0  0.109401  0.13283  0  1.019987  0
H  H9  1  0.86227386  0.49516038  0.17887290  1  0  0.109392  0.132867  0  1.019931  0
H  H10  1  0.38601321  0.41928648  0.73005731  1  0  0.10581  0.10501  0  1.034103  0
H  H11  1  0.61398345  0.58070397  0.26994276  1  0  0.105859  0.105003  0  1.034108  0
H  H12  1  0.79336441  0.04601282  0.91218866  1  0  0.102125  0.10342  0  1.005943  0
H  H13  1  0.20663607  0.95398392  0.08781132  1  0  0.102131  0.103379  0  1.005976  0
H  H14  1  0.62600746  0.24518179  0.76502619  1  0  0.099832  0.100854  0  1.045809  0
H  H15  1  0.37399241  0.75480870  0.23497580  1  0  0.099796  0.100738  0  1.045778  0
H  H16  1  0.43041746  0.72244146  0.71786999  1  0  0.113122  0.126712  0  1.011012  0
H  H17  1  0.56958278  0.27755633  0.28213459  1  0  0.113137  0.126739  0  1.011063  0
H  H18  1  0.26146532  0.57575519  0.11173175  1  0  0.102992  0.10124  0  1.055094  0
H  H19  1  0.73852319  0.42424247  0.88826996  1  0  0.102993  0.101229  0  1.055052  0
H  H20  1  0.03177283  0.75859410  0.05299267  1  0  0.093314  0.085383  0  1.033286  0
H  H21  1  0.96821842  0.24140984  0.94700498  1  0  0.093339  0.085393  0  1.033308  0
H  H22  1  0.00480199  0.92687808  0.82460162  1  0  0.095584  0.075442  0  1.067116  0
H  H23  1  0.99519941  0.07312805  0.17539494  1  0  0.095584  0.075391  0  1.067161  0
H  H24  1  0.39870215  0.36337676  0.43148347  1  0  0.111547  0.114382  0  1.047321  0
H  H25  1  0.60130084  0.63662730  0.56851872  1  0  0.111526  0.114342  0  1.047344  0
H  H26  1  0.21287996  0.74276994  0.47307946  1  0  0.110647  0.114871  0  1.015224  0
H  H27  1  0.78711586  0.25723718  0.52692016  1  0  0.110688  0.114944  0  1.015091  0
H  H28  1  0.99582140  0.78256365  0.36888335  1  0  0.099599  0.109839  0  1.047306  0
H  H29  1  0.00417735  0.21744454  0.63111027  1  0  0.099601  0.109899  0  1.047298  0
H  H30  1  0.97542238  0.60145227  0.30546184  1  0  0.102929  0.102653  0  1.01173  0
H  H31  1  0.02458115  0.39855388  0.69453432  1  0  0.102941  0.102749  0  1.011714  0
Pb  Pb32  1  0.18511957  0.09331552  0.33825632  1  0  0.597321  0.93284  0  1.976206  0
Pb  Pb33  1  0.81488082  0.90669477  0.66174111  1  0  0.5973  0.932823  0  1.976227  0
C  C34  1  0.55065682  0.91843474  0.33751141  1  0  0.06416  0.110574  0  3.900284  0
C  C35  1  0.44934529  0.08156410  0.66248904  1  0  0.064185  0.110674  0  3.900474  0
C  C36  1  0.69203328  0.86170836  0.29658712  1  0  -0.081314  -0.119211  0  3.964028  0
C  C37  1  0.30797145  0.13828842  0.70340791  1  0  -0.081379  -0.119255  0  3.964039  0
C  C38  1  0.73775705  0.91542106  0.16849133  1  0  -0.063798  -0.072137  0  3.94173  0
C  C39  1  0.26224262  0.08457464  0.83151092  1  0  -0.06382  -0.072245  0  3.941744  0
C  C40  1  0.64350615  0.02683778  0.08151480  1  0  -0.002198  0.042446  0  4.011444  0
C  C41  1  0.35649697  0.97315690  0.91848561  1  0  -0.002194  0.042518  0  4.011588  0
C  C42  1  0.50269549  0.07907732  0.13127306  1  0  0.122421  0.12128  0  3.968675  0
C  C43  1  0.49730530  0.92092255  0.86872800  1  0  0.122361  0.121227  0  3.968756  0
C  C44  1  0.18103421  0.35281361  0.01383027  1  0  0.055465  0.104383  0  3.96844  0
C  C45  1  0.81896647  0.64717793  0.98617028  1  0  0.055571  0.104529  0  3.968448  0
C  C46  1  0.21668717  0.41822475  0.88174754  1  0  -0.085173  -0.133548  0  3.954668  0
C  C47  1  0.78331270  0.58176574  0.11825362  1  0  -0.085237  -0.133684  0  3.954656  0
C  C48  1  0.35300121  0.36935315  0.83167728  1  0  -0.06243  -0.061786  0  3.906446  0
C  C49  1  0.64699358  0.63063624  0.16832359  1  0  -0.062453  -0.061756  0  3.906458  0
C  C50  1  0.45133239  0.25506789  0.91270217  1  0  -0.002289  0.043896  0  3.998787  0
C  C51  1  0.54866717  0.74491947  0.08730124  1  0  -0.002367  0.043842  0  3.998896  0
C  C52  1  0.40486932  0.19541568  0.04487174  1  0  0.117902  0.119221  0  3.983126  0
C  C53  1  0.59513299  0.80457795  0.95513011  1  0  0.117991  0.119221  0  3.98307  0
C  C54  1  0.68501054  0.08829282  0.94784752  1  0  -0.086606  -0.124693  0  4.003027  0
C  C55  1  0.31499339  0.91170292  0.05215145  1  0  -0.086556  -0.124643  0  4.003142  0
C  C56  1  0.59280992  0.19825665  0.86654796  1  0  -0.084013  -0.107792  0  3.976597  0
C  C57  1  0.40718816  0.80174111  0.13344617  1  0  -0.083937  -0.107578  0  3.976522  0
C  C58  1  0.19465485  0.93160320  0.61963107  1  0  0.204436  0.556094  0  4.229925  0
C  C59  1  0.80534656  0.06840293  0.38037049  1  0  0.204431  0.555916  0  4.230271  0
C  C60  1  0.21363458  0.83359471  0.75664275  1  0  -0.018629  -0.031065  0  3.980655  0
C  C61  1  0.78636333  0.16640825  0.24335831  1  0  -0.018657  -0.031074  0  3.980644  0
C  C62  1  0.34210703  0.73102059  0.79034941  1  0  -0.06536  -0.133078  0  3.874849  0
C  C63  1  0.65788900  0.26898132  0.20965329  1  0  -0.065376  -0.133159  0  3.875058  0
C  C64  1  0.35897002  0.63947911  0.91813107  1  0  0.083394  0.15238  0  4.049792  0
C  C65  1  0.64102439  0.36052070  0.08187199  1  0  0.083438  0.152445  0  4.049836  0
C  C66  1  0.24634870  0.64869399  0.01321538  1  0  -0.078238  -0.12504  0  3.929065  0
C  C67  1  0.75364250  0.35130578  0.98678661  1  0  -0.078223  -0.124981  0  3.928908  0
C  C68  1  0.11906407  0.75113967  0.97930972  1  0  -0.093755  -0.079644  0  4.033941  0
C  C69  1  0.88093089  0.24886222  0.02069067  1  0  -0.093853  -0.07976  0  4.033879  0
C  C70  1  0.10292911  0.84411843  0.85202395  1  0  -0.084643  -0.10789  0  4.002404  0
C  C71  1  0.89707042  0.15588664  0.14797591  1  0  -0.084572  -0.107718  0  4.002258  0
C  C72  1  0.16926802  0.35593121  0.34098574  1  0  0.206102  0.551438  0  4.210916  0
C  C73  1  0.83074322  0.64407398  0.65900780  1  0  0.206157  0.551746  0  4.210607  0
C  C74  1  0.18494224  0.47125407  0.36582857  1  0  -0.015826  -0.024603  0  3.97842  0
C  C75  1  0.81506048  0.52875102  0.63416903  1  0  -0.015893  -0.024741  0  3.978499  0
C  C76  1  0.31021050  0.45477538  0.41689013  1  0  -0.075638  -0.164701  0  3.927696  0
C  C77  1  0.68978748  0.54523176  0.58311411  1  0  -0.075658  -0.164627  0  3.927525  0
C  C78  1  0.32045245  0.55379399  0.45374043  1  0  0.080543  0.146609  0  4.073275  0
C  C79  1  0.67954603  0.44621106  0.54626296  1  0  0.080625  0.146572  0  4.07313  0
C  C80  1  0.20471355  0.66985068  0.43933266  1  0  -0.069543  -0.118304  0  3.906999  0
C  C81  1  0.79528411  0.33015332  0.56067049  1  0  -0.069564  -0.118332  0  3.90701  0
C  C82  1  0.08285852  0.69006016  0.38162624  1  0  -0.092226  -0.086781  0  3.984488  0
C  C83  1  0.91713942  0.30994698  0.61837049  1  0  -0.092269  -0.086901  0  3.984739  0
C  C84  1  0.07240946  0.59095958  0.34559199  1  0  -0.075849  -0.0822  0  3.938809  0
C  C85  1  0.92759408  0.40904657  0.65440667  1  0  -0.075831  -0.082291  0  3.938868  0
N  N86  1  0.45848430  0.02258279  0.25758300  1  0  -0.288293  -0.261561  0  3.421998  0
N  N87  1  0.54151887  0.97741606  0.74241475  1  0  -0.288262  -0.261596  0  3.422037  0
N  N88  1  0.27136936  0.24552795  0.09262851  1  0  -0.299429  -0.290489  0  3.452407  0
N  N89  1  0.72863371  0.75446257  0.90737540  1  0  -0.299554  -0.290565  0  3.452474  0
N  N90  1  0.49273639  0.53944066  0.94178057  1  0  -0.144663  -0.123127  0  3.272332  0
N  N91  1  0.50725482  0.46055911  0.05822392  1  0  -0.144656  -0.123176  0  3.272327  0
N  N92  1  0.44221562  0.54088055  0.50995856  1  0  -0.145418  -0.127698  0  3.285102  0
N  N93  1  0.55777779  0.45912342  0.49004872  1  0  -0.14534  -0.127369  0  3.285036  0
O  O94  1  0.29549706  0.91106778  0.53647189  1  0  -0.302155  -0.536674  0  2.204201  0
O  O95  1  0.70450617  0.08893525  0.46352987  1  0  -0.302137  -0.536577  0  2.204387  0
O  O96  1  0.07979510  0.02838607  0.59202721  1  0  -0.309691  -0.58768  0  2.220859  0
O  O97  1  0.92021358  0.97162534  0.40797325  1  0  -0.309729  -0.587649  0  2.221017  0
O  O98  1  0.27227429  0.24483006  0.37670244  1  0  -0.293835  -0.507393  0  2.195818  0
O  O99  1  0.72773755  0.75518138  0.62328659  1  0  -0.293851  -0.507544  0  2.195619  0
O  O100  1  0.05912192  0.36859052  0.29166074  1  0  -0.31057  -0.55292  0  2.135444  0
O  O101  1  0.94088769  0.63141256  0.70833234  1  0  -0.310561  -0.553016  0  2.135396  0
