# generated using pymatgen
data_ZnH13(C3N2)3
_symmetry_space_group_name_H-M   'P 1'
_cell_length_a   10.97622773
_cell_length_b   12.50036795
_cell_length_c   16.52868260
_cell_angle_alpha   90.00020004
_cell_angle_beta   95.14493925
_cell_angle_gamma   89.99992889
_symmetry_Int_Tables_number   1
_chemical_formula_structural   ZnH13(C3N2)3
_chemical_formula_sum   'Zn8 H104 C72 N48'
_cell_volume   2258.71197647
_cell_formula_units_Z   8
loop_
 _symmetry_equiv_pos_site_id
 _symmetry_equiv_pos_as_xyz
  1  'x, y, z'
loop_
 _atom_site_type_symbol
 _atom_site_label
 _atom_site_symmetry_multiplicity
 _atom_site_fract_x
 _atom_site_fract_y
 _atom_site_fract_z
 _atom_site_occupancy
 _atom_site_pbe_bader_charge
 _atom_site_pbe_bader_spin_density
 _atom_site_pbe_cm5_charge
 _atom_site_pbe_ddec_charge
 _atom_site_pbe_ddec_spin_density
 _atom_site_pbe_ddec_sum_bond_order
 _atom_site_pbe_magmom
Zn  Zn0  1  0.72704771  0.73407697  0.59625207  1  1.197253  0  0.735592  0.670349  0  2.481968  0
Zn  Zn1  1  0.77295249  0.23407878  0.90374758  1  1.197284  0  0.735569  0.670325  0  2.481907  0
Zn  Zn2  1  0.27295315  0.26592256  0.40374860  1  1.197269  0  0.735582  0.670341  0  2.481918  0
Zn  Zn3  1  0.22704654  0.76592155  0.09625239  1  1.197257  0  0.735572  0.670365  0  2.481831  0
Zn  Zn4  1  0.21117855  0.74188472  0.46558987  1  1.193195  0  0.743002  0.672056  0  2.501335  0
Zn  Zn5  1  0.28882208  0.24188320  0.03441112  1  1.193245  0  0.742974  0.671988  0  2.501434  0
Zn  Zn6  1  0.78882323  0.25811561  0.53441026  1  1.1933  0  0.74301  0.672074  0  2.50137  0
Zn  Zn7  1  0.71117786  0.75811633  0.96558951  1  1.193247  0  0.742988  0.672038  0  2.501338  0
H  H8  1  0.08136949  0.63036347  0.20400999  1  0.057416  0  0.099616  0.141331  0  1.036312  0
H  H9  1  0.41863217  0.13036382  0.29599137  1  0.057374  0  0.099608  0.141331  0  1.03633  0
H  H10  1  0.91862953  0.36963526  0.79598998  1  0.057404  0  0.099622  0.141307  0  1.036388  0
H  H11  1  0.58136869  0.86963571  0.70400931  1  0.057403  0  0.099614  0.141325  0  1.03632  0
H  H12  1  0.01519793  0.67140251  0.29298050  1  0.060971  0  0.100438  0.145286  0  1.008407  0
H  H13  1  0.48480369  0.17140237  0.20702096  1  0.060967  0  0.100445  0.145274  0  1.008402  0
H  H14  1  0.98480202  0.32859542  0.70702073  1  0.060993  0  0.100447  0.145244  0  1.00836  0
H  H15  1  0.51519625  0.82859716  0.79297906  1  0.060964  0  0.100453  0.145297  0  1.00838  0
H  H16  1  0.13677762  0.57734122  0.29989608  1  0.071321  0  0.101215  0.152889  0  1.013072  0
H  H17  1  0.36322319  0.07734039  0.20010509  1  0.071335  0  0.101221  0.152861  0  1.013045  0
H  H18  1  0.86322324  0.42265751  0.70010399  1  0.071366  0  0.10122  0.152857  0  1.013058  0
H  H19  1  0.63677676  0.92265834  0.79989554  1  0.071347  0  0.101201  0.152856  0  1.013091  0
H  H20  1  0.46776158  0.96092349  0.35928032  1  0.070702  0  0.12186  0.152024  0  0.966962  0
H  H21  1  0.03224155  0.46092434  0.14072018  1  0.070744  0  0.121858  0.152007  0  0.966905  0
H  H22  1  0.53224110  0.03907604  0.64071865  1  0.070749  0  0.121865  0.15203  0  0.966864  0
H  H23  1  0.96776114  0.53907519  0.85928060  1  0.070706  0  0.121862  0.152049  0  0.966911  0
H  H24  1  0.33814884  0.99382591  0.41044648  1  0.099966  0  0.11011  0.130329  0  0.994472  0
H  H25  1  0.16185609  0.49382478  0.08955482  1  0.099944  0  0.110096  0.130271  0  0.994491  0
H  H26  1  0.66185475  0.00617282  0.58955315  1  0.099914  0  0.110077  0.13024  0  0.994499  0
H  H27  1  0.83814660  0.50617395  0.91044536  1  0.099963  0  0.1101  0.130286  0  0.994482  0
H  H28  1  0.49523898  0.66891040  0.67442870  1  0.052327  0  0.097144  0.13847  0  1.02968  0
H  H29  1  0.00476081  0.16891053  0.82557159  1  0.052316  0  0.097147  0.138476  0  1.029679  0
H  H30  1  0.50476187  0.33109073  0.32557137  1  0.051933  0  0.097149  0.138493  0  1.029647  0
H  H31  1  0.99523731  0.83109060  0.17442893  1  0.052074  0  0.097151  0.138491  0  1.029662  0
H  H32  1  0.36381422  0.62564120  0.61145990  1  0.059176  0  0.101652  0.149789  0  1.0101  0
H  H33  1  0.13618470  0.12564148  0.88853963  1  0.059187  0  0.101662  0.149802  0  1.010111  0
H  H34  1  0.63618572  0.37435673  0.38854073  1  0.059188  0  0.101672  0.149808  0  1.010104  0
H  H35  1  0.86381433  0.87435805  0.11146034  1  0.05918  0  0.101668  0.14981  0  1.010081  0
H  H36  1  0.35468157  0.74078195  0.67247415  1  0.091054  0  0.106998  0.158885  0  0.988882  0
H  H37  1  0.14531905  0.24078035  0.82752517  1  0.091168  0  0.107  0.158912  0  0.988846  0
H  H38  1  0.64532019  0.25921917  0.32752477  1  0.091383  0  0.106986  0.158886  0  0.988855  0
H  H39  1  0.85467998  0.75922078  0.17247601  1  0.091393  0  0.106991  0.158899  0  0.988844  0
H  H40  1  0.00570393  0.99385872  0.68487651  1  0.07097  0  0.101827  0.148571  0  0.997689  0
H  H41  1  0.49429369  0.49386148  0.81512452  1  0.070905  0  0.101823  0.148515  0  0.997707  0
H  H42  1  0.99429508  0.00614241  0.31512044  1  0.070969  0  0.101816  0.148522  0  0.997678  0
H  H43  1  0.50570717  0.50614205  0.18487556  1  0.070916  0  0.101822  0.148517  0  0.997693  0
H  H44  1  0.86644680  0.92423873  0.69734340  1  0.075032  0  0.093868  0.13417  0  1.015763  0
H  H45  1  0.63355137  0.42423862  0.80265846  1  0.075091  0  0.093838  0.134079  0  1.015729  0
H  H46  1  0.13355313  0.07576400  0.30265481  1  0.075219  0  0.09387  0.134134  0  1.015855  0
H  H47  1  0.36644766  0.57576171  0.19734272  1  0.07506  0  0.09386  0.134112  0  1.015741  0
H  H48  1  0.87171116  0.02475863  0.62139597  1  0.061492  0  0.095318  0.139805  0  1.022321  0
H  H49  1  0.62828745  0.52476144  0.87860606  1  0.061438  0  0.095291  0.139775  0  1.022369  0
H  H50  1  0.12828876  0.97524170  0.37860102  1  0.061476  0  0.095282  0.13972  0  1.02234  0
H  H51  1  0.37171341  0.47523969  0.12139462  1  0.061471  0  0.095297  0.139788  0  1.022323  0
H  H52  1  0.97899642  0.62317250  0.42450580  1  0.08747  0  0.115744  0.135281  0  1.000574  0
H  H53  1  0.52100298  0.12317466  0.07549397  1  0.08748  0  0.115749  0.135272  0  1.000548  0
H  H54  1  0.02100444  0.37682543  0.57549427  1  0.087509  0  0.115736  0.135251  0  1.000578  0
H  H55  1  0.47899513  0.87682566  0.92450595  1  0.087512  0  0.115736  0.135293  0  1.000561  0
H  H56  1  0.84114117  0.69643997  0.40265539  1  0.046009  0  0.110797  0.128305  0  0.992966  0
H  H57  1  0.65885907  0.19644128  0.09734522  1  0.045986  0  0.110793  0.128293  0  0.992982  0
H  H58  1  0.15886244  0.30356036  0.59734666  1  0.045967  0  0.110771  0.128252  0  0.99298  0
H  H59  1  0.34113995  0.80355905  0.90265414  1  0.045987  0  0.110777  0.128276  0  0.993  0
H  H60  1  0.60692754  0.37902756  0.62568042  1  0.077196  0  0.099782  0.14472  0  1.024093  0
H  H61  1  0.89306790  0.87902846  0.87431572  1  0.07719  0  0.099804  0.144721  0  1.024028  0
H  H62  1  0.39307332  0.62097277  0.37432026  1  0.0772  0  0.099807  0.144753  0  1.024097  0
H  H63  1  0.10693020  0.12097267  0.12568239  1  0.077188  0  0.099789  0.144718  0  1.024064  0
H  H64  1  0.52145092  0.49072903  0.58628108  1  0.044635  0  0.099842  0.149921  0  0.988395  0
H  H65  1  0.97854623  0.99072921  0.91371544  1  0.04465  0  0.099845  0.149898  0  0.98848  0
H  H66  1  0.47855085  0.50927130  0.41371905  1  0.044591  0  0.099866  0.149957  0  0.988442  0
H  H67  1  0.02145187  0.00927191  0.08628266  1  0.044654  0  0.099842  0.149897  0  0.988468  0
H  H68  1  0.62746605  0.50662950  0.67308754  1  0.068738  0  0.099138  0.143857  0  1.021031  0
H  H69  1  0.87253072  0.00663164  0.82690950  1  0.068648  0  0.099146  0.143792  0  1.021022  0
H  H70  1  0.37253572  0.49337083  0.32691319  1  0.068765  0  0.099157  0.143902  0  1.021056  0
H  H71  1  0.12746739  0.99337029  0.17308860  1  0.068712  0  0.099119  0.143827  0  1.021058  0
H  H72  1  0.63421390  0.66520885  0.33583329  1  0.011018  0  0.076298  0.100234  0  1.027251  0
H  H73  1  0.86578727  0.16521104  0.16416366  1  0.011104  0  0.076327  0.100292  0  1.027194  0
H  H74  1  0.36578879  0.33479148  0.66416689  1  0.011097  0  0.076332  0.100267  0  1.027236  0
H  H75  1  0.13420991  0.83478849  0.83583257  1  0.011121  0  0.076324  0.100238  0  1.027242  0
H  H76  1  0.61946186  0.69132064  0.22962930  1  0.026752  0  0.082001  0.111888  0  1.037014  0
H  H77  1  0.88053928  0.19132091  0.27036833  1  0.026691  0  0.081984  0.111895  0  1.036964  0
H  H78  1  0.38053899  0.30867969  0.77037078  1  0.02674  0  0.081982  0.111864  0  1.037011  0
H  H79  1  0.11945882  0.80867622  0.72962977  1  0.026568  0  0.081984  0.111865  0  1.03702  0
H  H80  1  0.50925650  0.74183056  0.29137807  1  0.022046  0  0.077454  0.105933  0  1.042927  0
H  H81  1  0.99074459  0.24183202  0.20861969  1  0.022002  0  0.077445  0.10594  0  1.042892  0
H  H82  1  0.49074527  0.25816897  0.70862206  1  0.022017  0  0.077444  0.105922  0  1.042907  0
H  H83  1  0.00925168  0.75816911  0.79137770  1  0.021955  0  0.077427  0.105873  0  1.042945  0
H  H84  1  0.77902221  0.81319793  0.30140177  1  -0.032578  0  0.073885  0.052221  0  1.008685  0
H  H85  1  0.72097882  0.31319965  0.19859799  1  -0.032568  0  0.073902  0.052237  0  1.008754  0
H  H86  1  0.22097774  0.18680480  0.69859886  1  -0.032672  0  0.073877  0.052223  0  1.008735  0
H  H87  1  0.27901747  0.68679988  0.80140183  1  -0.032577  0  0.073918  0.052265  0  1.008724  0
H  H88  1  0.66978078  0.85961197  0.36481833  1  0.054648  0  0.080283  0.06948  0  1.036937  0
H  H89  1  0.83022019  0.35961327  0.13518094  1  0.05465  0  0.080267  0.069467  0  1.03692  0
H  H90  1  0.33021917  0.14038836  0.63518230  1  0.054671  0  0.080275  0.069473  0  1.036938  0
H  H91  1  0.16977517  0.64038706  0.86481882  1  0.054228  0  0.080298  0.06946  0  1.036951  0
H  H92  1  0.54069502  0.92196831  0.23479894  1  -0.007502  0  0.080485  0.071858  0  1.0267  0
H  H93  1  0.95930589  0.42196847  0.26520050  1  -0.007516  0  0.080478  0.071829  0  1.026698  0
H  H94  1  0.45930219  0.07803362  0.76520274  1  -0.007915  0  0.080494  0.071871  0  1.02672  0
H  H95  1  0.04069223  0.57802786  0.73480003  1  -0.007574  0  0.080532  0.071842  0  1.026711  0
H  H96  1  0.66487263  0.89120662  0.17992226  1  0.04269  0  0.078446  0.069249  0  1.016974  0
H  H97  1  0.83512922  0.39120717  0.32007775  1  0.042709  0  0.078441  0.069218  0  1.016977  0
H  H98  1  0.33512365  0.10879451  0.82007755  1  0.042658  0  0.07843  0.06923  0  1.016963  0
H  H99  1  0.16486798  0.60878996  0.67992272  1  0.042559  0  0.078443  0.069205  0  1.017039  0
H  H100  1  0.67629811  0.08408006  0.21648467  1  -0.020028  0  0.076928  0.09733  0  1.049588  0
H  H101  1  0.82370316  0.58408061  0.28351571  1  -0.020036  0  0.076956  0.097372  0  1.049571  0
H  H102  1  0.32370091  0.91592187  0.78351530  1  -0.019988  0  0.076935  0.097342  0  1.049597  0
H  H103  1  0.17629679  0.41591892  0.71648552  1  -0.020032  0  0.076943  0.097364  0  1.049605  0
H  H104  1  0.79912835  0.01762447  0.27197840  1  -0.032453  0  0.080077  0.101767  0  1.041461  0
H  H105  1  0.70087392  0.51762411  0.22802247  1  -0.032565  0  0.08008  0.101761  0  1.04144  0
H  H106  1  0.20087341  0.98237506  0.72801931  1  -0.032446  0  0.080081  0.101766  0  1.041465  0
H  H107  1  0.29912329  0.48237382  0.77197861  1  -0.032538  0  0.080084  0.101789  0  1.041466  0
H  H108  1  0.66969823  0.05312921  0.32130663  1  0.015587  0  0.080319  0.108073  0  1.020002  0
H  H109  1  0.83030216  0.55312928  0.17869362  1  0.015584  0  0.080325  0.108071  0  1.020018  0
H  H110  1  0.33030445  0.94687192  0.67869355  1  0.015552  0  0.080319  0.108065  0  1.02002  0
H  H111  1  0.16969687  0.44686785  0.82130756  1  0.015932  0  0.080321  0.108068  0  1.019965  0
C  C112  1  0.10155889  0.64990543  0.26834961  1  -0.02964  0  -0.234646  -0.470509  0  3.930073  0
C  C113  1  0.39844276  0.14990391  0.23165180  1  -0.029655  0  -0.234649  -0.470447  0  3.930076  0
C  C114  1  0.89843924  0.35009250  0.73165212  1  -0.029651  0  -0.234637  -0.470363  0  3.930118  0
C  C115  1  0.60155810  0.85009402  0.76834888  1  -0.029641  0  -0.234624  -0.470458  0  3.930133  0
C  C116  1  0.19022815  0.73965957  0.27775271  1  0.9626  0  0.209294  0.373939  0  4.028451  0
C  C117  1  0.30977431  0.23965889  0.22224838  1  0.963156  0  0.209346  0.374004  0  4.028462  0
C  C118  1  0.80977270  0.26033996  0.72224736  1  0.96313  0  0.20927  0.373927  0  4.028546  0
C  C119  1  0.69022564  0.76033904  0.77775225  1  0.963164  0  0.209275  0.373951  0  4.028443  0
C  C120  1  0.31512651  0.85994247  0.32872507  1  0.966285  0  0.209085  0.321868  0  4.030027  0
C  C121  1  0.18487674  0.35994250  0.17127638  1  0.966916  0  0.209116  0.321846  0  4.030148  0
C  C122  1  0.68487618  0.14005626  0.67127511  1  0.966747  0  0.209184  0.321972  0  4.030086  0
C  C123  1  0.81512412  0.64005623  0.82872370  1  0.96691  0  0.209158  0.321908  0  4.030081  0
C  C124  1  0.39178512  0.92641102  0.38919971  1  0.026846  0  -0.136951  -0.327656  0  3.935262  0
C  C125  1  0.10821897  0.42641085  0.11080136  1  0.026249  0  -0.136919  -0.327414  0  3.935016  0
C  C126  1  0.60821939  0.07358851  0.61080057  1  0.026395  0  -0.136919  -0.327434  0  3.935003  0
C  C127  1  0.89178463  0.57358868  0.88919827  1  0.026249  0  -0.136916  -0.327532  0  3.935123  0
C  C128  1  0.44284674  0.86469857  0.46199385  1  0.994349  0  0.212872  0.341677  0  3.998561  0
C  C129  1  0.05715559  0.36469812  0.03800695  1  0.994465  0  0.212829  0.341456  0  3.998711  0
C  C130  1  0.55715595  0.13530096  0.53800633  1  0.994469  0  0.212825  0.341476  0  3.99867  0
C  C131  1  0.94284527  0.63530061  0.96199373  1  0.994471  0  0.21285  0.341579  0  3.998589  0
C  C132  1  0.45198445  0.76427937  0.56807687  1  0.988309  0  0.212416  0.378553  0  4.014631  0
C  C133  1  0.04801705  0.26428075  0.93192135  1  0.988158  0  0.212371  0.378425  0  4.014728  0
C  C134  1  0.54801731  0.23571936  0.43192144  1  0.98817  0  0.212423  0.378538  0  4.014652  0
C  C135  1  0.95198381  0.73571878  0.06807933  1  0.98842  0  0.212385  0.378458  0  4.014678  0
C  C136  1  0.41536605  0.69586156  0.63534132  1  -0.055447  0  -0.231753  -0.471965  0  3.936108  0
C  C137  1  0.08463462  0.19586179  0.86465788  1  -0.055445  0  -0.231751  -0.47198  0  3.936134  0
C  C138  1  0.58463571  0.30413797  0.36465760  1  -0.055286  0  -0.231748  -0.471983  0  3.936076  0
C  C139  1  0.91536441  0.80413854  0.13534269  1  -0.055439  0  -0.231754  -0.47198  0  3.936062  0
C  C140  1  0.92323344  0.95928477  0.65278991  1  -0.090715  0  -0.230945  -0.451652  0  3.931451  0
C  C141  1  0.57676561  0.45928812  0.84721148  1  -0.090521  0  -0.230865  -0.451431  0  3.931262  0
C  C142  1  0.07676650  0.04071796  0.34720950  1  -0.09086  0  -0.23091  -0.451476  0  3.93139  0
C  C143  1  0.42323434  0.54071381  0.15278915  1  -0.090649  0  -0.23089  -0.451479  0  3.931312  0
C  C144  1  0.95809172  0.87791261  0.59361583  1  0.991169  0  0.21048  0.381745  0  4.015921  0
C  C145  1  0.54190742  0.37791627  0.90638656  1  0.991051  0  0.210413  0.381693  0  4.015976  0
C  C146  1  0.04190822  0.12208932  0.40638359  1  0.991167  0  0.210509  0.381744  0  4.015852  0
C  C147  1  0.45809069  0.62208645  0.09361396  1  0.991187  0  0.210433  0.381713  0  4.015906  0
C  C148  1  0.94844153  0.74784984  0.50809925  1  1.016587  0  0.21847  0.349705  0  3.989871  0
C  C149  1  0.55155866  0.24785230  0.99190165  1  1.016599  0  0.218478  0.349716  0  3.989768  0
C  C150  1  0.05156207  0.25214809  0.49190098  1  1.01691  0  0.218469  0.349723  0  3.989732  0
C  C151  1  0.44844037  0.75214803  0.00809771  1  1.0169  0  0.218455  0.349704  0  3.989741  0
C  C152  1  0.90225790  0.66025472  0.45198065  1  0.052435  0  -0.137621  -0.333752  0  3.977189  0
C  C153  1  0.59774238  0.16025587  0.04801988  1  0.052428  0  -0.137616  -0.333707  0  3.977104  0
C  C154  1  0.09774296  0.33974321  0.54802003  1  0.052431  0  -0.137612  -0.333667  0  3.977078  0
C  C155  1  0.40225756  0.83974286  0.95198015  1  0.052414  0  -0.137621  -0.33377  0  3.977241  0
C  C156  1  0.83509785  0.57301261  0.49080446  1  0.969899  0  0.211008  0.33902  0  4.013014  0
C  C157  1  0.66490068  0.07301351  0.00919392  1  0.969915  0  0.21099  0.338977  0  4.013173  0
C  C158  1  0.16490209  0.42698772  0.50919557  1  0.970057  0  0.211044  0.339041  0  4.013042  0
C  C159  1  0.33509742  0.92698602  0.99080418  1  0.969907  0  0.211049  0.339027  0  4.013135  0
C  C160  1  0.70958734  0.49040887  0.56143959  1  0.930822  0  0.210692  0.376286  0  4.024143  0
C  C161  1  0.79040982  0.99041178  0.93855814  1  0.930866  0  0.210715  0.376442  0  4.024012  0
C  C162  1  0.29041351  0.50959065  0.43856048  1  0.930772  0  0.210692  0.376311  0  4.024123  0
C  C163  1  0.20958737  0.00958935  0.06144052  1  0.930798  0  0.210706  0.376339  0  4.024117  0
C  C164  1  0.61124778  0.46521219  0.61454836  1  -0.045943  0  -0.233202  -0.46621  0  3.936745  0
C  C165  1  0.88874941  0.96521315  0.88544870  1  -0.045907  0  -0.23321  -0.466122  0  3.936666  0
C  C166  1  0.38875400  0.53478814  0.38545297  1  -0.045955  0  -0.23325  -0.46631  0  3.936876  0
C  C167  1  0.11124869  0.03478798  0.11454940  1  -0.04598  0  -0.233155  -0.466142  0  3.936796  0
C  C168  1  0.60733476  0.72583497  0.28948332  1  -0.079728  0  -0.255007  -0.358249  0  3.96306  0
C  C169  1  0.89266726  0.22583655  0.21051444  1  -0.079718  0  -0.255035  -0.358335  0  3.963094  0
C  C170  1  0.39266702  0.27416616  0.71051741  1  -0.079817  0  -0.254996  -0.358221  0  3.963152  0
C  C171  1  0.10732992  0.77416378  0.78948300  1  -0.079588  0  -0.254987  -0.358154  0  3.963079  0
C  C172  1  0.68016836  0.82911432  0.30326995  1  -0.025236  0  -0.176439  -0.100977  0  3.96784  0
C  C173  1  0.81983174  0.32911512  0.19673162  1  -0.025235  0  -0.176449  -0.101055  0  3.968046  0
C  C174  1  0.31983159  0.17088761  0.69673068  1  -0.025037  0  -0.176428  -0.101022  0  3.967942  0
C  C175  1  0.18016363  0.67088361  0.80326936  1  -0.024743  0  -0.176507  -0.101079  0  3.968026  0
C  C176  1  0.64122192  0.91550126  0.24065939  1  0.004832  0  -0.178242  -0.106593  0  3.952752  0
C  C177  1  0.85877899  0.41550070  0.25934063  1  0.004804  0  -0.178209  -0.106449  0  3.952705  0
C  C178  1  0.35877711  0.08450067  0.75934179  1  0.005193  0  -0.178265  -0.106591  0  3.952745  0
C  C179  1  0.14121729  0.58449643  0.74065919  1  0.005013  0  -0.178293  -0.106464  0  3.952802  0
C  C180  1  0.69895171  0.02339394  0.26343164  1  0.015105  0  -0.250832  -0.353034  0  3.979825  0
C  C181  1  0.80104871  0.52339350  0.23656853  1  0.015242  0  -0.250867  -0.353085  0  3.979783  0
C  C182  1  0.30104640  0.97660799  0.73656768  1  0.015112  0  -0.250833  -0.353026  0  3.979827  0
C  C183  1  0.19895215  0.47660363  0.76343215  1  0.014802  0  -0.250843  -0.353102  0  3.979791  0
N  N184  1  0.88084063  0.79963488  0.56053760  1  -1.272628  0  -0.363917  -0.421731  0  3.418423  0
N  N185  1  0.61915677  0.29963861  0.93946388  1  -1.272579  0  -0.363875  -0.421687  0  3.41838  0
N  N186  1  0.11916115  0.20036385  0.43946313  1  -1.272715  0  -0.363936  -0.421735  0  3.418395  0
N  N187  1  0.38084135  0.70036252  0.06053604  1  -1.272635  0  -0.363875  -0.421716  0  3.41836  0
N  N188  1  0.06678298  0.87488351  0.56445320  1  -0.706292  0  -0.252554  -0.293869  0  3.122843  0
N  N189  1  0.43321478  0.37488609  0.93554934  1  -0.706546  0  -0.252574  -0.293899  0  3.122889  0
N  N190  1  0.93321697  0.12511681  0.43554743  1  -0.706248  0  -0.252557  -0.293848  0  3.122794  0
N  N191  1  0.56678425  0.62511664  0.06445124  1  -0.706455  0  -0.252597  -0.293945  0  3.122871  0
N  N192  1  0.06001475  0.79140425  0.50972276  1  -0.822252  0  -0.272475  -0.255441  0  3.579612  0
N  N193  1  0.43998492  0.29140547  0.99027906  1  -0.822106  0  -0.27246  -0.255451  0  3.579571  0
N  N194  1  0.93998702  0.20859608  0.49027797  1  -0.82256  0  -0.27248  -0.25549  0  3.579539  0
N  N195  1  0.56001411  0.70859646  0.00972152  1  -0.822444  0  -0.272431  -0.25538  0  3.579552  0
N  N196  1  0.74615870  0.59014588  0.54244898  1  -1.24543  0  -0.368624  -0.43207  0  3.437742  0
N  N197  1  0.75383890  0.09014795  0.95754893  1  -1.245449  0  -0.368671  -0.432157  0  3.437834  0
N  N198  1  0.25384216  0.40985445  0.45755170  1  -1.245508  0  -0.368627  -0.432104  0  3.437751  0
N  N199  1  0.24615920  0.90985318  0.04244978  1  -1.245426  0  -0.368651  -0.432088  0  3.437753  0
N  N200  1  0.85389013  0.47003720  0.47763175  1  -0.683762  0  -0.242951  -0.275556  0  3.182  0
N  N201  1  0.64610889  0.97003994  0.02236770  1  -0.683735  0  -0.242939  -0.27551  0  3.181992  0
N  N202  1  0.14611073  0.52996233  0.52236893  1  -0.683744  0  -0.242944  -0.275556  0  3.182025  0
N  N203  1  0.35388921  0.02996118  0.97763161  1  -0.683693  0  -0.242975  -0.275584  0  3.182074  0
N  N204  1  0.77366010  0.41740130  0.52331422  1  -0.80507  0  -0.274505  -0.281945  0  3.563376  0
N  N205  1  0.72633898  0.91740366  0.97668403  1  -0.804999  0  -0.274452  -0.281987  0  3.563211  0
N  N206  1  0.22634168  0.58259903  0.47668651  1  -0.805041  0  -0.274531  -0.281969  0  3.56338  0
N  N207  1  0.27365913  0.08259747  0.02331467  1  -0.804979  0  -0.274476  -0.281911  0  3.563374  0
N  N208  1  0.56576808  0.79779510  0.55724157  1  -0.835569  0  -0.27611  -0.284563  0  3.56514  0
N  N209  1  0.93423388  0.29779530  0.94275895  1  -0.835503  0  -0.276118  -0.284512  0  3.565155  0
N  N210  1  0.43423552  0.20220443  0.44275866  1  -0.835514  0  -0.276081  -0.284514  0  3.565158  0
N  N211  1  0.06576424  0.70220343  0.05724278  1  -0.835788  0  -0.276094  -0.284531  0  3.565195  0
N  N212  1  0.56018106  0.86233624  0.48916717  1  -0.712978  0  -0.241598  -0.274888  0  3.16778  0
N  N213  1  0.93982084  0.36233685  0.01083398  1  -0.713041  0  -0.241559  -0.274815  0  3.167859  0
N  N214  1  0.43982072  0.13766409  0.51083417  1  -0.713028  0  -0.241559  -0.274805  0  3.167886  0
N  N215  1  0.06018002  0.63766268  0.98916670  1  -0.713037  0  -0.241568  -0.274823  0  3.167797  0
N  N216  1  0.37190652  0.80495888  0.50905897  1  -1.274301  0  -0.37057  -0.426281  0  3.447604  0
N  N217  1  0.12809586  0.30495884  0.99094062  1  -1.274438  0  -0.370545  -0.426148  0  3.447581  0
N  N218  1  0.62809707  0.19503985  0.49094005  1  -1.274473  0  -0.370628  -0.426302  0  3.447568  0
N  N219  1  0.87190407  0.69504149  0.00905880  1  -1.274414  0  -0.370594  -0.426279  0  3.447538  0
N  N220  1  0.23536862  0.78231765  0.34961186  1  -1.259753  0  -0.370236  -0.442898  0  3.484292  0
N  N221  1  0.26463472  0.28231669  0.15039000  1  -1.260291  0  -0.370285  -0.442922  0  3.484366  0
N  N222  1  0.76463498  0.21768028  0.65038898  1  -1.260362  0  -0.370262  -0.442946  0  3.484349  0
N  N223  1  0.73536615  0.71768124  0.84961068  1  -1.260276  0  -0.370317  -0.442979  0  3.484337  0
N  N224  1  0.31852385  0.86760126  0.24885380  1  -0.715211  0  -0.243675  -0.282277  0  3.18465  0
N  N225  1  0.18147756  0.36760166  0.25114695  1  -0.715563  0  -0.24377  -0.282366  0  3.18479  0
N  N226  1  0.68147792  0.13239747  0.75114632  1  -0.7152  0  -0.243767  -0.28242  0  3.184804  0
N  N227  1  0.81852330  0.63239707  0.74885312  1  -0.715266  0  -0.243796  -0.282433  0  3.184764  0
N  N228  1  0.23876296  0.79018111  0.21657059  1  -0.824407  0  -0.271568  -0.274768  0  3.56098  0
N  N229  1  0.26123945  0.29018157  0.28343123  1  -0.824122  0  -0.271516  -0.274758  0  3.561075  0
N  N230  1  0.76123790  0.20981842  0.78343009  1  -0.824454  0  -0.271548  -0.274742  0  3.560967  0
N  N231  1  0.73876141  0.70981716  0.71656945  1  -0.824446  0  -0.271477  -0.274651  0  3.560902  0
