# generated using pymatgen
data_ZnH11C16(NO2)2
_symmetry_space_group_name_H-M   'P 1'
_cell_length_a   9.55939869
_cell_length_b   11.03973385
_cell_length_c   15.29675630
_cell_angle_alpha   89.64558483
_cell_angle_beta   89.96510026
_cell_angle_gamma   90.47759654
_symmetry_Int_Tables_number   1
_chemical_formula_structural   ZnH11C16(NO2)2
_chemical_formula_sum   'Zn2 H22 C32 N4 O8'
_cell_volume   1614.22858771
_cell_formula_units_Z   2
loop_
 _symmetry_equiv_pos_site_id
 _symmetry_equiv_pos_as_xyz
  1  'x, y, z'
loop_
 _atom_site_type_symbol
 _atom_site_label
 _atom_site_symmetry_multiplicity
 _atom_site_fract_x
 _atom_site_fract_y
 _atom_site_fract_z
 _atom_site_occupancy
 _atom_site_pbe_bader_charge
 _atom_site_pbe_bader_spin_density
 _atom_site_pbe_cm5_charge
 _atom_site_pbe_ddec_charge
 _atom_site_pbe_ddec_spin_density
 _atom_site_pbe_ddec_sum_bond_order
 _atom_site_pbe_magmom
Zn  Zn0  1  0.36078082  0.49473596  0.50043071  1  1.289164  0  0.661001  0.799251  0  2.468207  0
Zn  Zn1  1  0.64209108  0.49530278  0.49950000  1  1.266354  0  0.660906  0.799548  0  2.469277  0
H  H2  1  0.27966334  0.55654747  0.77528074  1  0.057053  0  0.095456  0.090518  0  1.05238  0
H  H3  1  0.69818988  0.43208141  0.22433462  1  0.05946  0  0.095576  0.091333  0  1.049088  0
H  H4  1  0.70555317  0.44348921  0.77908406  1  0.059171  0  0.099174  0.108087  0  1.009036  0
H  H5  1  0.26824059  0.53407563  0.22117559  1  0.103485  0  0.098974  0.107246  0  1.008766  0
H  H6  1  0.82209980  0.39325061  0.91691904  1  0.05151  0  0.09867  0.111113  0  1.027698  0
H  H7  1  0.14981705  0.58112066  0.08300022  1  0.049872  0  0.098199  0.110479  0  1.02874  0
H  H8  1  0.73740975  0.10850710  0.51435624  1  0.094745  0  0.101161  0.10447  0  1.006684  0
H  H9  1  0.28870672  0.88138654  0.48445301  1  0.087406  0  0.101405  0.104821  0  1.005617  0
H  H10  1  0.73552578  0.88080034  0.50941804  1  0.109255  0  0.100935  0.103889  0  1.007697  0
H  H11  1  0.29026546  0.10924224  0.49145092  1  0.084212  0  0.101273  0.103979  0  1.00578  0
H  H12  1  0.86789800  0.61486224  0.60474168  1  0.146197  0  0.141134  0.121633  0  0.958453  0
H  H13  1  0.13513021  0.37836460  0.39520596  1  0.154686  0  0.140304  0.122937  0  0.966666  0
H  H14  1  0.86546702  0.37996778  0.39449276  1  0.159592  0  0.139336  0.120112  0  0.962519  0
H  H15  1  0.13755733  0.60905946  0.60766952  1  0.146085  0  0.13858  0.120557  0  0.967917  0
H  H16  1  0.82937219  0.34773764  0.15217685  1  0.420019  0  0.304648  0.24287  0  0.972443  0
H  H17  1  0.04101855  0.28904983  0.09614934  1  0.035975  0  0.107155  0.116022  0  0.975638  0
H  H18  1  0.01651386  0.37657501  0.00028193  1  0.057714  0  0.100104  0.109539  0  1.010477  0
H  H19  1  0.92830272  0.23404517  0.01134212  1  0.033678  0  0.092956  0.092262  0  0.98794  0
H  H20  1  0.14322537  0.63152456  0.84830758  1  0.423683  0  0.304302  0.24321  0  0.973273  0
H  H21  1  0.93221081  0.68981882  0.90467302  1  0.047135  0  0.10751  0.116511  0  0.975905  0
H  H22  1  0.04340701  0.74186321  0.99113923  1  0.029938  0  0.09324  0.092884  0  0.988411  0
H  H23  1  0.95508202  0.59907585  0.99914755  1  0.058234  0  0.099816  0.10953  0  1.011809  0
C  C24  1  0.51571387  0.25738926  0.50496301  1  1.529855  0  0.21488  0.593541  0  4.163145  0
C  C25  1  0.51080433  0.73261486  0.49446119  1  1.564309  0  0.214843  0.593256  0  4.165142  0
C  C26  1  0.73252168  0.41393642  0.04464012  1  0.425013  0  0.094288  0.185663  0  4.099623  0
C  C27  1  0.24088660  0.56436642  0.95540326  1  0.433833  0  0.09446  0.18596  0  4.095463  0
C  C28  1  0.63975528  0.05774176  0.50805720  1  0.040092  0  -0.08681  -0.098363  0  3.98754  0
C  C29  1  0.38616225  0.93223873  0.49147692  1  -0.064522  0  -0.086123  -0.097227  0  3.986221  0
C  C30  1  0.63870935  0.93184063  0.50529058  1  -0.083523  0  -0.087485  -0.097809  0  3.98736  0
C  C31  1  0.38709355  0.05814777  0.49505220  1  0.074026  0  -0.086238  -0.096517  0  3.986403  0
C  C32  1  0.51191943  0.86822429  0.49680880  1  -0.082852  0  -0.014844  -0.0235  0  3.959809  0
C  C33  1  0.51387542  0.12175208  0.50307051  1  -0.099931  0  -0.01504  -0.022866  0  3.95949  0
C  C34  1  0.92927113  0.56214442  0.55870554  1  0.480885  0  0.080616  0.06301  0  3.864518  0
C  C35  1  0.07351099  0.42940035  0.44207450  1  0.603961  0  0.080198  0.062971  0  3.864577  0
C  C36  1  0.92798773  0.43125054  0.44119869  1  0.451003  0  0.080152  0.061404  0  3.869618  0
C  C37  1  0.07478125  0.55938690  0.56018495  1  0.553235  0  0.07995  0.060925  0  3.86601  0
C  C38  1  0.48463526  0.48258528  0.32813713  1  1.51454  0  0.21506  0.601378  0  4.149668  0
C  C39  1  0.49399941  0.50456603  0.67187286  1  1.514782  0  0.214942  0.600155  0  4.15086  0
C  C40  1  0.37030488  0.53295403  0.81481282  1  -0.023231  0  -0.100949  -0.165519  0  3.987914  0
C  C41  1  0.60591169  0.45140460  0.18506536  1  -0.048767  0  -0.099922  -0.165807  0  3.991511  0
C  C42  1  0.49264026  0.50264493  0.76970222  1  -0.02141  0  -0.025958  -0.027821  0  4.023958  0
C  C43  1  0.48363997  0.48082531  0.23034413  1  -0.013157  0  -0.025591  -0.026495  0  4.025298  0
C  C44  1  0.61190804  0.46768003  0.81554767  1  0.00876  0  -0.092217  -0.156155  0  3.944563  0
C  C45  1  0.36234466  0.51114303  0.18468305  1  -0.021917  0  -0.092196  -0.158144  0  3.942809  0
C  C46  1  0.61109823  0.46056007  0.90725550  1  -0.03546  0  -0.010531  0.098769  0  4.076872  0
C  C47  1  0.36215970  0.51693380  0.09286571  1  -0.036831  0  -0.010765  0.099475  0  4.076086  0
C  C48  1  0.48662089  0.49248813  0.95355143  1  0.08499  0  -0.005976  -0.003667  0  3.940833  0
C  C49  1  0.48672732  0.48570800  0.04641695  1  -0.0262  0  -0.006056  -0.004853  0  3.942411  0
C  C50  1  0.36523638  0.53022515  0.90638165  1  -0.031026  0  -0.011697  -0.004172  0  4.002466  0
C  C51  1  0.60897830  0.45000993  0.09351660  1  -0.011547  0  -0.012372  -0.003214  0  4.006373  0
C  C52  1  0.73073027  0.42012863  0.95449918  1  -0.055135  0  -0.122903  -0.289609  0  4.008234  0
C  C53  1  0.24200671  0.55602409  0.04553278  1  -0.051885  0  -0.123453  -0.289984  0  4.006481  0
C  C54  1  0.96349764  0.31560164  0.04701789  1  0.308931  0  -0.135978  -0.211573  0  3.991963  0
C  C55  1  0.00893271  0.66154208  0.95380935  1  0.301941  0  -0.136166  -0.212368  0  3.991675  0
N  N56  1  0.14493297  0.49325405  0.50175259  1  -1.26229  0  -0.291713  -0.135716  0  3.49768  0
N  N57  1  0.85783194  0.49779902  0.49931984  1  -1.208712  0  -0.291697  -0.134983  0  3.501156  0
N  N58  1  0.84907042  0.37647468  0.09038467  1  -1.20377  0  -0.453246  -0.299323  0  3.603999  0
N  N59  1  0.12419762  0.60232199  0.91003968  1  -1.201659  0  -0.452853  -0.299011  0  3.603404  0
O  O60  1  0.39858283  0.31106099  0.51170775  1  -1.165869  0  -0.320378  -0.552053  0  2.310943  0
O  O61  1  0.62870362  0.67992474  0.50089675  1  -1.159593  0  -0.322202  -0.552166  0  2.327909  0
O  O62  1  0.39270081  0.67942786  0.48675180  1  -1.157559  0  -0.319923  -0.549269  0  2.314616  0
O  O63  1  0.63488522  0.30956726  0.49910238  1  -1.161327  0  -0.321988  -0.550833  0  2.325153  0
O  O64  1  0.36641701  0.47750857  0.36690268  1  -1.172064  0  -0.321917  -0.555353  0  2.33006  0
O  O65  1  0.61162803  0.49300967  0.63358928  1  -1.173184  0  -0.319952  -0.553381  0  2.317379  0
O  O66  1  0.37644617  0.51664212  0.63313409  1  -1.173274  0  -0.324225  -0.556647  0  2.32869  0
O  O67  1  0.60321695  0.48985815  0.36614752  1  -1.168088  0  -0.321839  -0.554915  0  2.3088  0
