# generated using pymatgen
data_BiH5(C3Br)2
_symmetry_space_group_name_H-M   'P 1'
_cell_length_a   7.81869046
_cell_length_b   8.79575877
_cell_length_c   13.07150797
_cell_angle_alpha   109.67113764
_cell_angle_beta   89.99772778
_cell_angle_gamma   90.00070616
_symmetry_Int_Tables_number   1
_chemical_formula_structural   BiH5(C3Br)2
_chemical_formula_sum   'Bi4 H20 C24 Br8'
_cell_volume   846.48258681
_cell_formula_units_Z   4
loop_
 _symmetry_equiv_pos_site_id
 _symmetry_equiv_pos_as_xyz
  1  'x, y, z'
loop_
 _atom_site_type_symbol
 _atom_site_label
 _atom_site_symmetry_multiplicity
 _atom_site_fract_x
 _atom_site_fract_y
 _atom_site_fract_z
 _atom_site_occupancy
 _atom_site_hle17_bader_spin_density
 _atom_site_hle17_ddec_charge
 _atom_site_hle17_ddec_spin_density
 _atom_site_hle17_ddec_sum_bond_order
 _atom_site_hle17_magmom
 _atom_site_hse06_10hf_bader_spin_density
 _atom_site_hse06_10hf_ddec_charge
 _atom_site_hse06_10hf_ddec_spin_density
 _atom_site_hse06_10hf_ddec_sum_bond_order
 _atom_site_hse06_10hf_magmom
 _atom_site_hse06_bader_spin_density
 _atom_site_hse06_ddec_charge
 _atom_site_hse06_ddec_spin_density
 _atom_site_hse06_ddec_sum_bond_order
 _atom_site_hse06_magmom
 _atom_site_pbe_bader_spin_density
 _atom_site_pbe_cm5_charge
 _atom_site_pbe_ddec_charge
 _atom_site_pbe_ddec_spin_density
 _atom_site_pbe_ddec_sum_bond_order
 _atom_site_pbe_magmom
Bi  Bi0  1  0.75002863  0.19372170  0.15735814  1  0  0.917036  0  2.474732  0  0  0.750727  0  2.96893  0  0  0.799841  0  2.942903  0  0  0.437938  0.716507  0  2.986632  0
Bi  Bi1  1  0.24999649  0.80627740  0.84263483  1  0  0.916976  0  2.474709  0  0  0.750639  0  2.968923  0  0  0.799739  0  2.942922  0  0  0.43792  0.716395  0  2.986675  0
Bi  Bi2  1  0.25000675  0.96370732  0.15749305  1  0  0.915905  0  2.48025  0  0  0.749405  0  2.975472  0  0  0.798276  0  2.94957  0  0  0.436198  0.715339  0  2.993079  0
Bi  Bi3  1  0.74998640  0.03628940  0.84250626  1  0  0.91596  0  2.480171  0  0  0.749466  0  2.975377  0  0  0.798338  0  2.949472  0  0  0.436225  0.715375  0  2.99304  0
H  H4  1  0.74999948  0.44206948  0.40555070  1  0  0.075104  0  0.97501  0  0  0.088648  0  1.038353  0  0  0.091205  0  1.036895  0  0  0.085694  0.086748  0  1.039549  0
H  H5  1  0.24999751  0.55791996  0.59443856  1  0  0.075128  0  0.97493  0  0  0.08866  0  1.038297  0  0  0.091216  0  1.036842  0  0  0.08571  0.086762  0  1.03949  0
H  H6  1  0.25000393  0.96323723  0.40558112  1  0  0.075416  0  0.975774  0  0  0.088978  0  1.038956  0  0  0.091403  0  1.03765  0  0  0.085888  0.087167  0  1.040047  0
H  H7  1  0.74999433  0.03676677  0.59442901  1  0  0.075465  0  0.975508  0  0  0.088999  0  1.038747  0  0  0.091426  0  1.037441  0  0  0.085834  0.087186  0  1.039839  0
H  H8  1  0.75001134  0.73600903  0.50136559  1  0  0.071631  0  0.988899  0  0  0.079542  0  1.061374  0  0  0.082774  0  1.059164  0  0  0.079738  0.077112  0  1.063236  0
H  H9  1  0.24999588  0.26397441  0.49863073  1  0  0.071626  0  0.988866  0  0  0.079544  0  1.061349  0  0  0.082776  0  1.059139  0  0  0.079718  0.077116  0  1.063209  0
H  H10  1  0.24999560  0.76511843  0.50123518  1  0  0.072563  0  0.989031  0  0  0.080607  0  1.060937  0  0  0.083838  0  1.058769  0  0  0.079889  0.078139  0  1.062797  0
H  H11  1  0.74999627  0.23488916  0.49876811  1  0  0.072438  0  0.988822  0  0  0.080471  0  1.060791  0  0  0.083707  0  1.058623  0  0  0.079828  0.078007  0  1.06265  0
H  H12  1  0.75000970  0.92620506  0.39577309  1  0  0.078154  0  0.972051  0  0  0.087466  0  1.038871  0  0  0.090527  0  1.036596  0  0  0.088161  0.085252  0  1.040554  0
H  H13  1  0.24999623  0.07378684  0.60422744  1  0  0.078172  0  0.971989  0  0  0.087392  0  1.038895  0  0  0.090446  0  1.036632  0  0  0.088139  0.085179  0  1.040577  0
H  H14  1  0.24999554  0.46937940  0.39570337  1  0  0.077677  0  0.972784  0  0  0.087287  0  1.039266  0  0  0.090287  0  1.037017  0  0  0.088413  0.085132  0  1.040892  0
H  H15  1  0.75000144  0.53063666  0.60430718  1  0  0.077763  0  0.972579  0  0  0.087325  0  1.03911  0  0  0.090323  0  1.036863  0  0  0.088446  0.08517  0  1.040735  0
H  H16  1  0.74999618  0.81800212  0.19421572  1  0  0.059727  0  1.000647  0  0  0.066778  0  1.078963  0  0  0.0695  0  1.077677  0  0  0.072749  0.064679  0  1.080273  0
H  H17  1  0.24999953  0.18200182  0.80577987  1  0  0.05974  0  1.000692  0  0  0.066801  0  1.078972  0  0  0.069525  0  1.077676  0  0  0.072773  0.064702  0  1.080284  0
H  H18  1  0.24999492  0.37588180  0.19393759  1  0  0.059675  0  1.000472  0  0  0.066928  0  1.07819  0  0  0.069683  0  1.076857  0  0  0.072603  0.064724  0  1.079608  0
H  H19  1  0.75000334  0.62412458  0.80606543  1  0  0.059676  0  1.000475  0  0  0.066954  0  1.078177  0  0  0.069711  0  1.076837  0  0  0.072632  0.064749  0  1.079598  0
H  H20  1  0.74998948  0.52471514  0.09701460  1  0  0.076161  0  0.975291  0  0  0.085269  0  1.04739  0  0  0.088685  0  1.044252  0  0  0.078757  0.082775  0  1.049732  0
H  H21  1  0.25000111  0.47528397  0.90297837  1  0  0.076272  0  0.975266  0  0  0.085366  0  1.04736  0  0  0.088785  0  1.04422  0  0  0.078789  0.082878  0  1.049694  0
H  H22  1  0.25000968  0.57201967  0.09692116  1  0  0.075972  0  0.975428  0  0  0.085011  0  1.047654  0  0  0.088434  0  1.044509  0  0  0.078475  0.082495  0  1.05002  0
H  H23  1  0.74999626  0.42798551  0.90308312  1  0  0.075955  0  0.975388  0  0  0.085023  0  1.047595  0  0  0.088445  0  1.044452  0  0  0.078483  0.082511  0  1.049961  0
C  C24  1  0.75000861  0.46310853  0.24469285  1  0  -0.256122  0  3.695512  0  0  -0.193444  0  3.930942  0  0  -0.206823  0  3.966963  0  0  -0.117114  -0.184408  0  3.906464  0
C  C25  1  0.25000372  0.53688935  0.75529602  1  0  -0.255984  0  3.695427  0  0  -0.193285  0  3.930825  0  0  -0.20666  0  3.966847  0  0  -0.117102  -0.18425  0  3.906348  0
C  C26  1  0.25001415  0.78129946  0.24463272  1  0  -0.255008  0  3.692081  0  0  -0.192395  0  3.92744  0  0  -0.205659  0  3.963336  0  0  -0.116679  -0.183412  0  3.903027  0
C  C27  1  0.74998155  0.21870814  0.75537287  1  0  -0.255029  0  3.692031  0  0  -0.192447  0  3.927457  0  0  -0.205714  0  3.963356  0  0  -0.116679  -0.183463  0  3.903048  0
C  C28  1  0.75000797  0.52350083  0.35838888  1  0  -0.050534  0  3.810779  0  0  -0.071713  0  4.047503  0  0  -0.071491  0  4.072621  0  0  -0.102188  -0.071633  0  4.030327  0
C  C29  1  0.25000052  0.47648742  0.64160394  1  0  -0.050485  0  3.810862  0  0  -0.071651  0  4.04762  0  0  -0.071427  0  4.072739  0  0  -0.102104  -0.071569  0  4.03044  0
C  C30  1  0.25000579  0.83464753  0.35832069  1  0  -0.051978  0  3.813263  0  0  -0.073015  0  4.049787  0  0  -0.072706  0  4.074922  0  0  -0.103361  -0.072997  0  4.032582  0
C  C31  1  0.74998608  0.16536127  0.64168364  1  0  -0.05206  0  3.812904  0  0  -0.073065  0  4.049432  0  0  -0.072762  0  4.074573  0  0  -0.103335  -0.073045  0  4.032224  0
C  C32  1  0.75001000  0.68993298  0.41276015  1  0  -0.059555  0  3.747927  0  0  -0.067703  0  3.988466  0  0  -0.070814  0  4.009788  0  0  -0.095736  -0.065603  0  3.973938  0
C  C33  1  0.24999722  0.31005408  0.58723699  1  0  -0.059633  0  3.748072  0  0  -0.067814  0  3.988621  0  0  -0.070924  0  4.00994  0  0  -0.095812  -0.065712  0  3.97409  0
C  C34  1  0.24999684  0.72257358  0.41264575  1  0  -0.060501  0  3.752269  0  0  -0.068649  0  3.992541  0  0  -0.071736  0  4.013778  0  0  -0.095542  -0.066517  0  3.978114  0
C  C35  1  0.74999247  0.27743401  0.58735754  1  0  -0.060263  0  3.751915  0  0  -0.068398  0  3.992162  0  0  -0.07149  0  4.013397  0  0  -0.095409  -0.066268  0  3.977723  0
C  C36  1  0.75000882  0.79607698  0.35388801  1  0  -0.050945  0  3.7457  0  0  -0.063227  0  3.9854  0  0  -0.063497  0  4.005967  0  0  -0.090323  -0.062822  0  3.971255  0
C  C37  1  0.24999584  0.20391852  0.64610797  1  0  -0.051002  0  3.745815  0  0  -0.063196  0  3.985527  0  0  -0.063465  0  4.006093  0  0  -0.09031  -0.062792  0  3.971383  0
C  C38  1  0.24999497  0.55754057  0.35377511  1  0  -0.050385  0  3.747844  0  0  -0.063141  0  3.987465  0  0  -0.063325  0  4.008025  0  0  -0.090962  -0.062795  0  3.97331  0
C  C39  1  0.75000074  0.44246823  0.64622999  1  0  -0.05066  0  3.74749  0  0  -0.063373  0  3.987172  0  0  -0.063558  0  4.007729  0  0  -0.091139  -0.063025  0  3.973015  0
C  C40  1  0.75000433  0.73566688  0.24061562  1  0  -0.059298  0  3.757296  0  0  -0.068613  0  3.999922  0  0  -0.07196  0  4.022479  0  0  -0.100435  -0.066382  0  3.984633  0
C  C41  1  0.24999650  0.26433225  0.75938347  1  0  -0.059217  0  3.757283  0  0  -0.068521  0  3.999857  0  0  -0.071865  0  4.022412  0  0  -0.100427  -0.066292  0  3.984577  0
C  C42  1  0.24999692  0.50460532  0.24049066  1  0  -0.060967  0  3.756867  0  0  -0.07044  0  3.999821  0  0  -0.073811  0  4.022353  0  0  -0.100949  -0.068125  0  3.984587  0
C  C43  1  0.75000006  0.49539986  0.75951362  1  0  -0.060831  0  3.756652  0  0  -0.070327  0  3.999609  0  0  -0.073696  0  4.022135  0  0  -0.100877  -0.068009  0  3.984378  0
C  C44  1  0.75000488  0.56943637  0.18561116  1  0  -0.042717  0  3.794269  0  0  -0.062448  0  4.031547  0  0  -0.061882  0  4.055833  0  0  -0.103748  -0.062553  0  4.014878  0
C  C45  1  0.25000362  0.43056395  0.81438361  1  0  -0.042935  0  3.794201  0  0  -0.062661  0  4.031496  0  0  -0.062097  0  4.05578  0  0  -0.103774  -0.062764  0  4.014827  0
C  C46  1  0.25000844  0.61586626  0.18551746  1  0  -0.041852  0  3.791953  0  0  -0.061671  0  4.029206  0  0  -0.061071  0  4.053425  0  0  -0.103256  -0.061795  0  4.012544  0
C  C47  1  0.74999238  0.38413893  0.81448758  1  0  -0.041855  0  3.792026  0  0  -0.061697  0  4.029275  0  0  -0.061094  0  4.053494  0  0  -0.103273  -0.061821  0  4.012617  0
Br  Br48  1  0.50005832  0.15415155  0.31013109  1  0  -0.352609  0  1.114712  0  0  -0.292386  0  1.409378  0  0  -0.313567  0  1.395842  0  0  -0.10219  -0.277262  0  1.419052  0
Br  Br49  1  0.00005828  0.84584690  0.68987399  1  0  -0.35257  0  1.114823  0  0  -0.292309  0  1.409429  0  0  -0.313486  0  1.39589  0  0  -0.102146  -0.27717  0  1.419098  0
Br  Br50  1  0.49992843  0.84586204  0.68986208  1  0  -0.352554  0  1.114791  0  0  -0.292344  0  1.409466  0  0  -0.313521  0  1.395929  0  0  -0.102144  -0.277212  0  1.419148  0
Br  Br51  1  0.99992080  0.15413415  0.31013021  1  0  -0.352521  0  1.114781  0  0  -0.292327  0  1.409516  0  0  -0.313506  0  1.395981  0  0  -0.10215  -0.277205  0  1.419192  0
Br  Br52  1  0.49867341  0.22822316  0.99990497  1  0  -0.40508  0  1.126642  0  0  -0.337809  0  1.422473  0  0  -0.361374  0  1.411189  0  0  -0.129995  -0.321343  0  1.431012  0
Br  Br53  1  0.99868564  0.77178514  0.00010002  1  0  -0.405032  0  1.126817  0  0  -0.337764  0  1.42268  0  0  -0.361326  0  1.411396  0  0  -0.129948  -0.32131  0  1.431235  0
Br  Br54  1  0.50132869  0.77178685  0.00009963  1  0  -0.405043  0  1.126674  0  0  -0.337761  0  1.4225  0  0  -0.361326  0  1.411221  0  0  -0.129971  -0.321298  0  1.431038  0
Br  Br55  1  0.00132926  0.22819711  0.99990139  1  0  -0.404963  0  1.126775  0  0  -0.337694  0  1.422642  0  0  -0.361255  0  1.411354  0  0  -0.129921  -0.321244  0  1.431205  0
