# generated using pymatgen
data_CdH16C22(NO2)2
_symmetry_space_group_name_H-M   'P 1'
_cell_length_a   8.90148822
_cell_length_b   10.32012173
_cell_length_c   13.11659745
_cell_angle_alpha   99.62286601
_cell_angle_beta   93.71262515
_cell_angle_gamma   111.80436155
_symmetry_Int_Tables_number   1
_chemical_formula_structural   CdH16C22(NO2)2
_chemical_formula_sum   'Cd2 H32 C44 N4 O8'
_cell_volume   1092.36203235
_cell_formula_units_Z   2
loop_
 _symmetry_equiv_pos_site_id
 _symmetry_equiv_pos_as_xyz
  1  'x, y, z'
loop_
 _atom_site_type_symbol
 _atom_site_label
 _atom_site_symmetry_multiplicity
 _atom_site_fract_x
 _atom_site_fract_y
 _atom_site_fract_z
 _atom_site_occupancy
 _atom_site_hle17_bader_spin_density
 _atom_site_hle17_ddec_charge
 _atom_site_hle17_ddec_spin_density
 _atom_site_hle17_ddec_sum_bond_order
 _atom_site_hle17_magmom
 _atom_site_hse06_10hf_bader_spin_density
 _atom_site_hse06_10hf_ddec_charge
 _atom_site_hse06_10hf_ddec_spin_density
 _atom_site_hse06_10hf_ddec_sum_bond_order
 _atom_site_hse06_10hf_magmom
 _atom_site_hse06_bader_spin_density
 _atom_site_hse06_ddec_charge
 _atom_site_hse06_ddec_spin_density
 _atom_site_hse06_ddec_sum_bond_order
 _atom_site_hse06_magmom
 _atom_site_pbe_bader_spin_density
 _atom_site_pbe_cm5_charge
 _atom_site_pbe_ddec_charge
 _atom_site_pbe_ddec_spin_density
 _atom_site_pbe_ddec_sum_bond_order
 _atom_site_pbe_magmom
Cd  Cd0  1  0.81410622  0.39261475  0.37787452  1  0  1.123688  0  1.698243  0  0  0.928233  0  2.152543  0  0  0.988242  0  2.098525  0  0  0.775716  0.885613  0  2.189739  0
Cd  Cd1  1  0.18588847  0.60738028  0.62212268  1  0  1.123627  0  1.698304  0  0  0.928182  0  2.152599  0  0  0.988193  0  2.09858  0  0  0.775678  0.885563  0  2.189813  0
H  H2  1  0.66713372  0.55130285  0.53757920  1  0  0.077637  0  0.95465  0  0  0.088103  0  1.01448  0  0  0.089833  0  1.013465  0  0  0.115641  0.086826  0  1.015282  0
H  H3  1  0.33286382  0.44870386  0.46242203  1  0  0.077617  0  0.954631  0  0  0.088087  0  1.014463  0  0  0.089816  0  1.013447  0  0  0.115634  0.086813  0  1.015268  0
H  H4  1  0.53397966  0.53595282  0.69701063  1  0  0.121438  0  0.952528  0  0  0.132375  0  1.010974  0  0  0.135746  0  1.009528  0  0  0.112087  0.129885  0  1.012272  0
H  H5  1  0.46601696  0.46405177  0.30298950  1  0  0.121294  0  0.952651  0  0  0.132324  0  1.01101  0  0  0.135694  0  1.009565  0  0  0.112072  0.129834  0  1.0123  0
H  H6  1  0.51731412  0.10586598  0.66604980  1  0  0.114534  0  0.94097  0  0  0.125886  0  0.997021  0  0  0.129273  0  0.996315  0  0  0.108664  0.123387  0  0.99778  0
H  H7  1  0.48268410  0.89413969  0.33394978  1  0  0.114512  0  0.940988  0  0  0.125853  0  0.99705  0  0  0.129239  0  0.996345  0  0  0.10866  0.123357  0  0.997806  0
H  H8  1  0.65223236  0.14031345  0.50528640  1  0  0.078125  0  0.93539  0  0  0.088796  0  0.996672  0  0  0.09053  0  0.995628  0  0  0.116314  0.087271  0  0.997866  0
H  H9  1  0.34776766  0.85969119  0.49471236  1  0  0.078156  0  0.935391  0  0  0.088794  0  0.99671  0  0  0.090528  0  0.995667  0  0  0.1163  0.087256  0  0.997913  0
H  H10  1  0.41374219  0.19963001  0.81463213  1  0  0.087106  0  0.966571  0  0  0.097679  0  1.031197  0  0  0.099882  0  1.031491  0  0  0.098814  0.09624  0  1.030834  0
H  H11  1  0.58625916  0.80037253  0.18536488  1  0  0.087087  0  0.966636  0  0  0.09765  0  1.03127  0  0  0.099853  0  1.031564  0  0  0.09879  0.096209  0  1.030905  0
H  H12  1  0.40800042  0.49926895  0.82120540  1  0  0.110595  0  0.960645  0  0  0.123292  0  1.018937  0  0  0.126418  0  1.016555  0  0  0.108826  0.120979  0  1.020787  0
H  H13  1  0.59199930  0.50073245  0.17879596  1  0  0.110601  0  0.960642  0  0  0.12329  0  1.018942  0  0  0.12642  0  1.016551  0  0  0.10882  0.120969  0  1.020808  0
H  H14  1  0.27707308  0.27252943  0.95668807  1  0  0.076271  0  0.963296  0  0  0.092517  0  1.019057  0  0  0.094189  0  1.01876  0  0  0.100319  0.091137  0  1.019604  0
H  H15  1  0.72292617  0.72747090  0.04331311  1  0  0.076272  0  0.963291  0  0  0.092515  0  1.019056  0  0  0.094188  0  1.018759  0  0  0.100322  0.091136  0  1.019601  0
H  H16  1  0.28370165  0.57458820  0.96209494  1  0  0.103824  0  0.934461  0  0  0.115278  0  0.99384  0  0  0.118136  0  0.993435  0  0  0.106589  0.113062  0  0.994497  0
H  H17  1  0.71630257  0.42541320  0.03790890  1  0  0.103826  0  0.934435  0  0  0.115232  0  0.993882  0  0  0.118084  0  0.993493  0  0  0.106564  0.11302  0  0.994543  0
H  H18  1  0.15364528  0.24494894  0.09002783  1  0  0.098693  0  0.956641  0  0  0.112298  0  1.011332  0  0  0.11519  0  1.010442  0  0  0.105476  0.110244  0  1.012111  0
H  H19  1  0.84635716  0.75505352  0.90997532  1  0  0.098764  0  0.956659  0  0  0.112347  0  1.011369  0  0  0.115238  0  1.01048  0  0  0.105491  0.110295  0  1.01215  0
H  H20  1  0.00405777  0.23556804  0.24318746  1  0  0.083797  0  0.938389  0  0  0.093982  0  0.998708  0  0  0.096296  0  0.996599  0  0  0.11796  0.092225  0  1.000307  0
H  H21  1  0.99594532  0.76443334  0.75681709  1  0  0.083759  0  0.938441  0  0  0.093966  0  0.998741  0  0  0.096281  0  0.996631  0  0  0.117929  0.09221  0  1.000339  0
H  H22  1  0.00014074  0.63581582  0.24823499  1  0  0.086356  0  0.942334  0  0  0.095756  0  1.001982  0  0  0.098187  0  1.000168  0  0  0.117244  0.093911  0  1.003343  0
H  H23  1  0.99986395  0.36418665  0.75176902  1  0  0.086318  0  0.942402  0  0  0.095747  0  1.002014  0  0  0.098183  0  1.000183  0  0  0.117235  0.093899  0  1.003381  0
H  H24  1  0.15779442  0.66694846  0.09656889  1  0  0.107184  0  0.932531  0  0  0.121452  0  0.98376  0  0  0.124529  0  0.983578  0  0  0.109705  0.11932  0  0.983939  0
H  H25  1  0.84221234  0.33305616  0.90343474  1  0  0.107243  0  0.932507  0  0  0.12153  0  0.983701  0  0  0.124604  0  0.983523  0  0  0.109751  0.1194  0  0.983883  0
H  H26  1  0.12423163  0.89863074  0.62507992  1  0  0.109012  0  0.987348  0  0  0.11516  0  1.057546  0  0  0.119383  0  1.053659  0  0  0.098822  0.112033  0  1.060508  0
H  H27  1  0.87574671  0.10136299  0.37492629  1  0  0.10899  0  0.987361  0  0  0.115108  0  1.057596  0  0  0.11934  0  1.053708  0  0  0.098831  0.111979  0  1.060564  0
H  H28  1  0.81481946  0.83982812  0.34115506  1  0  0.092314  0  0.988874  0  0  0.099642  0  1.055577  0  0  0.102653  0  1.054688  0  0  0.094863  0.097461  0  1.056288  0
H  H29  1  0.18515889  0.16016563  0.65884962  1  0  0.092321  0  0.988965  0  0  0.099648  0  1.055663  0  0  0.102659  0  1.054776  0  0  0.094861  0.097469  0  1.056374  0
H  H30  1  0.37067976  0.16656139  0.06839396  1  0  0.089568  0  0.967627  0  0  0.097101  0  1.035123  0  0  0.101068  0  1.031993  0  0  0.096586  0.094055  0  1.037865  0
H  H31  1  0.62933236  0.83343489  0.93159885  1  0  0.089623  0  0.967787  0  0  0.097216  0  1.035209  0  0  0.101186  0  1.032075  0  0  0.096617  0.094189  0  1.037928  0
H  H32  1  0.73224351  0.99223271  0.11132280  1  0  0.093855  0  0.950895  0  0  0.103485  0  1.012774  0  0  0.107322  0  1.009977  0  0  0.100447  0.100832  0  1.014596  0
H  H33  1  0.26776928  0.00776251  0.88866989  1  0  0.093886  0  0.950877  0  0  0.103481  0  1.012788  0  0  0.107313  0  1.009992  0  0  0.100445  0.100828  0  1.01461  0
C  C34  1  0.63211839  0.45444971  0.56868951  1  0  0.129  0  3.732983  0  0  0.09726  0  3.9871  0  0  0.104797  0  4.006331  0  0  0.041597  0.092333  0  3.974077  0
C  C35  1  0.36787710  0.54555487  0.43131057  1  0  0.129004  0  3.732913  0  0  0.097245  0  3.987073  0  0  0.104785  0  4.006294  0  0  0.041582  0.092314  0  3.974061  0
C  C36  1  0.55862190  0.44537521  0.65840209  1  0  -0.146176  0  3.66421  0  0  -0.165574  0  3.913033  0  0  -0.173464  0  3.933455  0  0  -0.077363  -0.160375  0  3.899408  0
C  C37  1  0.44137452  0.55463151  0.34159832  1  0  -0.145893  0  3.664171  0  0  -0.16536  0  3.912932  0  0  -0.173251  0  3.933359  0  0  -0.077226  -0.160153  0  3.899287  0
C  C38  1  0.51592857  0.31899168  0.69722965  1  0  0.144587  0  3.801981  0  0  0.157278  0  4.036837  0  0  0.164408  0  4.05894  0  0  0.010984  0.152728  0  4.021662  0
C  C39  1  0.48406965  0.68101399  0.30276994  1  0  0.14446  0  3.802162  0  0  0.157177  0  4.037005  0  0  0.164303  0  4.059117  0  0  0.01092  0.152627  0  4.021825  0
C  C40  1  0.55035210  0.20700992  0.64035511  1  0  -0.173345  0  3.696433  0  0  -0.188774  0  3.939894  0  0  -0.198162  0  3.961415  0  0  -0.083467  -0.182692  0  3.925456  0
C  C41  1  0.44964725  0.79299577  0.35964377  1  0  -0.173315  0  3.696545  0  0  -0.188759  0  3.940008  0  0  -0.198145  0  3.96153  0  0  -0.083482  -0.182684  0  3.925569  0
C  C42  1  0.62382177  0.22502659  0.55063476  1  0  0.124272  0  3.739472  0  0  0.094057  0  3.987949  0  0  0.101855  0  4.007862  0  0  0.041647  0.089116  0  3.974341  0
C  C43  1  0.37617872  0.77497912  0.44936341  1  0  0.124256  0  3.73941  0  0  0.094077  0  3.987869  0  0  0.101871  0  4.00778  0  0  0.041671  0.089156  0  3.974261  0
C  C44  1  0.43638095  0.30056017  0.78984084  1  0  -0.118526  0  3.701008  0  0  -0.137086  0  3.952911  0  0  -0.143854  0  3.974613  0  0  -0.082301  -0.132615  0  3.937985  0
C  C45  1  0.56361633  0.69944337  0.21015841  1  0  -0.118497  0  3.70109  0  0  -0.137056  0  3.952977  0  0  -0.143825  0  3.974682  0  0  -0.082296  -0.132576  0  3.938037  0
C  C46  1  0.38667207  0.39780857  0.84467475  1  0  -0.033631  0  3.744905  0  0  -0.052308  0  3.998974  0  0  -0.051418  0  4.019235  0  0  -0.075436  -0.052725  0  3.985207  0
C  C47  1  0.61332540  0.60219282  0.15532650  1  0  -0.033665  0  3.744888  0  0  -0.052341  0  3.998959  0  0  -0.051451  0  4.019225  0  0  -0.075443  -0.052757  0  3.985179  0
C  C48  1  0.30264894  0.37467360  0.93332903  1  0  -0.04918  0  3.773167  0  0  -0.063797  0  4.021972  0  0  -0.065363  0  4.04491  0  0  -0.080405  -0.062686  0  4.00647  0
C  C49  1  0.69735258  0.62532676  0.06667149  1  0  -0.049154  0  3.773105  0  0  -0.063767  0  4.02189  0  0  -0.065332  0  4.044825  0  0  -0.080403  -0.062657  0  4.006388  0
C  C50  1  0.25522595  0.47365878  0.98787274  1  0  -0.117635  0  3.71833  0  0  -0.137562  0  3.972125  0  0  -0.142543  0  3.994702  0  0  -0.081485  -0.134036  0  3.956692  0
C  C51  1  0.74477941  0.52634264  0.01213039  1  0  -0.11762  0  3.71829  0  0  -0.137515  0  3.972083  0  0  -0.1425  0  3.994659  0  0  -0.081449  -0.133998  0  3.956663  0
C  C52  1  0.16901768  0.45796998  0.07803907  1  0  0.133258  0  3.828222  0  0  0.145652  0  4.064441  0  0  0.1521  0  4.087077  0  0  0.00505  0.141613  0  4.048698  0
C  C53  1  0.83098835  0.54203040  0.92196318  1  0  0.133372  0  3.828269  0  0  0.145782  0  4.064431  0  0  0.15223  0  4.087061  0  0  0.005114  0.141746  0  4.048692  0
C  C54  1  0.12377100  0.33540956  0.12204270  1  0  -0.168752  0  3.709599  0  0  -0.182488  0  3.950221  0  0  -0.191072  0  3.971876  0  0  -0.084835  -0.176942  0  3.935603  0
C  C55  1  0.87623783  0.66459722  0.87795980  1  0  -0.168914  0  3.709554  0  0  -0.182635  0  3.950169  0  0  -0.191216  0  3.971821  0  0  -0.084915  -0.177092  0  3.935555  0
C  C56  1  0.03999074  0.32889577  0.20765653  1  0  0.126404  0  3.737723  0  0  0.095463  0  3.989498  0  0  0.102559  0  4.009557  0  0  0.042521  0.0909  0  3.975816  0
C  C57  1  0.96001262  0.67110882  0.79234771  1  0  0.126451  0  3.73774  0  0  0.09551  0  3.989513  0  0  0.102603  0  4.009573  0  0  0.042558  0.090947  0  3.975828  0
C  C58  1  0.03915628  0.55309411  0.21114064  1  0  0.132151  0  3.720483  0  0  0.101139  0  3.97415  0  0  0.109208  0  3.992707  0  0  0.046685  0.095964  0  3.961447  0
C  C59  1  0.96084890  0.44690948  0.78885973  1  0  0.132161  0  3.720434  0  0  0.101141  0  3.974109  0  0  0.109216  0  3.992665  0  0  0.046679  0.095966  0  3.961403  0
C  C60  1  0.12550535  0.56889780  0.12636750  1  0  -0.167708  0  3.711302  0  0  -0.184895  0  3.960885  0  0  -0.193388  0  3.981621  0  0  -0.082672  -0.179406  0  3.946795  0
C  C61  1  0.87450141  0.43110681  0.87363689  1  0  -0.16784  0  3.711325  0  0  -0.18505  0  3.960926  0  0  -0.193542  0  3.981658  0  0  -0.082722  -0.179564  0  3.946841  0
C  C62  1  0.06915566  0.94313622  0.57092692  1  0  -0.090376  0  3.74218  0  0  -0.112653  0  3.989139  0  0  -0.113985  0  4.008848  0  0  -0.093446  -0.11166  0  3.975978  0
C  C63  1  0.93081884  0.05685643  0.42907821  1  0  -0.090479  0  3.742014  0  0  -0.112733  0  3.988982  0  0  -0.114084  0  4.0087  0  0  -0.093541  -0.111735  0  3.97582  0
C  C64  1  0.96416197  0.85366059  0.48111483  1  0  -0.060485  0  3.772392  0  0  -0.037315  0  4.002678  0  0  -0.044323  0  4.02501  0  0  -0.021888  -0.032665  0  3.98745  0
C  C65  1  0.03581790  0.14632889  0.51889085  1  0  -0.060106  0  3.772218  0  0  -0.036947  0  4.00247  0  0  -0.043939  0  4.024785  0  0  -0.021734  -0.032295  0  3.987237  0
C  C66  1  0.89580405  0.91132519  0.41041728  1  0  -0.073692  0  3.744802  0  0  -0.095042  0  3.989283  0  0  -0.095722  0  4.009842  0  0  -0.090502  -0.094229  0  3.975159  0
C  C67  1  0.10417296  0.08867064  0.58959068  1  0  -0.073842  0  3.745029  0  0  -0.09519  0  3.989507  0  0  -0.095876  0  4.010058  0  0  -0.090549  -0.094378  0  3.975387  0
C  C68  1  0.92217720  0.69663300  0.46122387  1  0  0.636925  0  3.931438  0  0  0.585584  0  4.223733  0  0  0.621144  0  4.215075  0  0  0.197483  0.561655  0  4.228321  0
C  C69  1  0.07781203  0.30335986  0.53877355  1  0  0.636498  0  3.931737  0  0  0.585173  0  4.224045  0  0  0.620726  0  4.215394  0  0  0.19734  0.561238  0  4.228635  0
C  C70  1  0.42561324  0.09246121  0.03735819  1  0  -0.087013  0  3.763984  0  0  -0.10869  0  4.011831  0  0  -0.109954  0  4.031983  0  0  -0.091195  -0.107673  0  3.998593  0
C  C71  1  0.57439981  0.90753720  0.96263496  1  0  -0.087233  0  3.764172  0  0  -0.108972  0  4.012016  0  0  -0.110238  0  4.032169  0  0  -0.091254  -0.10797  0  3.998768  0
C  C72  1  0.55572199  0.08729809  0.10036560  1  0  -0.044478  0  3.750885  0  0  -0.020375  0  3.977754  0  0  -0.026233  0  3.999745  0  0  -0.018835  -0.016752  0  3.96298  0
C  C73  1  0.44429239  0.91269822  0.89962655  1  0  -0.044231  0  3.750699  0  0  -0.020099  0  3.977473  0  0  -0.025955  0  3.999459  0  0  -0.01872  -0.016482  0  3.962708  0
C  C74  1  0.63004074  0.99418442  0.06192185  1  0  -0.090009  0  3.769291  0  0  -0.113085  0  4.020984  0  0  -0.114082  0  4.04112  0  0  -0.09238  -0.112168  0  4.007207  0
C  C75  1  0.36997504  0.00581506  0.93807308  1  0  -0.090177  0  3.769179  0  0  -0.113222  0  4.020842  0  0  -0.11421  0  4.040965  0  0  -0.092436  -0.1123  0  4.007063  0
C  C76  1  0.61918772  0.18422994  0.20610990  1  0  0.619317  0  3.964784  0  0  0.573098  0  4.254608  0  0  0.607003  0  4.248434  0  0  0.184853  0.550056  0  4.257846  0
C  C77  1  0.38082101  0.81576630  0.79388428  1  0  0.619238  0  3.964907  0  0  0.573052  0  4.254675  0  0  0.606954  0  4.248499  0  0  0.184871  0.550012  0  4.257915  0
N  N78  1  0.66477487  0.34694622  0.51483211  1  0  -0.341103  0  3.2665  0  0  -0.26029  0  3.531363  0  0  -0.282112  0  3.550424  0  0  -0.333965  -0.245588  0  3.518112  0
N  N79  1  0.33522242  0.65305734  0.48516562  1  0  -0.341135  0  3.266357  0  0  -0.260328  0  3.531213  0  0  -0.282141  0  3.550263  0  0  -0.33399  -0.245635  0  3.517978  0
N  N80  1  0.99599174  0.43498507  0.25155407  1  0  -0.328417  0  3.226767  0  0  -0.251172  0  3.487338  0  0  -0.272002  0  3.507633  0  0  -0.327493  -0.237105  0  3.473374  0
N  N81  1  0.00401202  0.56501527  0.74844960  1  0  -0.328312  0  3.226766  0  0  -0.251122  0  3.48741  0  0  -0.271952  0  3.507703  0  0  -0.327453  -0.237052  0  3.473441  0
O  O82  1  0.97860718  0.64359315  0.52751482  1  0  -0.677886  0  2.091106  0  0  -0.613166  0  2.365255  0  0  -0.642755  0  2.352888  0  0  -0.33878  -0.592214  0  2.373462  0
O  O83  1  0.02138745  0.35639662  0.47247784  1  0  -0.677815  0  2.091214  0  0  -0.613099  0  2.365361  0  0  -0.642685  0  2.352996  0  0  -0.338793  -0.592146  0  2.373571  0
O  O84  1  0.82570055  0.62003354  0.37806994  1  0  -0.631591  0  2.002897  0  0  -0.565888  0  2.253099  0  0  -0.59486  0  2.244146  0  0  -0.322881  -0.545232  0  2.258179  0
O  O85  1  0.17429734  0.37996366  0.62192617  1  0  -0.631422  0  2.002941  0  0  -0.565709  0  2.253115  0  0  -0.594691  0  2.244187  0  0  -0.322818  -0.545049  0  2.258195  0
O  O86  1  0.59273206  0.29847020  0.22381636  1  0  -0.643879  0  1.93009  0  0  -0.59095  0  2.164992  0  0  -0.617201  0  2.154336  0  0  -0.337185  -0.572358  0  2.171665  0
O  O87  1  0.40726961  0.70152278  0.77617858  1  0  -0.643834  0  1.930238  0  0  -0.590928  0  2.165126  0  0  -0.617186  0  2.154493  0  0  -0.337171  -0.572335  0  2.171802  0
O  O88  1  0.70269741  0.14996203  0.27185673  1  0  -0.655935  0  1.956035  0  0  -0.599361  0  2.197541  0  0  -0.627359  0  2.187024  0  0  -0.338336  -0.579635  0  2.203664  0
O  O89  1  0.29731130  0.85003419  0.72813897  1  0  -0.655949  0  1.955955  0  0  -0.599393  0  2.197452  0  0  -0.627392  0  2.186941  0  0  -0.338385  -0.579667  0  2.203575  0
