# generated using pymatgen
data_ZnH11C23N3(O2F)2
_symmetry_space_group_name_H-M   'P 1'
_cell_length_a   21.58210566
_cell_length_b   21.59447987
_cell_length_c   21.55416428
_cell_angle_alpha   59.98069256
_cell_angle_beta   63.22809226
_cell_angle_gamma   89.99880912
_symmetry_Int_Tables_number   1
_chemical_formula_structural   ZnH11C23N3(O2F)2
_chemical_formula_sum   'Zn4 H44 C92 N12 O16 F8'
_cell_volume   7428.31839578
_cell_formula_units_Z   4
loop_
 _symmetry_equiv_pos_site_id
 _symmetry_equiv_pos_as_xyz
  1  'x, y, z'
loop_
 _atom_site_type_symbol
 _atom_site_label
 _atom_site_symmetry_multiplicity
 _atom_site_fract_x
 _atom_site_fract_y
 _atom_site_fract_z
 _atom_site_occupancy
 _atom_site_pbe_bader_charge
 _atom_site_pbe_bader_spin_density
 _atom_site_pbe_cm5_charge
 _atom_site_pbe_ddec_charge
 _atom_site_pbe_ddec_spin_density
 _atom_site_pbe_ddec_sum_bond_order
 _atom_site_pbe_magmom
Zn  Zn0  1  0.54136652  0.04688787  0.90951741  1  1.29387  0  0.673838  0.83194  0  2.392656  0
Zn  Zn1  1  0.45876428  0.95675169  0.09000379  1  1.291164  0  0.66994  0.830617  0  2.392589  0
Zn  Zn2  1  0.95857717  0.45645767  0.09053482  1  1.298884  0  0.673788  0.831829  0  2.392691  0
Zn  Zn3  1  0.04117197  0.54671678  0.90997701  1  1.287987  0  0.670046  0.830895  0  2.390954  0
H  H4  1  0.80845848  0.39136494  0.21933626  1  0.103942  0  0.126278  0.102818  0  0.970595  0
H  H5  1  0.72789295  0.31404556  0.37679988  1  0.092255  0  0.110955  0.125011  0  1.017813  0
H  H6  1  0.92172887  0.30628476  0.38952214  1  0.098915  0  0.117236  0.135532  0  0.987659  0
H  H7  1  0.57832222  0.19638242  0.61049753  1  0.100404  0  0.116959  0.134862  0  0.988234  0
H  H8  1  0.77212672  0.19043917  0.62328744  1  0.096158  0  0.111039  0.125361  0  1.017474  0
H  H9  1  0.69153233  0.11023321  0.78074309  1  0.114237  0  0.126623  0.103343  0  0.970683  0
H  H10  1  0.19124429  0.61083198  0.78096352  1  0.11508  0  0.126053  0.102573  0  0.97366  0
H  H11  1  0.27209914  0.69112084  0.62332127  1  0.092621  0  0.109212  0.123128  0  1.02137  0
H  H12  1  0.07845435  0.69558530  0.61025227  1  0.09711  0  0.115246  0.133291  0  0.990653  0
H  H13  1  0.42175257  0.80603978  0.38957806  1  0.095551  0  0.115641  0.133729  0  0.99035  0
H  H14  1  0.22797906  0.81434316  0.37676925  1  0.093029  0  0.108902  0.122552  0  1.021346  0
H  H15  1  0.30873507  0.89173292  0.21911939  1  0.119485  0  0.125976  0.102589  0  0.973493  0
H  H16  1  0.57770466  0.07441941  0.13114814  1  0.102007  0  0.104253  0.11535  0  1.006265  0
H  H17  1  0.61250189  0.10490027  0.21248368  1  0.096061  0  0.11294  0.140085  0  0.978598  0
H  H18  1  0.70329913  0.20635004  0.86213483  1  0.099968  0  0.107341  0.11921  0  1.008199  0
H  H19  1  0.92184843  0.42986691  0.86565267  1  0.076647  0  0.10211  0.108232  0  1.012284  0
H  H20  1  0.88864822  0.39816490  0.78434854  1  0.096919  0  0.110852  0.137766  0  0.982608  0
H  H21  1  0.80034365  0.29392548  0.13495324  1  0.100872  0  0.107453  0.119394  0  1.007743  0
H  H22  1  0.30150022  0.79263626  0.13488067  1  0.079131  0  0.10641  0.115684  0  1.000418  0
H  H23  1  0.19411395  0.68136315  0.21387576  1  0.078533  0  0.113069  0.141372  0  0.97995  0
H  H24  1  0.42136390  0.93079473  0.86566457  1  0.103582  0  0.103373  0.111286  0  1.020567  0
H  H25  1  0.20310799  0.70694751  0.86225231  1  0.082396  0  0.106237  0.115529  0  1.000553  0
H  H26  1  0.30922502  0.81962293  0.78320560  1  0.082226  0  0.11316  0.141007  0  0.978119  0
H  H27  1  0.07884784  0.57283757  0.13130841  1  0.120292  0  0.105346  0.117803  0  1.0152  0
H  H28  1  0.29678089  0.06938067  0.13778299  1  0.117671  0  0.106312  0.11551  0  1.000666  0
H  H29  1  0.19041882  0.10287097  0.21677711  1  0.094701  0  0.113197  0.141131  0  0.978081  0
H  H30  1  0.42172014  0.20452775  0.86873995  1  0.120742  0  0.105309  0.117686  0  1.014804  0
H  H31  1  0.19885418  0.42773432  0.86497905  1  0.103458  0  0.106238  0.114962  0  1.001219  0
H  H32  1  0.30657362  0.39565448  0.78603120  1  0.091973  0  0.113113  0.141351  0  0.978971  0
H  H33  1  0.07820378  0.29629457  0.13420099  1  0.103871  0  0.103094  0.111495  0  1.020441  0
H  H34  1  0.57708993  0.79479420  0.13430594  1  0.067575  0  0.102239  0.1086  0  1.011474  0
H  H35  1  0.60988023  0.68147055  0.21566881  1  0.090001  0  0.11117  0.13775  0  0.981456  0
H  H36  1  0.69873214  0.92781388  0.86502097  1  0.113333  0  0.107678  0.119058  0  1.00799  0
H  H37  1  0.92174015  0.70488384  0.86891308  1  0.105892  0  0.103818  0.114438  0  1.007084  0
H  H38  1  0.88645999  0.81607333  0.78752036  1  0.093479  0  0.112582  0.139942  0  0.979173  0
H  H39  1  0.79605779  0.56812872  0.13791378  1  0.116265  0  0.107279  0.118832  0  1.008003  0
H  H40  1  0.03875839  0.40190555  0.16065361  1  0.544088  0  0.306217  0.32653  0  0.978436  0
H  H41  1  0.03538186  0.36350010  0.25546579  1  0.454191  0  0.326192  0.322235  0  0.913189  0
H  H42  1  0.46116705  0.06309153  0.83930978  1  0.535512  0  0.306355  0.3268  0  0.977528  0
H  H43  1  0.46461453  0.11974268  0.74449963  1  0.440664  0  0.326386  0.32227  0  0.914849  0
H  H44  1  0.96135737  0.56201891  0.83935937  1  0.542642  0  0.305845  0.328073  0  0.978696  0
H  H45  1  0.96459439  0.61857730  0.74447586  1  0.437326  0  0.324076  0.319663  0  0.917024  0
H  H46  1  0.53872431  0.90156921  0.16042502  1  0.54499  0  0.30613  0.329022  0  0.978362  0
H  H47  1  0.53557586  0.86333458  0.25524748  1  0.443081  0  0.323998  0.319743  0  0.916933  0
C  C48  1  0.41306603  0.91502826  0.00208054  1  1.566653  0  0.219355  0.601214  0  4.158455  0
C  C49  1  0.41225007  0.08339540  0.00454511  1  1.592816  0  0.214358  0.593233  0  4.168527  0
C  C50  1  0.58740286  0.08729714  0.99630630  1  1.57642  0  0.21609  0.594878  0  4.164722  0
C  C51  1  0.58609321  0.91617983  0.99855627  1  1.563904  0  0.219934  0.602287  0  4.156731  0
C  C52  1  0.08676504  0.41698858  0.99778338  1  1.56009  0  0.219855  0.602049  0  4.15734  0
C  C53  1  0.08789296  0.58765351  0.99554001  1  1.572521  0  0.214551  0.593679  0  4.168326  0
C  C54  1  0.91244340  0.58352391  0.00383172  1  1.581194  0  0.215146  0.594256  0  4.166888  0
C  C55  1  0.91337262  0.41528586  0.00136354  1  1.5698  0  0.219761  0.60198  0  4.159268  0
C  C56  1  0.83090069  0.37076469  0.25991395  1  0.415442  0  0.051148  0.126184  0  3.966942  0
C  C57  1  0.78662446  0.32885204  0.34603448  1  0.063742  0  -0.102515  -0.244982  0  3.982909  0
C  C58  1  0.82078962  0.30570770  0.39317132  1  0.447586  0  0.099424  0.220584  0  4.069901  0
C  C59  1  0.89582423  0.32480907  0.35262157  1  -0.051948  0  -0.079428  -0.290308  0  3.862223  0
C  C60  1  0.93763271  0.36677924  0.26390546  1  1.02737  0  0.237979  0.467221  0  4.065981  0
C  C61  1  0.60420446  0.17776266  0.64742492  1  -0.044282  0  -0.0796  -0.289818  0  3.86131  0
C  C62  1  0.67923628  0.19894656  0.60688566  1  0.36024  0  0.09991  0.221434  0  4.066544  0
C  C63  1  0.71338410  0.17465016  0.65406294  1  0.031887  0  -0.102912  -0.246148  0  3.982053  0
C  C64  1  0.66909041  0.13042439  0.74017158  1  0.443098  0  0.050997  0.126097  0  3.967819  0
C  C65  1  0.56237848  0.13096112  0.73613132  1  1.004029  0  0.237822  0.467389  0  4.066404  0
C  C66  1  0.16896902  0.63070431  0.74021616  1  0.412723  0  0.050718  0.125303  0  3.970578  0
C  C67  1  0.21336143  0.67497659  0.65406394  1  0.061576  0  -0.106595  -0.251045  0  3.98902  0
C  C68  1  0.17927712  0.69886922  0.60682010  1  0.36137  0  0.098617  0.221138  0  4.069173  0
C  C69  1  0.10424334  0.67726463  0.64729192  1  -0.107034  0  -0.081671  -0.292703  0  3.865561  0
C  C70  1  0.06238690  0.63042745  0.73601618  1  1.042003  0  0.23649  0.464693  0  4.070243  0
C  C71  1  0.39590759  0.82470190  0.35260239  1  -0.05303  0  -0.082025  -0.293851  0  3.868698  0
C  C72  1  0.32086264  0.80576266  0.39313366  1  0.447705  0  0.097899  0.220252  0  4.07377  0
C  C73  1  0.28671358  0.82902758  0.34598279  1  0.056359  0  -0.105846  -0.24941  0  3.989304  0
C  C74  1  0.33106570  0.87093477  0.25982538  1  0.405873  0  0.050343  0.124399  0  3.970459  0
C  C75  1  0.43772154  0.86658453  0.26387650  1  1.028541  0  0.2367  0.466073  0  4.070047  0
C  C76  1  0.62358999  0.12145487  0.07313656  1  -0.017367  0  -0.08345  -0.147019  0  3.919304  0
C  C77  1  0.66866768  0.16610745  0.07537292  1  -0.015672  0  -0.00469  0.101568  0  4.050519  0
C  C78  1  0.65720298  0.15172332  0.15283096  1  0.077665  0  -0.104433  -0.275141  0  4.005958  0
C  C79  1  0.69439585  0.19615542  0.92072991  1  0.021794  0  -0.082488  -0.129404  0  3.936023  0
C  C80  1  0.73986265  0.24258389  0.92054367  1  0.043702  0  -0.01445  -0.025444  0  4.060158  0
C  C81  1  0.79952238  0.30554303  0.84521846  1  0.352573  0  0.097648  0.247273  0  4.079586  0
C  C82  1  0.87675326  0.38222791  0.92391270  1  0.023015  0  -0.086891  -0.149988  0  3.929361  0
C  C83  1  0.83248714  0.33695157  0.92148760  1  -0.044862  0  -0.005264  0.103612  0  4.051453  0
C  C84  1  0.84413916  0.35115314  0.84402766  1  0.048059  0  -0.106037  -0.279404  0  4.010631  0
C  C85  1  0.80810682  0.30536883  0.07629854  1  0.033555  0  -0.082348  -0.128173  0  3.936804  0
C  C86  1  0.76207309  0.25963408  0.07635034  1  0.039663  0  -0.014856  -0.024212  0  4.056829  0
C  C87  1  0.70229493  0.19677124  0.15170168  1  0.343575  0  0.097187  0.244993  0  4.077559  0
C  C88  1  0.63643607  0.13618702  0.99672491  1  -0.054043  0  -0.014889  -0.016309  0  3.988266  0
C  C89  1  0.72773886  0.22807594  0.99813837  1  0.010609  0  0.001453  0.007752  0  3.926778  0
C  C90  1  0.86485397  0.36657307  0.00036159  1  -0.044098  0  -0.017315  -0.025043  0  4.002571  0
C  C91  1  0.77375106  0.27459940  0.99873639  1  -0.01638  0  0.002661  0.006157  0  3.927255  0
C  C92  1  0.30876437  0.80433433  0.07624533  1  -0.011362  0  -0.08159  -0.142443  0  3.920899  0
C  C93  1  0.26255706  0.75791124  0.07705063  1  0.035446  0  -0.005853  0.102472  0  4.04809  0
C  C94  1  0.20396409  0.69466662  0.15371016  1  0.033225  0  -0.104886  -0.278207  0  4.007426  0
C  C95  1  0.37683912  0.88282472  0.92390263  1  0.022202  0  -0.087519  -0.134379  0  3.946143  0
C  C96  1  0.33239340  0.83714995  0.92222386  1  -0.016025  0  -0.013508  -0.02256  0  4.057666  0
C  C97  1  0.34178073  0.85032158  0.84606240  1  0.358225  0  0.095422  0.241664  0  4.079083  0
C  C98  1  0.19471459  0.69637506  0.92090378  1  0.074079  0  -0.081552  -0.143754  0  3.919248  0
C  C99  1  0.24056576  0.74317744  0.92008349  1  0.031642  0  -0.006284  0.099834  0  4.05178  0
C  C100  1  0.29910825  0.80649440  0.84340256  1  0.078171  0  -0.102807  -0.272659  0  4.003286  0
C  C101  1  0.12432807  0.62007606  0.07332178  1  0.001022  0  -0.084416  -0.130839  0  3.933399  0
C  C102  1  0.16979976  0.66480628  0.07491884  1  -0.014908  0  -0.012935  -0.024436  0  4.056884  0
C  C103  1  0.16067029  0.65143348  0.15106283  1  0.38275  0  0.097492  0.246049  0  4.078379  0
C  C104  1  0.36497538  0.86627472  0.00067375  1  -0.019085  0  -0.017953  -0.025574  0  4.00517  0
C  C105  1  0.27423664  0.77394624  0.99902903  1  -0.034437  0  0.002637  0.007206  0  3.927713  0
C  C106  1  0.13702086  0.63591877  0.99651890  1  -0.08954  0  -0.015132  -0.017291  0  3.989412  0
C  C107  1  0.22844344  0.72751610  0.99810264  1  0.007502  0  0.00172  0.006809  0  3.930793  0
C  C108  1  0.30535251  0.11753372  0.07911562  1  -0.019931  0  -0.081747  -0.143645  0  3.91849  0
C  C109  1  0.25946267  0.16348024  0.07989317  1  -0.001018  0  -0.006437  0.099891  0  4.051167  0
C  C110  1  0.20065754  0.14996107  0.15656464  1  0.047788  0  -0.102427  -0.272872  0  4.003888  0
C  C111  1  0.37611095  0.19377601  0.92669799  1  -0.0317  0  -0.084005  -0.130986  0  3.933191  0
C  C112  1  0.33061176  0.24009026  0.92504306  1  0.031848  0  -0.013189  -0.023521  0  4.055825  0
C  C113  1  0.33991603  0.30293358  0.84888926  1  0.338161  0  0.097155  0.244945  0  4.077942  0
C  C114  1  0.19144084  0.38072142  0.92363654  1  -0.09537  0  -0.082043  -0.141562  0  3.920897  0
C  C115  1  0.23775308  0.33520944  0.92287413  1  0.047201  0  -0.00545  0.101123  0  4.04956  0
C  C116  1  0.29656725  0.34876472  0.84621630  1  0.069942  0  -0.10445  -0.276596  0  4.005842  0
C  C117  1  0.12293713  0.30667337  0.07598911  1  0.040624  0  -0.086838  -0.134081  0  3.946042  0
C  C118  1  0.16748187  0.25943300  0.07768490  1  -0.016935  0  -0.014673  -0.024802  0  4.060244  0
C  C119  1  0.15792023  0.19639743  0.15385275  1  0.381708  0  0.096065  0.242772  0  4.07987  0
C  C120  1  0.36323196  0.13275128  0.00351618  1  -0.044084  0  -0.015651  -0.017558  0  3.988356  0
C  C121  1  0.27175949  0.22588506  0.00185015  1  -0.013397  0  0.001568  0.005651  0  3.930244  0
C  C122  1  0.13496327  0.36692051  0.99919646  1  0.025662  0  -0.018218  -0.026763  0  4.004391  0
C  C123  1  0.22591394  0.27318536  0.00089349  1  0.002537  0  0.003453  0.010232  0  3.926334  0
C  C124  1  0.62216399  0.80525262  0.07607223  1  -0.017332  0  -0.087184  -0.150512  0  3.929672  0
C  C125  1  0.66632586  0.75745282  0.07850594  1  0.009342  0  -0.004863  0.103585  0  4.050643  0
C  C126  1  0.65453194  0.69418682  0.15597628  1  0.092812  0  -0.106753  -0.279664  0  4.009146  0
C  C127  1  0.69091200  0.88061035  0.92366164  1  0.018985  0  -0.082814  -0.127967  0  3.936998  0
C  C128  1  0.73680883  0.83480134  0.92362963  1  -0.027395  0  -0.013896  -0.024482  0  4.057805  0
C  C129  1  0.79655003  0.84716856  0.84830938  1  0.360327  0  0.096689  0.245422  0  4.079078  0
C  C130  1  0.87571772  0.69385861  0.92690922  1  -0.012504  0  -0.082989  -0.145905  0  3.918535  0
C  C131  1  0.83036856  0.74047225  0.92462370  1  -0.034215  0  -0.004404  0.103231  0  4.049338  0
C  C132  1  0.84172695  0.80332866  0.84715873  1  0.061616  0  -0.103823  -0.276196  0  4.006666  0
C  C133  1  0.80485955  0.61634199  0.07931629  1  -0.066454  0  -0.081989  -0.127815  0  3.934038  0
C  C134  1  0.75910194  0.66230950  0.07947669  1  0.07074  0  -0.015057  -0.026899  0  4.059278  0
C  C135  1  0.69923022  0.64984029  0.15478235  1  0.320268  0  0.097972  0.247582  0  4.07822  0
C  C136  1  0.63422582  0.86605707  0.99960414  1  -0.013461  0  -0.017044  -0.025643  0  4.003211  0
C  C137  1  0.72508293  0.77225557  0.00124265  1  0.057159  0  0.002023  0.008365  0  3.924838  0
C  C138  1  0.86302538  0.63246287  0.00333711  1  0.011825  0  -0.015185  -0.017699  0  3.989408  0
C  C139  1  0.77118427  0.72522315  0.00185899  1  -0.029562  0  0.001444  0.006633  0  3.927881  0
N  N140  1  0.90441381  0.38988434  0.21896352  1  -1.290894  0  -0.334507  -0.320714  0  3.422821  0
N  N141  1  0.78418044  0.26177987  0.48213618  1  -0.497842  0  -0.133473  -0.117168  0  3.232923  0
N  N142  1  0.71586006  0.24402979  0.51792868  1  -0.393377  0  -0.133975  -0.117225  0  3.232361  0
N  N143  1  0.59557413  0.10883685  0.78109354  1  -1.254577  0  -0.334419  -0.321389  0  3.423536  0
N  N144  1  0.09552703  0.60874468  0.78101048  1  -1.252758  0  -0.332948  -0.316563  0  3.41759  0
N  N145  1  0.21593391  0.74393557  0.51787396  1  -0.446011  0  -0.136009  -0.119166  0  3.235869  0
N  N146  1  0.28425346  0.76186107  0.48208477  1  -0.451101  0  -0.135088  -0.118132  0  3.235985  0
N  N147  1  0.40450945  0.88983271  0.21895217  1  -1.290457  0  -0.332945  -0.316773  0  3.417124  0
N  N148  1  0.01102622  0.38544171  0.22200757  1  -1.285727  0  -0.56831  -0.618735  0  3.291017  0
N  N149  1  0.48897779  0.10796126  0.77799511  1  -1.273854  0  -0.568229  -0.618553  0  3.292893  0
N  N150  1  0.98902007  0.60686141  0.77789553  1  -1.256358  0  -0.568518  -0.621513  0  3.296138  0
N  N151  1  0.51109322  0.88497820  0.22190366  1  -1.279575  0  -0.568341  -0.622362  0  3.296375  0
O  O152  1  0.45459687  0.97787363  0.93316468  1  -1.19367  0  -0.31424  -0.564087  0  2.374499  0
O  O153  1  0.40955671  0.89077242  0.07108842  1  -1.161842  0  -0.312488  -0.539545  0  2.310816  0
O  O154  1  0.39115160  0.02168233  0.07452213  1  -1.170273  0  -0.319296  -0.551293  0  2.327721  0
O  O155  1  0.47085900  0.10699603  0.93560980  1  -1.175529  0  -0.315947  -0.545132  0  2.332004  0
O  O156  1  0.52892398  0.04192475  0.06554873  1  -1.172185  0  -0.31832  -0.551187  0  2.33053  0
O  O157  1  0.60833705  0.09502022  0.92664820  1  -1.164853  0  -0.318339  -0.546414  0  2.328315  0
O  O158  1  0.58936900  0.96095102  0.92982038  1  -1.164577  0  -0.309579  -0.532255  0  2.308743  0
O  O159  1  0.54466307  0.90999449  0.06773237  1  -1.191214  0  -0.316723  -0.570727  0  2.375402  0
O  O160  1  0.04512640  0.41087715  0.06676021  1  -1.188696  0  -0.313842  -0.563986  0  2.375462  0
O  O161  1  0.09030416  0.46172099  0.92877287  1  -1.168236  0  -0.313258  -0.54006  0  2.308694  0
O  O162  1  0.10890105  0.59588936  0.92554406  1  -1.165839  0  -0.31969  -0.551677  0  2.327979  0
O  O163  1  0.02930338  0.54242294  0.06449522  1  -1.166866  0  -0.316  -0.545411  0  2.330817  0
O  O164  1  0.97104095  0.60747704  0.93462902  1  -1.163883  0  -0.318891  -0.551897  0  2.33108  0
O  O165  1  0.89167418  0.52178219  0.07351725  1  -1.172326  0  -0.317132  -0.544875  0  2.329129  0
O  O166  1  0.91015303  0.39121582  0.07009519  1  -1.160072  0  -0.309446  -0.532567  0  2.309838  0
O  O167  1  0.95509980  0.47805940  0.93215337  1  -1.197862  0  -0.316293  -0.570061  0  2.377582  0
F  F168  1  0.69100166  0.18250977  0.22585369  1  -0.627093  0  -0.11002  -0.15192  0  1.311549  0
F  F169  1  0.81126543  0.31954043  0.77102606  1  -0.627381  0  -0.109485  -0.151032  0  1.311627  0
F  F170  1  0.10491477  0.59140720  0.22449318  1  -0.63613  0  -0.110786  -0.152084  0  1.311785  0
F  F171  1  0.39711062  0.91093951  0.77263032  1  -0.630992  0  -0.1135  -0.155855  0  1.310842  0
F  F172  1  0.10231582  0.18346334  0.22726536  1  -0.639713  0  -0.113856  -0.155985  0  1.310994  0
F  F173  1  0.39591379  0.31643129  0.77547361  1  -0.634087  0  -0.110662  -0.15228  0  1.312353  0
F  F174  1  0.68737705  0.58963598  0.22895869  1  -0.635469  0  -0.109407  -0.151025  0  1.312236  0
F  F175  1  0.80778289  0.90690135  0.77416580  1  -0.631994  0  -0.109962  -0.151685  0  1.310937  0
