# generated using pymatgen
data_ZnH5C5SNO3
_symmetry_space_group_name_H-M   'P 1'
_cell_length_a   4.92025145
_cell_length_b   8.49067908
_cell_length_c   17.13121023
_cell_angle_alpha   90.00045152
_cell_angle_beta   97.34235267
_cell_angle_gamma   89.99975538
_symmetry_Int_Tables_number   1
_chemical_formula_structural   ZnH5C5SNO3
_chemical_formula_sum   'Zn4 H20 C20 S4 N4 O12'
_cell_volume   709.80978267
_cell_formula_units_Z   4
loop_
 _symmetry_equiv_pos_site_id
 _symmetry_equiv_pos_as_xyz
  1  'x, y, z'
loop_
 _atom_site_type_symbol
 _atom_site_label
 _atom_site_symmetry_multiplicity
 _atom_site_fract_x
 _atom_site_fract_y
 _atom_site_fract_z
 _atom_site_occupancy
 _atom_site_hle17_bader_spin_density
 _atom_site_hle17_ddec_charge
 _atom_site_hle17_ddec_spin_density
 _atom_site_hle17_ddec_sum_bond_order
 _atom_site_hle17_magmom
 _atom_site_hse06_10hf_bader_spin_density
 _atom_site_hse06_10hf_ddec_charge
 _atom_site_hse06_10hf_ddec_spin_density
 _atom_site_hse06_10hf_ddec_sum_bond_order
 _atom_site_hse06_10hf_magmom
 _atom_site_hse06_bader_spin_density
 _atom_site_hse06_ddec_charge
 _atom_site_hse06_ddec_spin_density
 _atom_site_hse06_ddec_sum_bond_order
 _atom_site_hse06_magmom
 _atom_site_pbe_bader_spin_density
 _atom_site_pbe_cm5_charge
 _atom_site_pbe_ddec_charge
 _atom_site_pbe_ddec_spin_density
 _atom_site_pbe_ddec_sum_bond_order
 _atom_site_pbe_magmom
Zn  Zn0  1  0.20387418  0.43144675  0.41576747  1  0  1.086235  0  1.812786  0  0  0.904309  0  2.296319  0  0  0.951936  0  2.234053  0  0  0.676484  0.870805  0  2.339196  0
Zn  Zn1  1  0.79612685  0.93144580  0.08423494  1  0  1.086179  0  1.812858  0  0  0.904288  0  2.296401  0  0  0.951901  0  2.234126  0  0  0.676493  0.870769  0  2.339273  0
Zn  Zn2  1  0.79612694  0.56855417  0.58423295  1  0  1.086183  0  1.812875  0  0  0.904248  0  2.296414  0  0  0.951877  0  2.23415  0  0  0.676467  0.870752  0  2.339291  0
Zn  Zn3  1  0.20387635  0.06855394  0.91576671  1  0  1.086194  0  1.81285  0  0  0.904261  0  2.29639  0  0  0.951887  0  2.234119  0  0  0.676474  0.870752  0  2.339264  0
H  H4  1  0.54531544  0.27188814  0.30602290  1  0  0.079739  0  0.964572  0  0  0.08535  0  1.033899  0  0  0.087346  0  1.033029  0  0  0.111619  0.083789  0  1.034691  0
H  H5  1  0.45468857  0.77188624  0.19397899  1  0  0.079816  0  0.964569  0  0  0.085427  0  1.033884  0  0  0.087422  0  1.033017  0  0  0.111642  0.083865  0  1.034677  0
H  H6  1  0.45468149  0.72811396  0.69397387  1  0  0.079843  0  0.964543  0  0  0.085439  0  1.033882  0  0  0.087435  0  1.033014  0  0  0.111673  0.08388  0  1.03467  0
H  H7  1  0.54531262  0.22811704  0.80602376  1  0  0.079794  0  0.964507  0  0  0.085398  0  1.033848  0  0  0.087393  0  1.032979  0  0  0.111638  0.083838  0  1.034638  0
H  H8  1  0.89650448  0.58578110  0.27774658  1  0  0.075375  0  0.957239  0  0  0.086833  0  1.017539  0  0  0.088496  0  1.017341  0  0  0.114236  0.085595  0  1.017729  0
H  H9  1  0.10349852  0.08577334  0.22225338  1  0  0.075447  0  0.957273  0  0  0.086874  0  1.017584  0  0  0.088539  0  1.017382  0  0  0.114264  0.085635  0  1.017775  0
H  H10  1  0.10349663  0.41421982  0.72225325  1  0  0.075457  0  0.957274  0  0  0.086927  0  1.017531  0  0  0.08859  0  1.017331  0  0  0.11427  0.085689  0  1.017721  0
H  H11  1  0.89650879  0.91421698  0.77774841  1  0  0.075447  0  0.957228  0  0  0.086914  0  1.017509  0  0  0.088578  0  1.017309  0  0  0.114262  0.085676  0  1.017699  0
H  H12  1  0.88206829  0.58503090  0.13058447  1  0  0.111935  0  0.968191  0  0  0.118374  0  1.034821  0  0  0.121419  0  1.034198  0  0  0.104772  0.116076  0  1.0356  0
H  H13  1  0.11794291  0.08503132  0.36941578  1  0  0.111887  0  0.96824  0  0  0.118316  0  1.034874  0  0  0.121363  0  1.034256  0  0  0.104731  0.116019  0  1.035656  0
H  H14  1  0.11792872  0.41497474  0.86941522  1  0  0.111863  0  0.968165  0  0  0.118262  0  1.034865  0  0  0.121309  0  1.034245  0  0  0.10475  0.115963  0  1.035642  0
H  H15  1  0.88206030  0.91496724  0.63058588  1  0  0.111899  0  0.968168  0  0  0.118302  0  1.034851  0  0  0.121351  0  1.034231  0  0  0.10473  0.116003  0  1.035629  0
H  H16  1  0.22039101  0.41441355  0.07067001  1  0  0.094074  0  0.964203  0  0  0.09598  0  1.041175  0  0  0.098418  0  1.039517  0  0  0.102814  0.094143  0  1.042431  0
H  H17  1  0.77961209  0.91441929  0.42932948  1  0  0.093992  0  0.964314  0  0  0.095911  0  1.041307  0  0  0.098346  0  1.039654  0  0  0.102805  0.094077  0  1.042561  0
H  H18  1  0.77960794  0.58559444  0.92932566  1  0  0.094044  0  0.964252  0  0  0.095948  0  1.041219  0  0  0.098387  0  1.039563  0  0  0.102807  0.094112  0  1.042476  0
H  H19  1  0.22038498  0.08558163  0.57067254  1  0  0.094052  0  0.964228  0  0  0.095941  0  1.041259  0  0  0.098378  0  1.039605  0  0  0.102832  0.094106  0  1.042512  0
H  H20  1  0.55876554  0.25808358  0.15921147  1  0  0.122355  0  0.97982  0  0  0.129145  0  1.040136  0  0  0.132461  0  1.039768  0  0  0.105177  0.126704  0  1.040597  0
H  H21  1  0.44123240  0.75808993  0.34079016  1  0  0.122422  0  0.979698  0  0  0.129177  0  1.040054  0  0  0.132499  0  1.039666  0  0  0.105168  0.126732  0  1.040525  0
H  H22  1  0.44122325  0.74191380  0.84078677  1  0  0.122391  0  0.979802  0  0  0.129192  0  1.040117  0  0  0.13251  0  1.039725  0  0  0.105167  0.126751  0  1.040579  0
H  H23  1  0.55876671  0.24190863  0.65921135  1  0  0.122406  0  0.979799  0  0  0.129193  0  1.040124  0  0  0.132516  0  1.039733  0  0  0.105149  0.126746  0  1.040604  0
C  C24  1  0.40197465  0.33797104  0.26459586  1  0  0.115969  0  3.710198  0  0  0.086791  0  3.956442  0  0  0.093493  0  3.975421  0  0  0.04227  0.082542  0  3.943459  0
C  C25  1  0.59801457  0.83797415  0.23540344  1  0  0.115874  0  3.710304  0  0  0.086714  0  3.956506  0  0  0.093406  0  3.975483  0  0  0.042245  0.082464  0  3.943525  0
C  C26  1  0.59800379  0.66202753  0.73539852  1  0  0.116018  0  3.709999  0  0  0.086891  0  3.956239  0  0  0.093587  0  3.975215  0  0  0.042348  0.082642  0  3.943259  0
C  C27  1  0.40198661  0.16202206  0.76459873  1  0  0.116039  0  3.710426  0  0  0.086869  0  3.956641  0  0  0.09357  0  3.975618  0  0  0.042336  0.082619  0  3.94366  0
C  C28  1  0.03874233  0.51483471  0.24877191  1  0  0.125429  0  3.695876  0  0  0.095568  0  3.938554  0  0  0.102373  0  3.958488  0  0  0.044706  0.091265  0  3.924858  0
C  C29  1  0.96125695  0.01483708  0.25122648  1  0  0.12535  0  3.695893  0  0  0.095538  0  3.938532  0  0  0.10234  0  3.958456  0  0  0.044677  0.091235  0  3.924839  0
C  C30  1  0.96125659  0.48516503  0.75122259  1  0  0.125307  0  3.695943  0  0  0.095486  0  3.938576  0  0  0.102284  0  3.958514  0  0  0.044674  0.091185  0  3.92488  0
C  C31  1  0.03875236  0.98515913  0.74877364  1  0  0.12529  0  3.695944  0  0  0.09542  0  3.938582  0  0  0.102221  0  3.958518  0  0  0.044595  0.091119  0  3.924886  0
C  C32  1  0.03323757  0.51452432  0.16739872  1  0  -0.126959  0  3.726125  0  0  -0.136994  0  3.976279  0  0  -0.145424  0  3.999188  0  0  -0.08297  -0.131637  0  3.961019  0
C  C33  1  0.96676379  0.01453150  0.33260091  1  0  -0.126979  0  3.726123  0  0  -0.136954  0  3.976219  0  0  -0.145393  0  3.99914  0  0  -0.082921  -0.131602  0  3.96096  0
C  C34  1  0.96676346  0.48547895  0.83259819  1  0  -0.126772  0  3.725908  0  0  -0.1368  0  3.976033  0  0  -0.145236  0  3.998954  0  0  -0.082894  -0.131441  0  3.960768  0
C  C35  1  0.03324969  0.98546589  0.66740227  1  0  -0.126959  0  3.726232  0  0  -0.136921  0  3.976324  0  0  -0.145361  0  3.999247  0  0  -0.082885  -0.131562  0  3.961056  0
C  C36  1  0.22056801  0.42011678  0.13424108  1  0  0.019354  0  3.69004  0  0  -0.00197  0  3.9402  0  0  0.00241  0  3.958504  0  0  -0.058344  -0.004563  0  3.927816  0
C  C37  1  0.77942691  0.92012740  0.36575991  1  0  0.019619  0  3.690131  0  0  -0.001806  0  3.940342  0  0  0.002572  0  3.958655  0  0  -0.058292  -0.004397  0  3.927955  0
C  C38  1  0.77941664  0.57988061  0.86575585  1  0  0.019331  0  3.690148  0  0  -0.001977  0  3.940305  0  0  0.002401  0  3.958612  0  0  -0.058342  -0.00457  0  3.927923  0
C  C39  1  0.22058041  0.07986763  0.63424247  1  0  0.019555  0  3.690171  0  0  -0.001854  0  3.940426  0  0  0.002526  0  3.958733  0  0  -0.058333  -0.004445  0  3.928039  0
C  C40  1  0.40917695  0.33143263  0.18381486  1  0  -0.123985  0  3.706854  0  0  -0.131568  0  3.948615  0  0  -0.139517  0  3.969923  0  0  -0.084474  -0.126499  0  3.934323  0
C  C41  1  0.59081644  0.83144176  0.31618573  1  0  -0.124134  0  3.70687  0  0  -0.13164  0  3.948597  0  0  -0.139586  0  3.969914  0  0  -0.084469  -0.126573  0  3.934304  0
C  C42  1  0.59081178  0.66856476  0.81618162  1  0  -0.124081  0  3.70677  0  0  -0.131702  0  3.94852  0  0  -0.139639  0  3.969827  0  0  -0.084525  -0.126635  0  3.934231  0
C  C43  1  0.40919092  0.16855681  0.68381782  1  0  -0.124198  0  3.70703  0  0  -0.131742  0  3.948734  0  0  -0.139687  0  3.970046  0  0  -0.084504  -0.126676  0  3.934442  0
S  S44  1  0.27369956  0.74066182  0.51509722  1  0  0.949224  0  4.414634  0  0  0.858381  0  4.907503  0  0  0.896254  0  4.887997  0  0  0.386466  0.831925  0  4.920084  0
S  S45  1  0.72630069  0.24066140  0.98490301  1  0  0.949177  0  4.414653  0  0  0.858346  0  4.907508  0  0  0.896221  0  4.887994  0  0  0.386447  0.831889  0  4.920085  0
S  S46  1  0.72630156  0.25934028  0.48490320  1  0  0.949209  0  4.414631  0  0  0.858382  0  4.907495  0  0  0.896257  0  4.887988  0  0  0.386464  0.831925  0  4.920074  0
S  S47  1  0.27370042  0.75933952  0.01509682  1  0  0.949148  0  4.414726  0  0  0.85833  0  4.907577  0  0  0.8962  0  4.888068  0  0  0.386451  0.83187  0  4.920156  0
N  N48  1  0.21859488  0.42748850  0.29664263  1  0  -0.344545  0  3.308916  0  0  -0.258084  0  3.582808  0  0  -0.278226  0  3.597828  0  0  -0.334451  -0.244487  0  3.572474  0
N  N49  1  0.78139993  0.92748713  0.20335605  1  0  -0.344519  0  3.308997  0  0  -0.258116  0  3.582933  0  0  -0.278236  0  3.597927  0  0  -0.334494  -0.244515  0  3.572595  0
N  N50  1  0.78140207  0.57251242  0.70335472  1  0  -0.344629  0  3.309026  0  0  -0.258235  0  3.58296  0  0  -0.278367  0  3.597971  0  0  -0.334556  -0.244639  0  3.572629  0
N  N51  1  0.21860940  0.07250791  0.79664523  1  0  -0.344562  0  3.309162  0  0  -0.258093  0  3.583039  0  0  -0.27823  0  3.598054  0  0  -0.334447  -0.244495  0  3.572704  0
O  O52  1  0.23079449  0.65902347  0.43399360  1  0  -0.718331  0  2.120297  0  0  -0.631799  0  2.427933  0  0  -0.658413  0  2.408215  0  0  -0.372955  -0.612828  0  2.440715  0
O  O53  1  0.76921012  0.15902102  0.06600612  1  0  -0.71829  0  2.120245  0  0  -0.631752  0  2.427851  0  0  -0.65838  0  2.408167  0  0  -0.372946  -0.612781  0  2.440632  0
O  O54  1  0.76920665  0.34097745  0.56600740  1  0  -0.718314  0  2.120253  0  0  -0.631778  0  2.427866  0  0  -0.658402  0  2.408167  0  0  -0.372957  -0.61281  0  2.440651  0
O  O55  1  0.23078896  0.84097755  0.93399422  1  0  -0.718264  0  2.120293  0  0  -0.631732  0  2.427904  0  0  -0.658351  0  2.408204  0  0  -0.372941  -0.612762  0  2.440688  0
O  O56  1  0.58793217  0.75097646  0.53881960  1  0  -0.721201  0  2.07304  0  0  -0.636496  0  2.383541  0  0  -0.662776  0  2.361904  0  0  -0.376781  -0.617803  0  2.397798  0
O  O57  1  0.41206806  0.25097526  0.96118183  1  0  -0.721209  0  2.073096  0  0  -0.636523  0  2.383613  0  0  -0.6628  0  2.361967  0  0  -0.376781  -0.617827  0  2.397864  0
O  O58  1  0.41206899  0.24902563  0.46118198  1  0  -0.721205  0  2.073011  0  0  -0.636535  0  2.383544  0  0  -0.662814  0  2.361904  0  0  -0.376778  -0.617841  0  2.397801  0
O  O59  1  0.58793100  0.74902566  0.03881793  1  0  -0.721169  0  2.07308  0  0  -0.636504  0  2.383614  0  0  -0.662779  0  2.361968  0  0  -0.376769  -0.617807  0  2.397864  0
O  O60  1  0.18784137  0.61560172  0.57344727  1  0  -0.744679  0  2.068574  0  0  -0.663785  0  2.38424  0  0  -0.690213  0  2.362826  0  0  -0.378576  -0.644995  0  2.398372  0
O  O61  1  0.81215957  0.11560017  0.92655132  1  0  -0.744633  0  2.068576  0  0  -0.663774  0  2.384322  0  0  -0.690199  0  2.362905  0  0  -0.378569  -0.644976  0  2.398444  0
O  O62  1  0.81215770  0.38440038  0.42655307  1  0  -0.744664  0  2.068601  0  0  -0.663784  0  2.384306  0  0  -0.690212  0  2.362891  0  0  -0.378563  -0.644987  0  2.398431  0
O  O63  1  0.18784154  0.88440193  0.07344851  1  0  -0.744642  0  2.068559  0  0  -0.663808  0  2.384341  0  0  -0.690231  0  2.362923  0  0  -0.378585  -0.645004  0  2.398458  0
