# generated using pymatgen
data_ZnH24C28(NO)4
_symmetry_space_group_name_H-M   'P 1'
_cell_length_a   6.09532248
_cell_length_b   12.87047171
_cell_length_c   16.33497848
_cell_angle_alpha   85.83163957
_cell_angle_beta   79.19401082
_cell_angle_gamma   76.19515181
_symmetry_Int_Tables_number   1
_chemical_formula_structural   ZnH24C28(NO)4
_chemical_formula_sum   'Zn2 H48 C56 N8 O8'
_cell_volume   1221.86520478
_cell_formula_units_Z   2
loop_
 _symmetry_equiv_pos_site_id
 _symmetry_equiv_pos_as_xyz
  1  'x, y, z'
loop_
 _atom_site_type_symbol
 _atom_site_label
 _atom_site_symmetry_multiplicity
 _atom_site_fract_x
 _atom_site_fract_y
 _atom_site_fract_z
 _atom_site_occupancy
 _atom_site_hle17_bader_spin_density
 _atom_site_hle17_ddec_charge
 _atom_site_hle17_ddec_spin_density
 _atom_site_hle17_ddec_sum_bond_order
 _atom_site_hle17_magmom
 _atom_site_hse06_10hf_bader_spin_density
 _atom_site_hse06_10hf_ddec_charge
 _atom_site_hse06_10hf_ddec_spin_density
 _atom_site_hse06_10hf_ddec_sum_bond_order
 _atom_site_hse06_10hf_magmom
 _atom_site_hse06_bader_spin_density
 _atom_site_hse06_ddec_charge
 _atom_site_hse06_ddec_spin_density
 _atom_site_hse06_ddec_sum_bond_order
 _atom_site_hse06_magmom
 _atom_site_pbe_bader_spin_density
 _atom_site_pbe_cm5_charge
 _atom_site_pbe_ddec_charge
 _atom_site_pbe_ddec_spin_density
 _atom_site_pbe_ddec_sum_bond_order
 _atom_site_pbe_magmom
Zn  Zn0  1  0.61862839  0.24988843  0.74982243  1  0  0.988609  0  1.910906  0  0  0.800031  0  2.394725  0  0  0.846638  0  2.339736  0  0  0.690373  0.767573  0  2.432394  0
Zn  Zn1  1  0.38137783  0.75012753  0.25016267  1  0  0.988625  0  1.911041  0  0  0.800056  0  2.394953  0  0  0.846667  0  2.339966  0  0  0.690474  0.767632  0  2.43258  0
H  H2  1  0.24526206  0.11165848  0.76772444  1  0  0.11533  0  0.937295  0  0  0.122413  0  1.003081  0  0  0.125148  0  0.999645  0  0  0.142897  0.120284  0  1.005685  0
H  H3  1  0.12363924  0.38760683  0.73225301  1  0  0.115358  0  0.937691  0  0  0.121977  0  1.004097  0  0  0.124794  0  1.000577  0  0  0.14305  0.119851  0  1.006688  0
H  H4  1  0.75471764  0.88836591  0.23224797  1  0  0.115327  0  0.937482  0  0  0.122421  0  1.00328  0  0  0.125162  0  0.999814  0  0  0.142871  0.120307  0  1.005854  0
H  H5  1  0.87633596  0.61238881  0.26774822  1  0  0.115348  0  0.937733  0  0  0.121922  0  1.00419  0  0  0.124736  0  1.00067  0  0  0.142959  0.119797  0  1.006784  0
H  H6  1  0.65544809  0.20482424  0.54931658  1  0  0.107721  0  0.957976  0  0  0.117481  0  1.016816  0  0  0.119171  0  1.017604  0  0  0.119531  0.116219  0  1.016434  0
H  H7  1  0.40934557  0.29524154  0.95054354  1  0  0.108575  0  0.956939  0  0  0.118369  0  1.015499  0  0  0.12006  0  1.016291  0  0  0.1199  0.117124  0  1.015099  0
H  H8  1  0.34453877  0.79520117  0.45066299  1  0  0.107768  0  0.957691  0  0  0.117523  0  1.016545  0  0  0.119208  0  1.01734  0  0  0.119567  0.116228  0  1.016195  0
H  H9  1  0.59065049  0.70472903  0.04945018  1  0  0.108638  0  0.956834  0  0  0.118425  0  1.0154  0  0  0.120117  0  1.016192  0  0  0.119948  0.11718  0  1.015004  0
H  H10  1  0.35794752  0.09459352  0.50488351  1  0  0.10859  0  0.982046  0  0  0.116821  0  1.048248  0  0  0.119402  0  1.047343  0  0  0.118839  0.11499  0  1.048936  0
H  H11  1  0.95649156  0.40551279  0.99502994  1  0  0.107389  0  0.98377  0  0  0.116052  0  1.049527  0  0  0.118619  0  1.048677  0  0  0.118165  0.114211  0  1.05024  0
H  H12  1  0.64204005  0.90541896  0.49509220  1  0  0.10854  0  0.982089  0  0  0.116766  0  1.048326  0  0  0.119329  0  1.047471  0  0  0.11879  0.114931  0  1.049023  0
H  H13  1  0.04354764  0.59444343  0.00496656  1  0  0.107382  0  0.983649  0  0  0.115999  0  1.049486  0  0  0.118568  0  1.048635  0  0  0.118073  0.114153  0  1.050204  0
H  H14  1  0.96034057  0.06641705  0.59837710  1  0  0.081261  0  0.93546  0  0  0.095724  0  1.001351  0  0  0.096596  0  1.000805  0  0  0.111992  0.094965  0  1.001948  0
H  H15  1  0.62332834  0.43365540  0.90182454  1  0  0.081715  0  0.935785  0  0  0.095645  0  1.001187  0  0  0.096565  0  1.000645  0  0  0.111994  0.09484  0  1.001809  0
H  H16  1  0.03965194  0.93358793  0.40161555  1  0  0.081263  0  0.935219  0  0  0.095732  0  1.001165  0  0  0.096608  0  1.000612  0  0  0.112033  0.094969  0  1.001754  0
H  H17  1  0.37664748  0.56633451  0.09819857  1  0  0.081471  0  0.936056  0  0  0.0955  0  1.001457  0  0  0.096421  0  1.000916  0  0  0.111952  0.094695  0  1.002077  0
H  H18  1  0.95317310  0.05302053  0.70670947  1  0  0.094681  0  0.935902  0  0  0.110413  0  0.997428  0  0  0.111181  0  0.996763  0  0  0.119519  0.109693  0  0.99813  0
H  H19  1  0.71172300  0.44679945  0.79335577  1  0  0.096121  0  0.934481  0  0  0.111047  0  0.995943  0  0  0.111866  0  0.995278  0  0  0.119902  0.110282  0  0.99665  0
H  H20  1  0.04679234  0.94698279  0.29328106  1  0  0.094566  0  0.935752  0  0  0.110396  0  0.99727  0  0  0.111122  0  0.996656  0  0  0.11952  0.109658  0  0.997987  0
H  H21  1  0.28826282  0.55317360  0.20666621  1  0  0.095855  0  0.934701  0  0  0.11085  0  0.99617  0  0  0.11167  0  0.995506  0  0  0.11974  0.110085  0  0.996884  0
H  H22  1  0.84229926  0.90831885  0.58425417  1  0  0.075165  0  0.982034  0  0  0.086179  0  1.047307  0  0  0.088894  0  1.046368  0  0  0.091099  0.084248  0  1.048073  0
H  H23  1  0.33269498  0.59223757  0.91513877  1  0  0.074139  0  0.983136  0  0  0.084592  0  1.049166  0  0  0.087261  0  1.048292  0  0  0.090582  0.082685  0  1.049909  0
H  H24  1  0.15767904  0.09167325  0.41573609  1  0  0.075044  0  0.982077  0  0  0.086058  0  1.047358  0  0  0.088767  0  1.04643  0  0  0.09106  0.084128  0  1.048119  0
H  H25  1  0.66732082  0.40771309  0.08488499  1  0  0.074222  0  0.98333  0  0  0.084609  0  1.049398  0  0  0.087276  0  1.048525  0  0  0.090719  0.082704  0  1.050143  0
H  H26  1  0.93103031  0.70915041  0.57857559  1  0  0.085732  0  0.970805  0  0  0.095453  0  1.033582  0  0  0.097134  0  1.034635  0  0  0.096218  0.094204  0  1.032972  0
H  H27  1  0.21651209  0.79149301  0.92092462  1  0  0.086449  0  0.971097  0  0  0.09619  0  1.033883  0  0  0.097925  0  1.034816  0  0  0.096639  0.09494  0  1.033289  0
H  H28  1  0.06897077  0.29085037  0.42143692  1  0  0.085806  0  0.970616  0  0  0.095575  0  1.033368  0  0  0.097267  0  1.034402  0  0  0.096277  0.094322  0  1.032765  0
H  H29  1  0.78345700  0.20846935  0.07908815  1  0  0.086562  0  0.970958  0  0  0.096334  0  1.033717  0  0  0.098058  0  1.034691  0  0  0.096759  0.09509  0  1.033109  0
H  H30  1  0.27411878  0.59979172  0.63365349  1  0  0.105584  0  0.9766  0  0  0.113744  0  1.040491  0  0  0.117081  0  1.038511  0  0  0.099914  0.111296  0  1.042024  0
H  H31  1  0.50674502  0.90005569  0.86643617  1  0  0.105815  0  0.976478  0  0  0.114017  0  1.040323  0  0  0.117432  0  1.038237  0  0  0.099862  0.111503  0  1.041935  0
H  H32  1  0.72587384  0.40022273  0.36636028  1  0  0.105621  0  0.976518  0  0  0.113911  0  1.040259  0  0  0.117247  0  1.038278  0  0  0.099911  0.11145  0  1.041799  0
H  H33  1  0.49319647  0.09991813  0.13355853  1  0  0.105616  0  0.976575  0  0  0.11391  0  1.040342  0  0  0.117272  0  1.038326  0  0  0.099867  0.111408  0  1.041941  0
H  H34  1  0.52388859  0.69079856  0.69193419  1  0  0.090112  0  0.949294  0  0  0.101378  0  1.007066  0  0  0.10351  0  1.007592  0  0  0.100039  0.09984  0  1.006802  0
H  H35  1  0.90654850  0.80832958  0.80850191  1  0  0.088712  0  0.950108  0  0  0.100737  0  1.007197  0  0  0.102809  0  1.007779  0  0  0.099587  0.099239  0  1.006894  0
H  H36  1  0.47609955  0.30921676  0.30808187  1  0  0.090149  0  0.949384  0  0  0.101433  0  1.007152  0  0  0.10357  0  1.007659  0  0  0.100017  0.099902  0  1.006865  0
H  H37  1  0.09340449  0.19166667  0.19149294  1  0  0.08891  0  0.950044  0  0  0.10092  0  1.007141  0  0  0.102994  0  1.007721  0  0  0.099666  0.09941  0  1.006854  0
H  H38  1  0.43665794  0.88836397  0.69661478  1  0  0.091651  0  0.962646  0  0  0.101162  0  1.026595  0  0  0.103702  0  1.026339  0  0  0.09816  0.099333  0  1.026864  0
H  H39  1  0.02109962  0.61072863  0.80373282  1  0  0.090993  0  0.963321  0  0  0.100736  0  1.026981  0  0  0.103355  0  1.026628  0  0  0.097973  0.098869  0  1.027285  0
H  H40  1  0.56333994  0.11165801  0.30338352  1  0  0.091584  0  0.962844  0  0  0.101145  0  1.026735  0  0  0.103684  0  1.026479  0  0  0.098222  0.099316  0  1.027015  0
H  H41  1  0.97887295  0.38927039  0.19627415  1  0  0.091012  0  0.963298  0  0  0.100699  0  1.026989  0  0  0.103315  0  1.026639  0  0  0.097919  0.098832  0  1.027294  0
H  H42  1  0.12555551  0.14928601  0.91360632  1  0  0.096223  0  0.974692  0  0  0.10291  0  1.043181  0  0  0.106136  0  1.041685  0  0  0.097099  0.100639  0  1.0443  0
H  H43  1  0.18876325  0.35053692  0.58635245  1  0  0.096208  0  0.975565  0  0  0.102686  0  1.044234  0  0  0.105959  0  1.042735  0  0  0.096641  0.100359  0  1.045393  0
H  H44  1  0.87444806  0.85071016  0.08638657  1  0  0.096357  0  0.974401  0  0  0.103011  0  1.042938  0  0  0.106236  0  1.041448  0  0  0.09719  0.100752  0  1.04403  0
H  H45  1  0.81129510  0.64948888  0.41366645  1  0  0.096137  0  0.975366  0  0  0.102652  0  1.044012  0  0  0.105926  0  1.042489  0  0  0.096672  0.100325  0  1.045171  0
H  H46  1  0.66849122  0.93599069  0.97180622  1  0  0.095701  0  0.97583  0  0  0.103113  0  1.044043  0  0  0.106002  0  1.042962  0  0  0.101832  0.100836  0  1.045347  0
H  H47  1  0.57572427  0.56425073  0.52806035  1  0  0.095595  0  0.975357  0  0  0.102647  0  1.043871  0  0  0.105551  0  1.042736  0  0  0.10167  0.100359  0  1.04524  0
H  H48  1  0.33155631  0.06399698  0.02817100  1  0  0.095937  0  0.975867  0  0  0.103368  0  1.044013  0  0  0.106269  0  1.04292  0  0  0.101978  0.101091  0  1.045317  0
H  H49  1  0.42431297  0.43578225  0.47195752  1  0  0.095492  0  0.975171  0  0  0.102501  0  1.04379  0  0  0.105411  0  1.042646  0  0  0.101609  0.100211  0  1.045157  0
C  C50  1  0.32171826  0.12100134  0.70295312  1  0  0.192952  0  3.606976  0  0  0.128866  0  3.872223  0  0  0.14444  0  3.882395  0  0  0.156829  0.118821  0  3.86514  0
C  C51  1  0.14472946  0.37846472  0.79699661  1  0  0.195411  0  3.608544  0  0  0.131744  0  3.87422  0  0  0.147249  0  3.884345  0  0  0.157592  0.121712  0  3.867112  0
C  C52  1  0.67825905  0.87903116  0.29702237  1  0  0.192876  0  3.607166  0  0  0.128747  0  3.872422  0  0  0.144344  0  3.882616  0  0  0.156873  0.118695  0  3.865328  0
C  C53  1  0.85524680  0.62151186  0.20301007  1  0  0.195052  0  3.608669  0  0  0.131422  0  3.874317  0  0  0.146926  0  3.884442  0  0  0.157598  0.121388  0  3.86722  0
C  C54  1  0.52965015  0.16737605  0.58839415  1  0  0.004433  0  3.754031  0  0  -0.02775  0  4.018517  0  0  -0.025414  0  4.038474  0  0  0.00172  -0.02931  0  4.005203  0
C  C55  1  0.28501139  0.33254067  0.91144676  1  0  0.002115  0  3.756124  0  0  -0.029876  0  4.020686  0  0  -0.027573  0  4.04069  0  0  0.000637  -0.031427  0  4.007345  0
C  C56  1  0.47034350  0.83264368  0.41158333  1  0  0.004318  0  3.754257  0  0  -0.027882  0  4.018807  0  0  -0.02554  0  4.038772  0  0  0.001642  -0.029408  0  4.005505  0
C  C57  1  0.71499569  0.66743968  0.08855242  1  0  0.002107  0  3.755739  0  0  -0.029902  0  4.020302  0  0  -0.0276  0  4.040312  0  0  0.000589  -0.031458  0  4.006965  0
C  C58  1  0.38236216  0.11373490  0.56539646  1  0  -0.073932  0  3.681783  0  0  -0.114654  0  3.941622  0  0  -0.113816  0  3.960491  0  0  -0.000823  -0.115243  0  3.929029  0
C  C59  1  0.06060574  0.38613154  0.93450485  1  0  -0.072021  0  3.686133  0  0  -0.113125  0  3.945965  0  0  -0.112307  0  3.964877  0  0  -8.6e-05  -0.113698  0  3.933343  0
C  C60  1  0.61761863  0.88627610  0.43458335  1  0  -0.073697  0  3.682177  0  0  -0.114389  0  3.941959  0  0  -0.113558  0  3.960827  0  0  -0.000706  -0.114971  0  3.929353  0
C  C61  1  0.93942886  0.61384350  0.06550445  1  0  -0.072238  0  3.685633  0  0  -0.113297  0  3.94547  0  0  -0.112484  0  3.964381  0  0  -8.4e-05  -0.113861  0  3.932842  0
C  C62  1  0.06339501  0.03162687  0.64614928  1  0  -0.036279  0  3.645665  0  0  -0.102707  0  3.891224  0  0  -0.097705  0  3.900845  0  0  -0.043543  -0.105935  0  3.884742  0
C  C63  1  0.73948902  0.46821174  0.85392916  1  0  -0.040003  0  3.64887  0  0  -0.103446  0  3.890909  0  0  -0.098551  0  3.900587  0  0  -0.044275  -0.106579  0  3.884311  0
C  C64  1  0.93658724  0.96839099  0.35384516  1  0  -0.035953  0  3.645365  0  0  -0.102612  0  3.891092  0  0  -0.09759  0  3.900734  0  0  -0.043518  -0.105806  0  3.884571  0
C  C65  1  0.26052579  0.53176217  0.14609510  1  0  -0.039337  0  3.648818  0  0  -0.102997  0  3.890976  0  0  -0.098143  0  3.900738  0  0  -0.044165  -0.106131  0  3.884394  0
C  C66  1  0.13450486  0.91134892  0.63955028  1  0  0.057059  0  3.775626  0  0  0.078988  0  4.012159  0  0  0.077977  0  4.037485  0  0  -0.019349  0.079749  0  3.994839  0
C  C67  1  0.68391072  0.58852792  0.86043047  1  0  0.055668  0  3.776525  0  0  0.077057  0  4.012525  0  0  0.076079  0  4.037906  0  0  -0.021237  0.077801  0  3.995172  0
C  C68  1  0.86549009  0.08866644  0.36044120  1  0  0.056922  0  3.775952  0  0  0.079061  0  4.012299  0  0  0.078055  0  4.037613  0  0  -0.019471  0.079809  0  3.994969  0
C  C69  1  0.31609413  0.41146102  0.13958767  1  0  0.055779  0  3.776904  0  0  0.07719  0  4.012927  0  0  0.076221  0  4.038296  0  0  -0.021145  0.077927  0  3.99558  0
C  C70  1  0.99345106  0.85977841  0.60678416  1  0  -0.140479  0  3.782194  0  0  -0.1578  0  4.02522  0  0  -0.161431  0  4.047332  0  0  -0.101842  -0.155272  0  4.010167  0
C  C71  1  0.45805845  0.64055214  0.89286126  1  0  -0.138239  0  3.783532  0  0  -0.155293  0  4.026803  0  0  -0.158911  0  4.048938  0  0  -0.100871  -0.152802  0  4.01178  0
C  C72  1  0.00652733  0.14023709  0.39321197  1  0  -0.140487  0  3.781967  0  0  -0.157834  0  4.024923  0  0  -0.161471  0  4.047054  0  0  -0.101836  -0.155307  0  4.009872  0
C  C73  1  0.54193429  0.35942755  0.10716850  1  0  -0.138264  0  3.783731  0  0  -0.155268  0  4.027013  0  0  -0.158878  0  4.049135  0  0  -0.100994  -0.152779  0  4.011995  0
C  C74  1  0.04197618  0.74833048  0.60435495  1  0  -0.065532  0  3.783535  0  0  -0.076324  0  4.030032  0  0  -0.077771  0  4.052517  0  0  -0.092911  -0.075249  0  4.014729  0
C  C75  1  0.39280108  0.75200370  0.89532818  1  0  -0.064836  0  3.784695  0  0  -0.075621  0  4.030745  0  0  -0.077082  0  4.0533  0  0  -0.092011  -0.07456  0  4.015422  0
C  C76  1  0.95802622  0.25168200  0.39564704  1  0  -0.065541  0  3.783205  0  0  -0.076395  0  4.029731  0  0  -0.077848  0  4.05222  0  0  -0.092955  -0.075321  0  4.014426  0
C  C77  1  0.60717452  0.24797399  0.10468835  1  0  -0.065082  0  3.78449  0  0  -0.075934  0  4.030606  0  0  -0.077399  0  4.053138  0  0  -0.092121  -0.074873  0  4.015291  0
C  C78  1  0.23341749  0.68700856  0.63494124  1  0  -0.083653  0  3.749057  0  0  -0.098217  0  3.995362  0  0  -0.101068  0  4.016412  0  0  -0.093512  -0.096141  0  3.980968  0
C  C79  1  0.55428752  0.81284089  0.86506182  1  0  -0.085944  0  3.752183  0  0  -0.100654  0  3.998897  0  0  -0.103578  0  4.019973  0  0  -0.09455  -0.098522  0  3.98453  0
C  C80  1  0.76659338  0.31300701  0.36505744  1  0  -0.083626  0  3.749261  0  0  -0.098326  0  3.995598  0  0  -0.101177  0  4.016654  0  0  -0.093484  -0.096239  0  3.981194  0
C  C81  1  0.44568332  0.18714123  0.13494243  1  0  -0.085537  0  3.751721  0  0  -0.100277  0  3.99844  0  0  -0.103165  0  4.019539  0  0  -0.094485  -0.098155  0  3.984092  0
C  C82  1  0.37506310  0.73810590  0.66750109  1  0  -0.058041  0  3.763026  0  0  -0.067159  0  4.007574  0  0  -0.068724  0  4.029908  0  0  -0.088213  -0.066009  0  3.992322  0
C  C83  1  0.78008147  0.76133591  0.83273882  1  0  -0.054672  0  3.762074  0  0  -0.064311  0  4.00667  0  0  -0.065824  0  4.029103  0  0  -0.087322  -0.063193  0  3.991356  0
C  C84  1  0.62494629  0.26191066  0.33250342  1  0  -0.058176  0  3.763333  0  0  -0.067309  0  4.007893  0  0  -0.068876  0  4.030238  0  0  -0.08818  -0.066154  0  3.99264  0
C  C85  1  0.21987541  0.23866122  0.16725832  1  0  -0.054952  0  3.762165  0  0  -0.064614  0  4.006773  0  0  -0.066123  0  4.029192  0  0  -0.087402  -0.063486  0  3.991459  0
C  C86  1  0.32624188  0.84972472  0.66992307  1  0  -0.132723  0  3.759584  0  0  -0.151833  0  4.003849  0  0  -0.155161  0  4.02629  0  0  -0.098927  -0.149518  0  3.988628  0
C  C87  1  0.84508236  0.64971736  0.83028273  1  0  -0.131962  0  3.759428  0  0  -0.151424  0  4.004187  0  0  -0.154808  0  4.02657  0  0  -0.097503  -0.14907  0  3.988984  0
C  C88  1  0.67375521  0.15029245  0.33007518  1  0  -0.132567  0  3.759922  0  0  -0.151774  0  4.004089  0  0  -0.1551  0  4.026533  0  0  -0.098951  -0.149469  0  3.98888  0
C  C89  1  0.15489296  0.35028099  0.16972841  1  0  -0.13221  0  3.759477  0  0  -0.151592  0  4.004191  0  0  -0.154972  0  4.026567  0  0  -0.097579  -0.149237  0  3.988986  0
C  C90  1  0.75773913  0.09832949  0.86699903  1  0  0.613866  0  3.947281  0  0  0.570349  0  4.23342  0  0  0.60392  0  4.225812  0  0  0.19123  0.547625  0  4.237669  0
C  C91  1  0.72288983  0.40155922  0.63280773  1  0  0.615873  0  3.94421  0  0  0.571581  0  4.230666  0  0  0.605153  0  4.223072  0  0  0.192285  0.548854  0  4.234911  0
C  C92  1  0.24230119  0.90166934  0.13297626  1  0  0.613808  0  3.947566  0  0  0.570268  0  4.233808  0  0  0.603839  0  4.2262  0  0  0.191007  0.547547  0  4.238062  0
C  C93  1  0.27712641  0.59844624  0.36720067  1  0  0.615596  0  3.944483  0  0  0.571442  0  4.230765  0  0  0.60502  0  4.223182  0  0  0.19219  0.548725  0  4.23501  0
C  C94  1  0.88518296  0.04711509  0.93504017  1  0  -0.068354  0  3.762355  0  0  -0.045353  0  3.990023  0  0  -0.05244  0  4.012689  0  0  -0.020939  -0.040562  0  3.974571  0
C  C95  1  0.86712168  0.45282453  0.56484523  1  0  -0.066302  0  3.761913  0  0  -0.042419  0  3.988555  0  0  -0.049567  0  4.011327  0  0  -0.02004  -0.037583  0  3.973028  0
C  C96  1  0.11484082  0.95287673  0.06494178  1  0  -0.068484  0  3.76271  0  0  -0.045682  0  3.990679  0  0  -0.052772  0  4.013348  0  0  -0.020972  -0.040894  0  3.975235  0
C  C97  1  0.13289805  0.54718295  0.43517665  1  0  -0.066357  0  3.762505  0  0  -0.042511  0  3.989115  0  0  -0.049665  0  4.011894  0  0  -0.020068  -0.037715  0  3.97365  0
C  C98  1  0.07153185  0.08366591  0.95136398  1  0  -0.07258  0  3.735665  0  0  -0.094825  0  3.984089  0  0  -0.095055  0  4.003027  0  0  -0.088063  -0.094543  0  3.971206  0
C  C99  1  0.10669750  0.41621991  0.54861200  1  0  -0.07439  0  3.73649  0  0  -0.096745  0  3.984609  0  0  -0.097038  0  4.003487  0  0  -0.088143  -0.096409  0  3.971729  0
C  C100  1  0.92850430  0.91633949  0.04861691  1  0  -0.072461  0  3.735885  0  0  -0.094602  0  3.984352  0  0  -0.094832  0  4.003289  0  0  -0.088111  -0.094323  0  3.971488  0
C  C101  1  0.89335139  0.58378931  0.45141481  1  0  -0.074342  0  3.736714  0  0  -0.096729  0  3.984888  0  0  -0.09701  0  4.003771  0  0  -0.088244  -0.096385  0  3.972022  0
C  C102  1  0.81461724  0.96314185  0.98424379  1  0  -0.071951  0  3.737226  0  0  -0.093748  0  3.984824  0  0  -0.094377  0  4.004499  0  0  -0.084561  -0.093332  0  3.971851  0
C  C103  1  0.76164339  0.53695677  0.51569189  1  0  -0.072168  0  3.73526  0  0  -0.093885  0  3.982611  0  0  -0.094492  0  4.002354  0  0  -0.085073  -0.093495  0  3.969568  0
C  C104  1  0.18543243  0.03684762  0.01574021  1  0  -0.072171  0  3.737052  0  0  -0.09391  0  3.984663  0  0  -0.094549  0  4.004341  0  0  -0.084725  -0.093494  0  3.971688  0
C  C105  1  0.23837178  0.46306844  0.48433352  1  0  -0.071906  0  3.735482  0  0  -0.093559  0  3.982748  0  0  -0.094165  0  4.002501  0  0  -0.084975  -0.093161  0  3.969717  0
N  N106  1  0.49056002  0.17074708  0.67447270  1  0  -0.390777  0  3.318525  0  0  -0.310609  0  3.618976  0  0  -0.331383  0  3.630828  0  0  -0.358941  -0.296573  0  3.610727  0
N  N107  1  0.33533742  0.32890571  0.82538471  1  0  -0.391115  0  3.3224  0  0  -0.311467  0  3.623497  0  0  -0.332245  0  3.635364  0  0  -0.359802  -0.297426  0  3.615238  0
N  N108  1  0.50942826  0.82928312  0.32550631  1  0  -0.390702  0  3.318858  0  0  -0.310534  0  3.619318  0  0  -0.331347  0  3.631218  0  0  -0.358993  -0.296502  0  3.611068  0
N  N109  1  0.66463560  0.67107640  0.17461905  1  0  -0.390956  0  3.322006  0  0  -0.311255  0  3.623046  0  0  -0.332031  0  3.634902  0  0  -0.359793  -0.297219  0  3.614807  0
N  N110  1  0.25150612  0.08550643  0.63861628  1  0  -0.049944  0  3.569262  0  0  0.044231  0  3.786499  0  0  0.029626  0  3.811656  0  0  -0.238696  0.053898  0  3.769328  0
N  N111  1  0.97434463  0.41409049  0.86137172  1  0  -0.050266  0  3.573107  0  0  0.043218  0  3.789546  0  0  0.028633  0  3.814793  0  0  -0.237478  0.05287  0  3.7723  0
N  N112  1  0.74847396  0.91451750  0.36136739  1  0  -0.050163  0  3.569653  0  0  0.04408  0  3.786968  0  0  0.029474  0  3.81212  0  0  -0.238749  0.053727  0  3.769821  0
N  N113  1  0.02564941  0.58589128  0.13864757  1  0  -0.050063  0  3.572622  0  0  0.043456  0  3.789081  0  0  0.02888  0  3.814321  0  0  -0.237307  0.053108  0  3.77184  0
O  O114  1  0.82898141  0.17895137  0.82676645  1  0  -0.655867  0  2.033325  0  0  -0.584678  0  2.305599  0  0  -0.612557  0  2.290335  0  0  -0.342839  -0.56517  0  2.315333  0
O  O115  1  0.83488942  0.32082778  0.67297572  1  0  -0.657022  0  2.031949  0  0  -0.585425  0  2.304431  0  0  -0.613396  0  2.289383  0  0  -0.343358  -0.565839  0  2.314012  0
O  O116  1  0.17100471  0.82107486  0.17323950  1  0  -0.655799  0  2.03305  0  0  -0.584614  0  2.305363  0  0  -0.612498  0  2.290092  0  0  -0.342861  -0.565109  0  2.315099  0
O  O117  1  0.16513633  0.67918562  0.32703075  1  0  -0.657021  0  2.031856  0  0  -0.585544  0  2.304395  0  0  -0.613467  0  2.289222  0  0  -0.343431  -0.56596  0  2.313978  0
O  O118  1  0.59396564  0.06475172  0.85130159  1  0  -0.610745  0  1.935136  0  0  -0.56417  0  2.160828  0  0  -0.586875  0  2.153237  0  0  -0.319582  -0.548181  0  2.165491  0
O  O119  1  0.50952591  0.43518988  0.64857345  1  0  -0.611109  0  1.933219  0  0  -0.564102  0  2.158841  0  0  -0.586771  0  2.151205  0  0  -0.319226  -0.548146  0  2.163566  0
O  O120  1  0.40614627  0.93519577  0.14864648  1  0  -0.610569  0  1.935806  0  0  -0.563948  0  2.161486  0  0  -0.586648  0  2.153885  0  0  -0.319268  -0.547949  0  2.166116  0
O  O121  1  0.49047920  0.56483016  0.35143996  1  0  -0.610937  0  1.933506  0  0  -0.564018  0  2.159116  0  0  -0.586693  0  2.151478  0  0  -0.319169  -0.548058  0  2.163829  0
