# generated using pymatgen
data_CdH11C18(NO2)2
_symmetry_space_group_name_H-M   'P 1'
_cell_length_a   5.90578844
_cell_length_b   10.55296404
_cell_length_c   12.52396317
_cell_angle_alpha   106.37410198
_cell_angle_beta   93.11273162
_cell_angle_gamma   92.02826851
_symmetry_Int_Tables_number   1
_chemical_formula_structural   CdH11C18(NO2)2
_chemical_formula_sum   'Cd2 H22 C36 N4 O8'
_cell_volume   746.72791433
_cell_formula_units_Z   2
loop_
 _symmetry_equiv_pos_site_id
 _symmetry_equiv_pos_as_xyz
  1  'x, y, z'
loop_
 _atom_site_type_symbol
 _atom_site_label
 _atom_site_symmetry_multiplicity
 _atom_site_fract_x
 _atom_site_fract_y
 _atom_site_fract_z
 _atom_site_occupancy
 _atom_site_hle17_bader_spin_density
 _atom_site_hle17_ddec_charge
 _atom_site_hle17_ddec_spin_density
 _atom_site_hle17_ddec_sum_bond_order
 _atom_site_hle17_magmom
 _atom_site_hse06_10hf_bader_spin_density
 _atom_site_hse06_10hf_ddec_charge
 _atom_site_hse06_10hf_ddec_spin_density
 _atom_site_hse06_10hf_ddec_sum_bond_order
 _atom_site_hse06_10hf_magmom
 _atom_site_hse06_bader_spin_density
 _atom_site_hse06_ddec_charge
 _atom_site_hse06_ddec_spin_density
 _atom_site_hse06_ddec_sum_bond_order
 _atom_site_hse06_magmom
 _atom_site_pbe_bader_spin_density
 _atom_site_pbe_cm5_charge
 _atom_site_pbe_ddec_charge
 _atom_site_pbe_ddec_spin_density
 _atom_site_pbe_ddec_sum_bond_order
 _atom_site_pbe_magmom
Cd  Cd0  1  0.64018217  0.57693191  0.39105732  1  0  1.141619  0  1.671489  0  0  0.948816  0  2.119352  0  0  1.006664  0  2.065662  0  0  0.794488  0.907625  0  2.156209  0
Cd  Cd1  1  0.35981455  0.42306890  0.60894317  1  0  1.141577  0  1.671571  0  0  0.948788  0  2.119444  0  0  1.006633  0  2.065755  0  0  0.79447  0.907598  0  2.156302  0
H  H2  1  0.21275426  0.56629834  0.20277680  1  0  0.09244  0  0.949051  0  0  0.096725  0  1.018332  0  0  0.099478  0  1.016118  0  0  0.114774  0.094638  0  1.019975  0
H  H3  1  0.78724519  0.43369869  0.79721241  1  0  0.092382  0  0.949087  0  0  0.096671  0  1.018365  0  0  0.099426  0  1.01615  0  0  0.114737  0.094585  0  1.020006  0
H  H4  1  0.19976745  0.58557690  0.00593044  1  0  0.121669  0  0.951072  0  0  0.130622  0  1.009199  0  0  0.134661  0  1.007249  0  0  0.110066  0.127688  0  1.010774  0
H  H5  1  0.80024861  0.41443291  0.99406231  1  0  0.121601  0  0.951163  0  0  0.130614  0  1.009202  0  0  0.134651  0  1.007258  0  0  0.110082  0.127676  0  1.010781  0
H  H6  1  0.52930369  0.69842607  0.94789690  1  0  0.096456  0  0.943408  0  0  0.107069  0  1.003554  0  0  0.108519  0  1.003892  0  0  0.108664  0.105933  0  1.00347  0
H  H7  1  0.47071974  0.30158753  0.05210414  1  0  0.096417  0  0.943431  0  0  0.107049  0  1.003566  0  0  0.108499  0  1.003901  0  0  0.108654  0.105913  0  1.003482  0
H  H8  1  0.84608758  0.80338999  0.08904261  1  0  0.101889  0  0.975333  0  0  0.110565  0  1.039597  0  0  0.112482  0  1.041104  0  0  0.103387  0.109328  0  1.038465  0
H  H9  1  0.15393184  0.19661553  0.91096590  1  0  0.101876  0  0.975286  0  0  0.110595  0  1.039538  0  0  0.112515  0  1.041034  0  0  0.103384  0.109358  0  1.038403  0
H  H10  1  0.97188484  0.96317576  0.24502667  1  0  0.098426  0  0.976544  0  0  0.10784  0  1.039468  0  0  0.109392  0  1.04145  0  0  0.102042  0.106744  0  1.038213  0
H  H11  1  0.02810388  0.03682900  0.75497704  1  0  0.098372  0  0.976565  0  0  0.107828  0  1.039452  0  0  0.109381  0  1.041434  0  0  0.102052  0.106733  0  1.038197  0
H  H12  1  0.28411400  0.04984591  0.39187397  1  0  0.098573  0  0.978893  0  0  0.105818  0  1.045568  0  0  0.108919  0  1.042972  0  0  0.103253  0.103485  0  1.047572  0
H  H13  1  0.71587972  0.95015782  0.60813039  1  0  0.09857  0  0.979  0  0  0.105823  0  1.045653  0  0  0.108924  0  1.043057  0  0  0.103288  0.103495  0  1.047648  0
H  H14  1  0.37398012  0.91971893  0.52954029  1  0  0.103122  0  0.96216  0  0  0.114152  0  1.021721  0  0  0.116972  0  1.020945  0  0  0.106929  0.112155  0  1.022355  0
H  H15  1  0.62601471  0.08027989  0.47046046  1  0  0.103176  0  0.962118  0  0  0.114145  0  1.021759  0  0  0.116972  0  1.020965  0  0  0.106922  0.112146  0  1.022397  0
H  H16  1  0.12807678  0.72046014  0.52165595  1  0  0.101506  0  0.949819  0  0  0.106639  0  1.015821  0  0  0.109967  0  1.012806  0  0  0.11809  0.104117  0  1.018276  0
H  H17  1  0.87191294  0.27953874  0.47834312  1  0  0.101469  0  0.949852  0  0  0.106653  0  1.015797  0  0  0.10998  0  1.012788  0  0  0.118117  0.104128  0  1.018254  0
H  H18  1  0.51426351  0.10885641  0.23894647  1  0  0.101781  0  0.934696  0  0  0.114103  0  0.991284  0  0  0.11741  0  0.989764  0  0  0.105196  0.111436  0  0.993062  0
H  H19  1  0.48573704  0.89114725  0.76106040  1  0  0.101805  0  0.934721  0  0  0.114136  0  0.991282  0  0  0.117443  0  0.989763  0  0  0.105196  0.111478  0  0.993063  0
H  H20  1  0.36244572  0.94798013  0.06546964  1  0  0.084051  0  0.990462  0  0  0.094693  0  1.055634  0  0  0.097138  0  1.055495  0  0  0.094442  0.092974  0  1.055687  0
H  H21  1  0.63755391  0.05201353  0.93454030  1  0  0.084113  0  0.990477  0  0  0.094744  0  1.055649  0  0  0.097191  0  1.055504  0  0  0.09446  0.093016  0  1.055706  0
H  H22  1  0.77628846  0.18198999  0.06529589  1  0  0.087142  0  0.997332  0  0  0.096886  0  1.065539  0  0  0.099679  0  1.064641  0  0  0.098558  0.09469  0  1.066752  0
H  H23  1  0.22371763  0.81800391  0.93469987  1  0  0.087187  0  0.997294  0  0  0.096931  0  1.065492  0  0  0.099724  0  1.064593  0  0  0.098563  0.094735  0  1.066706  0
C  C24  1  0.34818853  0.62000459  0.17482409  1  0  0.143158  0  3.676477  0  0  0.111919  0  3.932466  0  0  0.119292  0  3.950307  0  0  0.051449  0.107334  0  3.919912  0
C  C25  1  0.65181671  0.37999829  0.82516990  1  0  0.14332  0  3.676497  0  0  0.112101  0  3.932467  0  0  0.119473  0  3.950312  0  0  0.051579  0.107514  0  3.91991  0
C  C26  1  0.34043066  0.63066887  0.06618572  1  0  -0.11402  0  3.698844  0  0  -0.127071  0  3.949356  0  0  -0.134174  0  3.970087  0  0  -0.079783  -0.122625  0  3.935268  0
C  C27  1  0.65957809  0.36933497  0.93380938  1  0  -0.114092  0  3.698988  0  0  -0.127206  0  3.949501  0  0  -0.134307  0  3.970228  0  0  -0.079883  -0.122764  0  3.935428  0
C  C28  1  0.52323265  0.69555822  0.03407217  1  0  -0.004156  0  3.729425  0  0  -0.020912  0  3.977814  0  0  -0.017812  0  3.997493  0  0  -0.065719  -0.022601  0  3.964277  0
C  C29  1  0.47677479  0.30444853  0.96592682  1  0  -0.004042  0  3.729331  0  0  -0.020818  0  3.977768  0  0  -0.017711  0  3.99744  0  0  -0.065645  -0.022508  0  3.964232  0
C  C30  1  0.70073535  0.75334564  0.11245108  1  0  -0.143962  0  3.69179  0  0  -0.157151  0  3.930009  0  0  -0.164733  0  3.951774  0  0  -0.079823  -0.152274  0  3.915372  0
C  C31  1  0.29927035  0.24666009  0.88755002  1  0  -0.143906  0  3.691753  0  0  -0.157167  0  3.929982  0  0  -0.164752  0  3.951747  0  0  -0.079819  -0.152289  0  3.915345  0
C  C32  1  0.69554471  0.74007961  0.22037047  1  0  0.188139  0  3.761114  0  0  0.183328  0  3.999545  0  0  0.190878  0  4.01903  0  0  0.121442  0.178308  0  3.986334  0
C  C33  1  0.30445686  0.25991921  0.77962882  1  0  0.18818  0  3.760988  0  0  0.183408  0  3.999355  0  0  0.190958  0  4.018845  0  0  0.121471  0.17839  0  3.986142  0
C  C34  1  0.88497695  0.79591388  0.30551466  1  0  0.171923  0  3.770991  0  0  0.16779  0  4.010918  0  0  0.174345  0  4.031666  0  0  0.119997  0.163518  0  3.99657  0
C  C35  1  0.11501647  0.20408795  0.69448522  1  0  0.171826  0  3.771072  0  0  0.16772  0  4.010953  0  0  0.174274  0  4.031704  0  0  0.119941  0.163447  0  3.996604  0
C  C36  1  0.01319474  0.91016898  0.30598118  1  0  -0.147811  0  3.714205  0  0  -0.162848  0  3.957984  0  0  -0.170479  0  3.981326  0  0  -0.082591  -0.157799  0  3.941879  0
C  C37  1  0.98679532  0.08983284  0.69402022  1  0  -0.14774  0  3.714217  0  0  -0.162821  0  3.957989  0  0  -0.170453  0  3.98133  0  0  -0.082598  -0.157774  0  3.941888  0
C  C38  1  0.18980575  0.95758017  0.38762558  1  0  -0.009744  0  3.724402  0  0  -0.029605  0  3.975937  0  0  -0.026771  0  3.995183  0  0  -0.071814  -0.031088  0  3.962636  0
C  C39  1  0.81018578  0.04241968  0.61237456  1  0  -0.009705  0  3.724491  0  0  -0.02958  0  3.976038  0  0  -0.026744  0  3.995281  0  0  -0.071828  -0.031064  0  3.962738  0
C  C40  1  0.23660389  0.88809044  0.46497473  1  0  -0.107785  0  3.711917  0  0  -0.12244  0  3.965873  0  0  -0.128709  0  3.986896  0  0  -0.081706  -0.118411  0  3.951712  0
C  C41  1  0.76338771  0.11191042  0.53502407  1  0  -0.107851  0  3.711906  0  0  -0.122475  0  3.965898  0  0  -0.128741  0  3.986919  0  0  -0.081715  -0.118446  0  3.951737  0
C  C42  1  0.09983370  0.77619276  0.46102665  1  0  0.146471  0  3.662757  0  0  0.115281  0  3.918493  0  0  0.122341  0  3.935411  0  0  0.054764  0.110605  0  3.907192  0
C  C43  1  0.90016097  0.22380512  0.53897147  1  0  0.146504  0  3.662789  0  0  0.115284  0  3.918527  0  0  0.122345  0  3.935442  0  0  0.054767  0.110612  0  3.907224  0
C  C44  1  0.31750756  0.32772535  0.36180292  1  0  0.667438  0  3.907746  0  0  0.610366  0  4.206893  0  0  0.646357  0  4.198101  0  0  0.206949  0.585672  0  4.212444  0
C  C45  1  0.68248572  0.67227445  0.63819964  1  0  0.667314  0  3.907924  0  0  0.610311  0  4.206986  0  0  0.6463  0  4.198202  0  0  0.206872  0.585617  0  4.212536  0
C  C46  1  0.23126935  0.23414974  0.25220183  1  0  -0.066501  0  3.713306  0  0  -0.052418  0  3.948249  0  0  -0.057324  0  3.966842  0  0  -0.010792  -0.049422  0  3.936055  0
C  C47  1  0.76872893  0.76584903  0.74780138  1  0  -0.066435  0  3.713342  0  0  -0.052395  0  3.948307  0  0  -0.057299  0  3.966901  0  0  -0.010773  -0.049398  0  3.936117  0
C  C48  1  0.35078613  0.12347803  0.20049990  1  0  -0.075401  0  3.754955  0  0  -0.098281  0  4.010105  0  0  -0.09784  0  4.027807  0  0  -0.087064  -0.098435  0  3.998572  0
C  C49  1  0.64921210  0.87651970  0.79950544  1  0  -0.075535  0  3.755114  0  0  -0.09841  0  4.010271  0  0  -0.097971  0  4.027972  0  0  -0.087141  -0.098579  0  3.998737  0
C  C50  1  0.26364777  0.03284538  0.10175964  1  0  -0.120883  0  3.739002  0  0  -0.143063  0  3.993449  0  0  -0.145023  0  4.012111  0  0  -0.095913  -0.141379  0  3.980524  0
C  C51  1  0.73635338  0.96714735  0.89824691  1  0  -0.12091  0  3.739149  0  0  -0.143092  0  3.993555  0  0  -0.145046  0  4.012224  0  0  -0.09589  -0.141395  0  3.980638  0
C  C52  1  0.05081452  0.04880717  0.05137013  1  0  0.041919  0  3.794849  0  0  0.056623  0  4.030293  0  0  0.058179  0  4.051017  0  0  -0.013365  0.055505  0  4.016282  0
C  C53  1  0.94918307  0.95118464  0.94863292  1  0  0.041876  0  3.794928  0  0  0.056638  0  4.03033  0  0  0.058168  0  4.051077  0  0  -0.013319  0.055522  0  4.016313  0
C  C54  1  0.93744589  0.16268996  0.10225745  1  0  -0.134427  0  3.726994  0  0  -0.163073  0  3.973633  0  0  -0.165288  0  3.992114  0  0  -0.090743  -0.162013  0  3.962177  0
C  C55  1  0.06255542  0.83730586  0.89774269  1  0  -0.134486  0  3.727053  0  0  -0.163149  0  3.973692  0  0  -0.165357  0  3.992179  0  0  -0.090791  -0.16209  0  3.962236  0
C  C56  1  0.02425850  0.25482995  0.20047000  1  0  -0.036243  0  3.721475  0  0  -0.021082  0  3.953673  0  0  -0.023288  0  3.9715  0  0  -0.006157  -0.019856  0  3.942211  0
C  C57  1  0.97573943  0.74516587  0.79953086  1  0  -0.036106  0  3.7214  0  0  -0.020946  0  3.953567  0  0  -0.023156  0  3.971395  0  0  -0.006096  -0.019718  0  3.942102  0
C  C58  1  0.88834718  0.37340187  0.24836644  1  0  0.644868  0  3.953467  0  0  0.592195  0  4.256598  0  0  0.626343  0  4.248963  0  0  0.194073  0.568948  0  4.260899  0
C  C59  1  0.11164902  0.62659508  0.75162828  1  0  0.644743  0  3.953408  0  0  0.592123  0  4.256463  0  0  0.626274  0  4.248829  0  0  0.194019  0.568874  0  4.260763  0
N  N60  1  0.52336578  0.67162205  0.24935605  1  0  -0.371228  0  3.242021  0  0  -0.300746  0  3.504791  0  0  -0.320803  0  3.522949  0  0  -0.324843  -0.286944  0  3.491891  0
N  N61  1  0.47663574  0.32837682  0.75064086  1  0  -0.371338  0  3.241966  0  0  -0.300893  0  3.504738  0  0  -0.320952  0  3.522897  0  0  -0.324933  -0.287087  0  3.491833  0
N  N62  1  0.92726874  0.73261358  0.38366333  1  0  -0.349874  0  3.235671  0  0  -0.27769  0  3.492998  0  0  -0.297477  0  3.51136  0  0  -0.320535  -0.264209  0  3.480336  0
N  N63  1  0.07272760  0.26738433  0.61633323  1  0  -0.349815  0  3.235678  0  0  -0.277654  0  3.493016  0  0  -0.297441  0  3.51138  0  0  -0.320538  -0.264172  0  3.480352  0
O  O64  1  0.30834982  0.45147006  0.37457234  1  0  -0.653836  0  2.013876  0  0  -0.586415  0  2.272743  0  0  -0.6147  0  2.258752  0  0  -0.331253  -0.566529  0  2.281961  0
O  O65  1  0.69164504  0.54852875  0.62542921  1  0  -0.653785  0  2.014  0  0  -0.586396  0  2.272841  0  0  -0.614686  0  2.258861  0  0  -0.331217  -0.566509  0  2.282057  0
O  O66  1  0.38721219  0.27581231  0.43715528  1  0  -0.631704  0  2.014895  0  0  -0.563593  0  2.270297  0  0  -0.593191  0  2.259952  0  0  -0.314397  -0.542489  0  2.276512  0
O  O67  1  0.61278268  0.72418648  0.56284706  1  0  -0.631648  0  2.014942  0  0  -0.563562  0  2.270323  0  0  -0.593158  0  2.259983  0  0  -0.314339  -0.542457  0  2.276536  0
O  O68  1  0.81671788  0.38471185  0.34566410  1  0  -0.643639  0  1.999386  0  0  -0.572143  0  2.24631  0  0  -0.603883  0  2.236736  0  0  -0.330071  -0.549645  0  2.252335  0
O  O69  1  0.18327691  0.61528808  0.65433054  1  0  -0.643557  0  1.999359  0  0  -0.572092  0  2.246293  0  0  -0.603815  0  2.236677  0  0  -0.330025  -0.549589  0  2.252317  0
O  O70  1  0.84795339  0.44950675  0.18944233  1  0  -0.62136  0  1.920127  0  0  -0.572899  0  2.145105  0  0  -0.597527  0  2.138432  0  0  -0.322002  -0.554978  0  2.148642  0
O  O71  1  0.15205246  0.55048626  0.81054761  1  0  -0.621373  0  1.92007  0  0  -0.572908  0  2.144997  0  0  -0.597535  0  2.138311  0  0  -0.322017  -0.555003  0  2.14857  0
