# generated using pymatgen
data_VH4C8O5
_symmetry_space_group_name_H-M   'P 1'
_cell_length_a   6.79845287
_cell_length_b   11.19410797
_cell_length_c   11.19472406
_cell_angle_alpha   74.34943794
_cell_angle_beta   72.70190592
_cell_angle_gamma   72.70626527
_symmetry_Int_Tables_number   1
_chemical_formula_structural   VH4C8O5
_chemical_formula_sum   'V2 H8 C16 O10'
_cell_volume   761.11522257
_cell_formula_units_Z   2
loop_
 _symmetry_equiv_pos_site_id
 _symmetry_equiv_pos_as_xyz
  1  'x, y, z'
loop_
 _atom_site_type_symbol
 _atom_site_label
 _atom_site_symmetry_multiplicity
 _atom_site_fract_x
 _atom_site_fract_y
 _atom_site_fract_z
 _atom_site_occupancy
 _atom_site_hle17_ddec_charge
 _atom_site_hle17_ddec_spin_density
 _atom_site_hle17_ddec_sum_bond_order
 _atom_site_hle17_magmom
 _atom_site_hse06_10hf_ddec_charge
 _atom_site_hse06_10hf_ddec_spin_density
 _atom_site_hse06_10hf_ddec_sum_bond_order
 _atom_site_hse06_10hf_magmom
 _atom_site_hse06_ddec_charge
 _atom_site_hse06_ddec_spin_density
 _atom_site_hse06_ddec_sum_bond_order
 _atom_site_hse06_magmom
 _atom_site_pbe_cm5_charge
 _atom_site_pbe_ddec_charge
 _atom_site_pbe_ddec_spin_density
 _atom_site_pbe_ddec_sum_bond_order
 _atom_site_pbe_magmom
V  V0  1  0.53072255  0.51225083  0.98910091  1  1.861226  -1.200597  2.572008  -1.154  1.898827  -0.960993  2.962773  -0.926  1.993389  -1.048194  2.912356  -1.013  1.417331  1.83683  -0.812736  3.005488  -0.781
V  V1  1  0.03073320  0.48917198  0.01220230  1  1.861808  1.200149  2.571385  1.154  1.899293  0.960801  2.962327  0.926  1.993991  1.047984  2.911669  1.013  1.417441  1.837192  0.812537  3.00533  0.781
H  H2  1  0.33528878  0.87446996  0.05852255  1  0.111955  0.00017  0.933435  0.0  0.12165  0.000129  0.989699  0.0  0.125651  0.000117  0.987229  0.0  0.11166  0.11848  0.000133  0.991889  0.0
H  H3  1  0.15417039  0.44527254  0.62685235  1  0.111426  -0.000144  0.931428  0.0  0.121085  -0.000118  0.988107  0.0  0.125135  -0.000105  0.985481  0.0  0.111654  0.117879  -0.000126  0.990417  0.0
H  H4  1  0.27791687  0.44029246  0.39288044  1  0.113538  0.000181  0.929327  0.0  0.123818  0.000162  0.984817  0.0  0.127976  0.000141  0.982211  0.0  0.112795  0.120489  0.000173  0.987141  0.0
H  H5  1  0.20978474  0.10740983  0.06582908  1  0.113647  -0.000258  0.929354  0.0  0.123919  -0.000232  0.984771  0.0  0.128121  -0.000205  0.982057  0.0  0.112998  0.120518  -0.000238  0.987203  0.0
H  H6  1  0.65416158  0.12685872  0.94525764  1  0.111354  0.000146  0.931402  0.0  0.121036  0.000118  0.988082  0.0  0.125089  0.000105  0.985457  0.0  0.11156  0.117825  0.000125  0.990391  0.0
H  H7  1  0.83528757  0.55855740  0.37437591  1  0.112034  -0.000169  0.932828  0.0  0.121626  -0.000129  0.989235  0.0  0.125629  -0.000117  0.986763  0.0  0.111638  0.118457  -0.000133  0.991424  0.0
H  H8  1  0.70980157  0.56585944  0.60732676  1  0.113772  0.000257  0.929307  0.0  0.124074  0.000232  0.984716  0.0  0.12825  0.000204  0.982042  0.0  0.113021  0.120732  0.000237  0.98707  0.0
H  H9  1  0.77792459  0.89288029  0.94031915  1  0.113752  -0.00018  0.929261  0.0  0.124047  -0.000162  0.984696  0.0  0.128203  -0.000141  0.982092  0.0  0.112956  0.120722  -0.000173  0.987022  0.0
C  C10  1  0.18687986  0.93068438  0.03359833  1  -0.069028  -0.000217  3.725584  0.0  -0.094213  0.000146  3.976904  0.0  -0.094594  -6.4e-05  3.996016  0.0  -0.078897  -0.094601  0.000543  3.965821  0.0
C  C11  1  0.30220652  0.47065585  0.57044202  1  -0.065317  -0.000455  3.721003  0.0  -0.091102  -0.000667  3.973398  0.0  -0.09118  -0.000266  3.99255  0.0  -0.077414  -0.091682  -0.001336  3.962266  -0.001
C  C12  1  0.37097710  0.46754603  0.44097574  1  -0.065668  1e-05  3.717457  0.0  -0.091593  6e-05  3.969408  0.0  -0.092039  -0.000121  3.98851  0.0  -0.076635  -0.091811  0.000261  3.958341  0.0
C  C13  1  0.11745022  0.05965608  0.03761035  1  -0.064024  0.000577  3.722943  0.001  -0.08968  0.000349  3.973943  0.0  -0.089836  0.000363  3.992974  0.0  -0.077772  -0.090087  0.000399  3.962947  0.0
C  C14  1  0.80221935  0.07044458  0.97064287  1  -0.065545  0.000455  3.720038  0.0  -0.09133  0.000672  3.972464  0.0  -0.091423  0.000268  3.991633  0.0  -0.077339  -0.091902  0.001343  3.961322  0.001
C  C15  1  0.68686600  0.53362180  0.43062423  1  -0.06898  0.000215  3.725303  0.0  -0.094052  -0.000142  3.97667  0.0  -0.094438  6.4e-05  3.995787  0.0  -0.07886  -0.094439  -0.000538  3.965591  0.0
C  C16  1  0.61748704  0.53763116  0.55956882  1  -0.063986  -0.000569  3.723653  -0.001  -0.089735  -0.000347  3.974721  0.0  -0.089881  -0.000362  3.993765  0.0  -0.077775  -0.090177  -0.000396  3.963691  0.0
C  C17  1  0.87099915  0.94096964  0.96755662  1  -0.065957  -6e-06  3.71747  0.0  -0.09187  -5.6e-05  3.969386  0.0  -0.09232  0.000121  3.988485  0.0  -0.076714  -0.092087  -0.000257  3.958329  0.0
C  C18  1  0.06419400  0.87064295  0.99844989  1  -0.050574  0.000128  3.737123  0.0  -0.030229  0.000413  3.968062  0.0  -0.037754  0.000181  3.987756  0.0  -0.009397  -0.026576  0.000898  3.957523  0.0
C  C19  1  0.14083707  0.73273049  0.99436896  1  0.700759  0.001024  3.801326  0.001  0.661589  0.00062  4.092713  0.0  0.707238  0.000749  4.073991  0.0  0.235068  0.627946  0.001165  4.105841  0.001
C  C20  1  0.42523649  0.50554573  0.63040707  1  -0.055648  -0.000352  3.743766  0.0  -0.03521  -0.000202  3.974822  0.0  -0.043281  -0.00023  3.994947  0.0  -0.01074  -0.031157  -0.00035  3.964027  0.0
C  C21  1  0.35605402  0.50729016  0.76888204  1  0.70291  -0.00031  3.79875  0.0  0.663759  -0.001332  4.089983  -0.001  0.7096  -0.000292  4.071265  0.0  0.236318  0.629907  -0.003109  4.103207  -0.002
C  C22  1  0.56414089  0.49845932  0.37057017  1  -0.051078  -0.000127  3.736348  0.0  -0.030586  -0.000409  3.967385  0.0  -0.038116  -0.000175  3.987092  0.0  -0.009403  -0.026932  -0.000891  3.956831  0.0
C  C23  1  0.64082676  0.49440953  0.23264349  1  0.701379  -0.000995  3.800937  -0.001  0.66184  -0.000585  4.092893  0.0  0.707483  -0.000733  4.074165  0.0  0.235132  0.628206  -0.001126  4.106023  -0.001
C  C24  1  0.92524986  0.13049254  0.00550980  1  -0.055102  0.000352  3.742872  0.0  -0.034686  0.000205  3.974  0.0  -0.042759  0.000235  3.994125  0.0  -0.010671  -0.030634  0.000357  3.963192  0.0
C  C25  1  0.85602968  0.26895104  0.00722276  1  0.703148  0.000324  3.79948  0.0  0.663825  0.001352  4.090962  0.001  0.70968  0.000296  4.072187  0.0  0.236113  0.629983  0.003128  4.104197  0.002
O  O26  1  0.33454347  0.68134148  0.99743736  1  -0.646401  0.005103  2.107475  0.018  -0.622033  0.00133  2.362882  0.015  -0.656144  -0.001168  2.349659  0.012  -0.348325  -0.596982  0.002898  2.371557  0.015
O  O27  1  0.16978920  0.49233014  0.82849773  1  -0.630292  -0.010254  2.07596  -0.024  -0.603854  -0.003807  2.326437  -0.018  -0.636086  -0.001249  2.313233  -0.015  -0.345185  -0.58034  -0.00531  2.335078  -0.017
O  O28  1  0.50853235  0.48893866  0.17448536  1  -0.634183  0.009035  2.084993  0.022  -0.607069  0.002817  2.336727  0.017  -0.639444  0.000205  2.323464  0.014  -0.347214  -0.583187  0.004234  2.345324  0.017
O  O29  1  0.98956957  0.31974961  0.02294310  1  -0.655888  -0.004034  2.118959  -0.017  -0.631439  -0.000537  2.377167  -0.015  -0.665934  0.00208  2.363659  -0.012  -0.352601  -0.605971  -0.002046  2.386072  -0.015
O  O30  1  0.66984604  0.32853620  0.99223061  1  -0.630305  0.010257  2.076712  0.024  -0.603852  0.003804  2.327273  0.018  -0.63604  0.001254  2.314045  0.015  -0.345078  -0.580375  0.005315  2.335909  0.017
O  O31  1  0.83453884  0.49748904  0.18128462  1  -0.646672  -0.005089  2.107405  -0.018  -0.622155  -0.001313  2.363008  -0.015  -0.656296  0.001185  2.34977  -0.012  -0.348308  -0.597088  -0.002874  2.371712  -0.015
O  O32  1  0.48956046  0.52300550  0.81968795  1  -0.655465  0.004042  2.119147  0.017  -0.63111  0.000551  2.377299  0.015  -0.665552  -0.002065  2.363801  0.012  -0.352663  -0.60567  0.002061  2.386195  0.015
O  O33  1  0.00856445  0.67452170  0.98892306  1  -0.634128  -0.009013  2.085208  -0.022  -0.607105  -0.00281  2.336832  -0.017  -0.639521  -0.000191  2.323556  -0.014  -0.347273  -0.583195  -0.004223  2.345455  -0.017
O  O34  1  0.75562371  0.55738053  0.94515362  1  -0.779111  0.190704  1.504277  0.187  -0.818633  0.078012  1.792562  0.078  -0.871271  0.098063  1.782681  0.1  -0.613639  -0.780041  0.058941  1.799899  0.059
O  O35  1  0.25564164  0.44523242  0.05728960  1  -0.779357  -0.19036  1.504703  -0.187  -0.818854  -0.077932  1.793036  -0.078  -0.871525  -0.097937  1.783147  -0.1  -0.613779  -0.780229  -0.058887  1.800376  -0.059
