# generated using pymatgen
data_AgH8C4S2NO3
_symmetry_space_group_name_H-M   'P 1'
_cell_length_a   7.08558572
_cell_length_b   7.81831789
_cell_length_c   15.71228296
_cell_angle_alpha   89.99719069
_cell_angle_beta   93.09495418
_cell_angle_gamma   89.99912557
_symmetry_Int_Tables_number   1
_chemical_formula_structural   AgH8C4S2NO3
_chemical_formula_sum   'Ag4 H32 C16 S8 N4 O12'
_cell_volume   869.14945239
_cell_formula_units_Z   4
loop_
 _symmetry_equiv_pos_site_id
 _symmetry_equiv_pos_as_xyz
  1  'x, y, z'
loop_
 _atom_site_type_symbol
 _atom_site_label
 _atom_site_symmetry_multiplicity
 _atom_site_fract_x
 _atom_site_fract_y
 _atom_site_fract_z
 _atom_site_occupancy
 _atom_site_hle17_bader_spin_density
 _atom_site_hle17_ddec_charge
 _atom_site_hle17_ddec_spin_density
 _atom_site_hle17_ddec_sum_bond_order
 _atom_site_hle17_magmom
 _atom_site_hse06_10hf_bader_spin_density
 _atom_site_hse06_10hf_ddec_charge
 _atom_site_hse06_10hf_ddec_spin_density
 _atom_site_hse06_10hf_ddec_sum_bond_order
 _atom_site_hse06_10hf_magmom
 _atom_site_hse06_bader_spin_density
 _atom_site_hse06_ddec_charge
 _atom_site_hse06_ddec_spin_density
 _atom_site_hse06_ddec_sum_bond_order
 _atom_site_hse06_magmom
 _atom_site_pbe_bader_spin_density
 _atom_site_pbe_cm5_charge
 _atom_site_pbe_ddec_charge
 _atom_site_pbe_ddec_spin_density
 _atom_site_pbe_ddec_sum_bond_order
 _atom_site_pbe_magmom
Ag  Ag0  1  0.20070227  0.95355917  0.99947381  1  0  0.31654  0  1.711586  0  0  0.192637  0  2.201593  0  0  0.220322  0  2.147973  0  0  0.337913  0.173305  0  2.238694  0
Ag  Ag1  1  0.70067631  0.54644152  0.49947667  1  0  0.316666  0  1.711287  0  0  0.192733  0  2.201345  0  0  0.220527  0  2.147615  0  0  0.337871  0.173387  0  2.23847  0
Ag  Ag2  1  0.79932761  0.04644707  0.00053251  1  0  0.316687  0  1.711406  0  0  0.192774  0  2.201433  0  0  0.220459  0  2.147801  0  0  0.337935  0.173436  0  2.238547  0
Ag  Ag3  1  0.29930549  0.45353530  0.50052838  1  0  0.316597  0  1.711418  0  0  0.192672  0  2.201465  0  0  0.220472  0  2.147725  0  0  0.337868  0.173324  0  2.238596  0
H  H4  1  0.90589513  0.87638424  0.80333065  1  0  0.1396  0  0.946778  0  0  0.155065  0  1.002942  0  0  0.156498  0  1.002686  0  0  0.11111  0.153912  0  1.003281  0
H  H5  1  0.40590230  0.62360310  0.30331962  1  0  0.139529  0  0.946603  0  0  0.154948  0  1.002857  0  0  0.156405  0  1.002561  0  0  0.111079  0.153801  0  1.00318  0
H  H6  1  0.09410269  0.12361049  0.19668289  1  0  0.139452  0  0.946524  0  0  0.154955  0  1.002758  0  0  0.156413  0  1.00246  0  0  0.111072  0.153793  0  1.00312  0
H  H7  1  0.59412465  0.37640825  0.69668475  1  0  0.13955  0  0.946575  0  0  0.154969  0  1.002851  0  0  0.156419  0  1.002566  0  0  0.111085  0.153818  0  1.003177  0
H  H8  1  0.96275493  0.05052983  0.73322965  1  0  0.132115  0  0.978332  0  0  0.1393  0  1.048369  0  0  0.142008  0  1.046345  0  0  0.104199  0.137203  0  1.049963  0
H  H9  1  0.46276935  0.44945154  0.23322358  1  0  0.132215  0  0.978128  0  0  0.139343  0  1.048238  0  0  0.142055  0  1.046213  0  0  0.104198  0.137241  0  1.049844  0
H  H10  1  0.03724256  0.94945210  0.26677816  1  0  0.13209  0  0.978328  0  0  0.139305  0  1.048401  0  0  0.142015  0  1.046378  0  0  0.104164  0.137207  0  1.050004  0
H  H11  1  0.53724061  0.55055726  0.76677993  1  0  0.132211  0  0.978075  0  0  0.139359  0  1.048198  0  0  0.142021  0  1.046252  0  0  0.104162  0.137258  0  1.049802  0
H  H12  1  0.90413550  0.38146422  0.77997897  1  0  0.096296  0  0.936267  0  0  0.109522  0  1.002546  0  0  0.11018  0  1.00352  0  0  0.096209  0.108942  0  1.002032  0
H  H13  1  0.40416849  0.11853768  0.27997513  1  0  0.096329  0  0.93613  0  0  0.109544  0  1.002439  0  0  0.110198  0  1.003423  0  0  0.096243  0.108965  0  1.001925  0
H  H14  1  0.09585330  0.61853178  0.22002491  1  0  0.096291  0  0.93624  0  0  0.109538  0  1.002527  0  0  0.110193  0  1.003507  0  0  0.096208  0.108959  0  1.002011  0
H  H15  1  0.59583502  0.88149670  0.72001429  1  0  0.096256  0  0.93623  0  0  0.109523  0  1.002469  0  0  0.11017  0  1.003465  0  0  0.096185  0.108942  0  1.001952  0
H  H16  1  0.81068414  0.43561036  0.87882712  1  0  0.116297  0  0.938903  0  0  0.13391  0  0.991428  0  0  0.135239  0  0.991321  0  0  0.105123  0.132817  0  0.991648  0
H  H17  1  0.31069594  0.06435489  0.37882284  1  0  0.116442  0  0.9386  0  0  0.133935  0  0.991278  0  0  0.135286  0  0.991135  0  0  0.105111  0.132842  0  0.991503  0
H  H18  1  0.18931991  0.56438820  0.12117186  1  0  0.116339  0  0.938883  0  0  0.13393  0  0.991433  0  0  0.135282  0  0.991288  0  0  0.105136  0.132833  0  0.991652  0
H  H19  1  0.68929300  0.93564751  0.62115876  1  0  0.116456  0  0.938578  0  0  0.133893  0  0.991323  0  0  0.135243  0  0.991179  0  0  0.105116  0.1328  0  0.991541  0
H  H20  1  0.10220990  0.31086868  0.95633486  1  0  0.066857  0  0.959734  0  0  0.081334  0  1.03319  0  0  0.082576  0  1.031763  0  0  0.083719  0.080308  0  1.034298  0
H  H21  1  0.60221285  0.18912443  0.45635018  1  0  0.066935  0  0.95973  0  0  0.081451  0  1.033157  0  0  0.082659  0  1.031761  0  0  0.083764  0.080423  0  1.034274  0
H  H22  1  0.89779893  0.68915419  0.04364890  1  0  0.066895  0  0.959608  0  0  0.081394  0  1.033105  0  0  0.082582  0  1.031742  0  0  0.083709  0.080378  0  1.03421  0
H  H23  1  0.39779381  0.81086134  0.54364501  1  0  0.066777  0  0.959765  0  0  0.081303  0  1.033257  0  0  0.082504  0  1.031868  0  0  0.083681  0.080286  0  1.034362  0
H  H24  1  0.15521228  0.48221831  0.88810000  1  0  0.108232  0  0.926431  0  0  0.129318  0  0.977666  0  0  0.130295  0  0.977677  0  0  0.103267  0.128424  0  0.977912  0
H  H25  1  0.65522233  0.01777247  0.38811529  1  0  0.108216  0  0.926461  0  0  0.129241  0  0.977774  0  0  0.130243  0  0.97774  0  0  0.103231  0.128349  0  0.978022  0
H  H26  1  0.84479250  0.51778409  0.11188689  1  0  0.108177  0  0.926501  0  0  0.129248  0  0.977766  0  0  0.130249  0  0.97773  0  0  0.103229  0.128357  0  0.978016  0
H  H27  1  0.34475850  0.98221970  0.61187256  1  0  0.108042  0  0.926539  0  0  0.129179  0  0.977771  0  0  0.130182  0  0.977733  0  0  0.103225  0.128287  0  0.978026  0
H  H28  1  0.38599360  0.25332193  0.87229582  1  0  0.109596  0  0.948148  0  0  0.123175  0  1.012327  0  0  0.124259  0  1.012568  0  0  0.099387  0.122344  0  1.012144  0
H  H29  1  0.88600057  0.24668045  0.37230764  1  0  0.109784  0  0.947915  0  0  0.123223  0  1.012295  0  0  0.124313  0  1.012532  0  0  0.099361  0.122393  0  1.012118  0
H  H30  1  0.61401284  0.74667919  0.12769555  1  0  0.109636  0  0.948139  0  0  0.123168  0  1.012367  0  0  0.124241  0  1.012636  0  0  0.099374  0.122339  0  1.012185  0
H  H31  1  0.11400866  0.75329381  0.62768313  1  0  0.109801  0  0.948169  0  0  0.123302  0  1.012436  0  0  0.124398  0  1.01267  0  0  0.099424  0.122474  0  1.012253  0
H  H32  1  0.24454917  0.27349252  0.77516199  1  0  0.087166  0  0.966728  0  0  0.099352  0  1.03595  0  0  0.100127  0  1.036711  0  0  0.089512  0.098738  0  1.035481  0
H  H33  1  0.74458126  0.22650733  0.27516850  1  0  0.087123  0  0.966827  0  0  0.099365  0  1.035995  0  0  0.100141  0  1.036759  0  0  0.089505  0.098749  0  1.035529  0
H  H34  1  0.75544049  0.72649069  0.22483234  1  0  0.087253  0  0.966834  0  0  0.09948  0  1.035986  0  0  0.100254  0  1.036751  0  0  0.089555  0.098864  0  1.035519  0
H  H35  1  0.25541540  0.77348996  0.72482465  1  0  0.08705  0  0.966765  0  0  0.099325  0  1.035931  0  0  0.100098  0  1.036704  0  0  0.089493  0.098711  0  1.035463  0
C  C36  1  0.95726697  0.00832013  0.79992512  1  0  -0.23003  0  3.616081  0  0  -0.26082  0  3.873179  0  0  -0.261  0  3.884773  0  0  -0.146927  -0.26064  0  3.865397  0
C  C37  1  0.45727325  0.49166664  0.29992517  1  0  -0.23014  0  3.616012  0  0  -0.260839  0  3.873044  0  0  -0.261012  0  3.884622  0  0  -0.146886  -0.260641  0  3.865212  0
C  C38  1  0.04272929  0.99166692  0.20008585  1  0  -0.229855  0  3.615678  0  0  -0.260879  0  3.873072  0  0  -0.261053  0  3.884649  0  0  -0.146877  -0.260658  0  3.865173  0
C  C39  1  0.54273518  0.50834216  0.70007641  1  0  -0.230203  0  3.616162  0  0  -0.26098  0  3.873329  0  0  -0.261195  0  3.885016  0  0  -0.146893  -0.260736  0  3.865395  0
C  C40  1  0.90427473  0.34598207  0.84775899  1  0  -0.151377  0  3.623603  0  0  -0.184667  0  3.881052  0  0  -0.184987  0  3.894822  0  0  -0.150136  -0.184383  0  3.871588  0
C  C41  1  0.40429519  0.15400173  0.34775849  1  0  -0.151465  0  3.623147  0  0  -0.184732  0  3.880792  0  0  -0.185035  0  3.89453  0  0  -0.150148  -0.18441  0  3.871242  0
C  C42  1  0.09572668  0.65401266  0.15224313  1  0  -0.151418  0  3.623433  0  0  -0.184732  0  3.880973  0  0  -0.185035  0  3.894706  0  0  -0.150111  -0.184447  0  3.871521  0
C  C43  1  0.59571527  0.84600963  0.65222911  1  0  -0.151421  0  3.623152  0  0  -0.184627  0  3.880789  0  0  -0.184925  0  3.894513  0  0  -0.150064  -0.184338  0  3.871327  0
C  C44  1  0.10332581  0.34966094  0.88890267  1  0  -0.106179  0  3.712489  0  0  -0.14582  0  3.960717  0  0  -0.147525  0  3.976959  0  0  -0.171666  -0.144414  0  3.949392  0
C  C45  1  0.60334548  0.15033862  0.38891399  1  0  -0.106239  0  3.71239  0  0  -0.145857  0  3.960712  0  0  -0.147522  0  3.976951  0  0  -0.17155  -0.144424  0  3.949342  0
C  C46  1  0.89667361  0.65035042  0.11108924  1  0  -0.105976  0  3.712192  0  0  -0.14568  0  3.960568  0  0  -0.147351  0  3.976818  0  0  -0.171518  -0.144257  0  3.949185  0
C  C47  1  0.39665973  0.84965482  0.61108054  1  0  -0.105846  0  3.712239  0  0  -0.145621  0  3.960739  0  0  -0.147277  0  3.97697  0  0  -0.171486  -0.144201  0  3.949358  0
C  C48  1  0.24287906  0.23959768  0.84302897  1  0  -0.146485  0  3.622831  0  0  -0.183077  0  3.881298  0  0  -0.18312  0  3.894938  0  0  -0.153529  -0.18292  0  3.871781  0
C  C49  1  0.74290546  0.26038025  0.34303504  1  0  -0.146594  0  3.622967  0  0  -0.183186  0  3.881577  0  0  -0.183225  0  3.895209  0  0  -0.153563  -0.183034  0  3.872076  0
C  C50  1  0.75711086  0.76037403  0.15696983  1  0  -0.146705  0  3.623107  0  0  -0.183271  0  3.881592  0  0  -0.183315  0  3.895238  0  0  -0.153623  -0.183119  0  3.872095  0
C  C51  1  0.25708660  0.73961575  0.65695169  1  0  -0.14652  0  3.623089  0  0  -0.183169  0  3.881752  0  0  -0.183218  0  3.895385  0  0  -0.153548  -0.183014  0  3.872251  0
S  S52  1  0.19541567  0.01141948  0.84681126  1  0  0.099755  0  2.675849  0  0  0.135413  0  3.079536  0  0  0.128035  0  3.073508  0  0  0.005164  0.140164  0  3.083852  0
S  S53  1  0.69541316  0.48856749  0.34680649  1  0  0.099608  0  2.675931  0  0  0.135304  0  3.079578  0  0  0.127944  0  3.073507  0  0  0.005129  0.14005  0  3.083892  0
S  S54  1  0.80459027  0.98857524  0.15319602  1  0  0.099714  0  2.675704  0  0  0.135452  0  3.079478  0  0  0.128089  0  3.073427  0  0  0.005184  0.140198  0  3.083774  0
S  S55  1  0.30460089  0.51143235  0.65319453  1  0  0.099671  0  2.676098  0  0  0.135424  0  3.079798  0  0  0.128069  0  3.073737  0  0  0.005162  0.140163  0  3.084101  0
S  S56  1  0.78815681  0.13880796  0.85183805  1  0  0.094579  0  2.668245  0  0  0.124715  0  3.07902  0  0  0.117644  0  3.07261  0  0  0.002392  0.129507  0  3.083324  0
S  S57  1  0.28816573  0.36116355  0.35183401  1  0  0.094558  0  2.668221  0  0  0.124765  0  3.078902  0  0  0.117708  0  3.07245  0  0  0.002341  0.12955  0  3.083205  0
S  S58  1  0.21184477  0.86118165  0.14816726  1  0  0.094536  0  2.668082  0  0  0.124782  0  3.078954  0  0  0.117722  0  3.072526  0  0  0.002358  0.129559  0  3.08325  0
S  S59  1  0.71183546  0.63884652  0.64816429  1  0  0.094545  0  2.668257  0  0  0.124782  0  3.078985  0  0  0.117726  0  3.072542  0  0  0.002352  0.129558  0  3.083277  0
N  N60  1  0.44047896  0.27860800  0.08326780  1  0  0.687905  0  4.152248  0  0  0.721864  0  4.44166  0  0  0.750115  0  4.449014  0  0  0.092871  0.715071  0  4.418952  0
N  N61  1  0.94045623  0.22140047  0.58327768  1  0  0.687726  0  4.152328  0  0  0.721416  0  4.44201  0  0  0.74987  0  4.44912  0  0  0.09267  0.714737  0  4.419064  0
N  N62  1  0.55949470  0.72139823  0.91674288  1  0  0.688571  0  4.151645  0  0  0.722483  0  4.440973  0  0  0.748919  0  4.448694  0  0  0.093172  0.715416  0  4.418563  0
N  N63  1  0.05949540  0.77863135  0.41671808  1  0  0.68806  0  4.151882  0  0  0.721742  0  4.441591  0  0  0.750138  0  4.448778  0  0  0.092754  0.714643  0  4.419234  0
O  O64  1  0.46730824  0.18408313  0.01842507  1  0  -0.477891  0  1.875403  0  0  -0.442938  0  2.125542  0  0  -0.463275  0  2.11611  0  0  -0.213213  -0.432758  0  2.12706  0
O  O65  1  0.96729038  0.31592522  0.51842162  1  0  -0.477761  0  1.875122  0  0  -0.442767  0  2.125398  0  0  -0.463174  0  2.115881  0  0  -0.213221  -0.432617  0  2.126855  0
O  O66  1  0.53269791  0.81591927  0.98158603  1  0  -0.477944  0  1.875585  0  0  -0.442997  0  2.125832  0  0  -0.462577  0  2.11638  0  0  -0.213214  -0.432739  0  2.127441  0
O  O67  1  0.03270432  0.68402346  0.48158678  1  0  -0.478148  0  1.874286  0  0  -0.443115  0  2.124564  0  0  -0.463563  0  2.115107  0  0  -0.213374  -0.432822  0  2.126197  0
O  O68  1  0.28012480  0.27731973  0.11551112  1  0  -0.486704  0  1.751065  0  0  -0.47554  0  1.96684  0  0  -0.491166  0  1.960456  0  0  -0.203633  -0.468548  0  1.9661  0
O  O69  1  0.78010896  0.22271250  0.61551794  1  0  -0.486674  0  1.75116  0  0  -0.475382  0  1.967007  0  0  -0.491066  0  1.960548  0  0  -0.203512  -0.468434  0  1.966199  0
O  O70  1  0.71989911  0.72271976  0.88448939  1  0  -0.487345  0  1.749556  0  0  -0.476237  0  1.965467  0  0  -0.491096  0  1.959068  0  0  -0.204034  -0.469145  0  1.96482  0
O  O71  1  0.21986064  0.77728350  0.38447105  1  0  -0.486877  0  1.750679  0  0  -0.475605  0  1.966531  0  0  -0.491271  0  1.960088  0  0  -0.203661  -0.468537  0  1.965946  0
O  O72  1  0.57309951  0.37039879  0.11428685  1  0  -0.456372  0  1.758422  0  0  -0.452778  0  1.972896  0  0  -0.4665  0  1.96649  0  0  -0.191798  -0.447128  0  1.972121  0
O  O73  1  0.07307720  0.12960468  0.61430273  1  0  -0.456195  0  1.758476  0  0  -0.452522  0  1.973059  0  0  -0.466318  0  1.9666  0  0  -0.191663  -0.446904  0  1.972212  0
O  O74  1  0.42692921  0.62961001  0.88572391  1  0  -0.45634  0  1.759186  0  0  -0.452729  0  1.973717  0  0  -0.465673  0  1.967346  0  0  -0.191707  -0.446995  0  1.973032  0
O  O75  1  0.92691673  0.87042201  0.38574196  1  0  -0.456024  0  1.759609  0  0  -0.45229  0  1.974161  0  0  -0.466029  0  1.967695  0  0  -0.19142  -0.446558  0  1.973496  0
