# generated using pymatgen
data_LiH4(CO2)2
_symmetry_space_group_name_H-M   'P 1'
_cell_length_a   6.09810352
_cell_length_b   7.29272735
_cell_length_c   8.95746124
_cell_angle_alpha   104.36108813
_cell_angle_beta   90.95885393
_cell_angle_gamma   99.96142988
_symmetry_Int_Tables_number   1
_chemical_formula_structural   LiH4(CO2)2
_chemical_formula_sum   'Li4 H16 C8 O16'
_cell_volume   379.34563176
_cell_formula_units_Z   4
loop_
 _symmetry_equiv_pos_site_id
 _symmetry_equiv_pos_as_xyz
  1  'x, y, z'
loop_
 _atom_site_type_symbol
 _atom_site_label
 _atom_site_symmetry_multiplicity
 _atom_site_fract_x
 _atom_site_fract_y
 _atom_site_fract_z
 _atom_site_occupancy
 _atom_site_hle17_bader_spin_density
 _atom_site_hle17_ddec_charge
 _atom_site_hle17_ddec_spin_density
 _atom_site_hle17_ddec_sum_bond_order
 _atom_site_hle17_magmom
 _atom_site_hse06_10hf_bader_spin_density
 _atom_site_hse06_10hf_ddec_charge
 _atom_site_hse06_10hf_ddec_spin_density
 _atom_site_hse06_10hf_ddec_sum_bond_order
 _atom_site_hse06_10hf_magmom
 _atom_site_hse06_bader_spin_density
 _atom_site_hse06_ddec_charge
 _atom_site_hse06_ddec_spin_density
 _atom_site_hse06_ddec_sum_bond_order
 _atom_site_hse06_magmom
 _atom_site_pbe_bader_spin_density
 _atom_site_pbe_cm5_charge
 _atom_site_pbe_ddec_charge
 _atom_site_pbe_ddec_spin_density
 _atom_site_pbe_ddec_sum_bond_order
 _atom_site_pbe_magmom
Li  Li0  1  0.34954497  0.10656343  0.10447653  1  0  0.854966  0  0.38024  0  0  0.814556  0  0.4818  0  0  0.824149  0  0.465488  0  0  0.502533  0.807512  0  0.493668  0
Li  Li1  1  0.65045369  0.89343487  0.89552413  1  0  0.854972  0  0.380235  0  0  0.814568  0  0.481784  0  0  0.824161  0  0.465473  0  0  0.502531  0.807524  0  0.493652  0
Li  Li2  1  0.65919862  0.49855387  0.27220969  1  0  0.848821  0  0.410572  0  0  0.810717  0  0.513299  0  0  0.819955  0  0.496955  0  0  0.52103  0.803977  0  0.525159  0
Li  Li3  1  0.34080036  0.50144587  0.72779125  1  0  0.848827  0  0.410561  0  0  0.810715  0  0.513304  0  0  0.819952  0  0.496962  0  0  0.52103  0.803976  0  0.525163  0
H  H4  1  0.05103256  0.19589687  0.94496282  1  0  0.427473  0  0.875504  0  0  0.396418  0  0.938655  0  0  0.407159  0  0.922894  0  0  0.309935  0.388888  0  0.949652  0
H  H5  1  0.94896641  0.80410285  0.05503700  1  0  0.427478  0  0.875498  0  0  0.396422  0  0.938651  0  0  0.407161  0  0.922892  0  0  0.309936  0.388892  0  0.949648  0
H  H6  1  0.27899199  0.33797004  0.97955467  1  0  0.421376  0  0.876411  0  0  0.387883  0  0.953943  0  0  0.398998  0  0.937498  0  0  0.310168  0.379979  0  0.965647  0
H  H7  1  0.72101058  0.66203110  0.02044546  1  0  0.421394  0  0.876403  0  0  0.387906  0  0.953912  0  0  0.399021  0  0.937467  0  0  0.310176  0.380003  0  0.965613  0
H  H8  1  0.02327412  0.01223026  0.29863479  1  0  0.391363  0  0.906131  0  0  0.362457  0  0.979408  0  0  0.374167  0  0.965854  0  0  0.306207  0.354335  0  0.988256  0
H  H9  1  0.97672518  0.98777091  0.70136643  1  0  0.391375  0  0.906134  0  0  0.362464  0  0.979422  0  0  0.374178  0  0.965846  0  0  0.306206  0.354343  0  0.988268  0
H  H10  1  0.63697579  0.20490908  0.35170268  1  0  0.43218  0  0.866331  0  0  0.401172  0  0.930614  0  0  0.411626  0  0.915229  0  0  0.30618  0.393687  0  0.941638  0
H  H11  1  0.36302482  0.79509064  0.64829715  1  0  0.432285  0  0.866182  0  0  0.401204  0  0.930575  0  0  0.411655  0  0.915192  0  0  0.306199  0.393719  0  0.941599  0
H  H12  1  0.39921520  0.26750770  0.39278346  1  0  0.436099  0  0.864926  0  0  0.405751  0  0.928314  0  0  0.416733  0  0.912038  0  0  0.30426  0.397952  0  0.939904  0
H  H13  1  0.60078346  0.73249058  0.60721607  1  0  0.436115  0  0.864899  0  0  0.405761  0  0.928297  0  0  0.416745  0  0.912018  0  0  0.304262  0.397962  0  0.939887  0
H  H14  1  0.04457596  0.42700166  0.14936902  1  0  0.405135  0  0.887575  0  0  0.381752  0  0.952041  0  0  0.392215  0  0.937018  0  0  0.309479  0.374415  0  0.960513  0
H  H15  1  0.95542432  0.57299660  0.85062941  1  0  0.405133  0  0.88759  0  0  0.38175  0  0.952046  0  0  0.392215  0  0.937021  0  0  0.309479  0.374412  0  0.960529  0
H  H16  1  0.24498610  0.58526425  0.37312763  1  0  0.067189  0  0.931153  0  0  0.075005  0  0.996869  0  0  0.077492  0  0.994984  0  0  0.129233  0.073173  0  0.998481  0
H  H17  1  0.75501451  0.41473547  0.62687220  1  0  0.067198  0  0.931152  0  0  0.075013  0  0.996873  0  0  0.077501  0  0.994986  0  0  0.12923  0.07318  0  0.998485  0
H  H18  1  0.35327813  0.91793214  0.37285573  1  0  0.066469  0  0.92391  0  0  0.073336  0  0.992047  0  0  0.076026  0  0.989193  0  0  0.120128  0.071326  0  0.994394  0
H  H19  1  0.64672085  0.08206760  0.62714520  1  0  0.066494  0  0.923904  0  0  0.073352  0  0.992046  0  0  0.076044  0  0.989194  0  0  0.120122  0.071342  0  0.994392  0
C  C20  1  0.11711850  0.65571376  0.33345070  1  0  0.060471  0  3.681906  0  0  0.033021  0  3.941307  0  0  0.033988  0  3.948413  0  0  0.001028  0.032174  0  3.9366  0
C  C21  1  0.88288211  0.34428597  0.66655025  1  0  0.060413  0  3.681941  0  0  0.032944  0  3.941352  0  0  0.033911  0  3.948459  0  0  0.000984  0.032098  0  3.936643  0
C  C22  1  0.24367727  0.82314947  0.27437980  1  0  0.054238  0  3.64624  0  0  0.023579  0  3.902269  0  0  0.025144  0  3.909583  0  0  0.001518  0.022401  0  3.897505  0
C  C23  1  0.75632366  0.17685170  0.72562144  1  0  0.054164  0  3.646278  0  0  0.023511  0  3.902292  0  0  0.025067  0  3.909617  0  0  0.001532  0.022334  0  3.897527  0
C  C24  1  0.39754367  0.75468333  0.14581219  1  0  0.687862  0  3.84835  0  0  0.643374  0  4.142551  0  0  0.675044  0  4.134264  0  0  0.235581  0.621996  0  4.14743  0
C  C25  1  0.60245397  0.24531783  0.85418678  1  0  0.687962  0  3.848248  0  0  0.64349  0  4.142405  0  0  0.675168  0  4.134101  0  0  0.235627  0.62211  0  4.147285  0
C  C26  1  0.99339092  0.73575686  0.47601937  1  0  0.661513  0  3.831406  0  0  0.603208  0  4.148566  0  0  0.635667  0  4.141068  0  0  0.227162  0.581143  0  4.153041  0
C  C27  1  0.00660609  0.26424144  0.52398015  1  0  0.661617  0  3.831355  0  0  0.60338  0  4.14841  0  0  0.63584  0  4.140909  0  0  0.227272  0.581314  0  4.152884  0
O  O28  1  0.16129209  0.26960086  0.03261322  1  0  -0.870426  0  1.871751  0  0  -0.821978  0  2.05035  0  0  -0.839759  0  2.017394  0  0  -0.607414  -0.809263  0  2.072754  0
O  O29  1  0.83870720  0.73040030  0.96738688  1  0  -0.870447  0  1.871746  0  0  -0.822  0  2.05032  0  0  -0.839781  0  2.017363  0  0  -0.607426  -0.809287  0  2.072728  0
O  O30  1  0.10430281  0.93085704  0.21598847  1  0  -0.610289  0  2.185835  0  0  -0.550146  0  2.407025  0  0  -0.566827  0  2.393154  0  0  -0.397852  -0.538309  0  2.415782  0
O  O31  1  0.89569585  0.06914125  0.78401218  1  0  -0.610282  0  2.185821  0  0  -0.550143  0  2.407019  0  0  -0.566824  0  2.393131  0  0  -0.397856  -0.538309  0  2.41578  0
O  O32  1  0.51147416  0.25460005  0.31196792  1  0  -0.951761  0  1.797971  0  0  -0.911668  0  1.982412  0  0  -0.926833  0  1.947566  0  0  -0.676022  -0.901124  0  2.00731  0
O  O33  1  0.48852317  0.74539968  0.68803189  1  0  -0.951868  0  1.797816  0  0  -0.911715  0  1.982351  0  0  -0.926881  0  1.947508  0  0  -0.676041  -0.901172  0  2.007249  0
O  O34  1  0.51108905  0.62988788  0.16037129  1  0  -0.71097  0  2.008058  0  0  -0.663628  0  2.247594  0  0  -0.687022  0  2.235829  0  0  -0.385708  -0.647138  0  2.255221  0
O  O35  1  0.48891383  0.37011470  0.83962913  1  0  -0.711029  0  2.008132  0  0  -0.66367  0  2.247641  0  0  -0.687065  0  2.235871  0  0  -0.38573  -0.647179  0  2.255271  0
O  O36  1  0.96557837  0.52225355  0.21993897  1  0  -0.626945  0  2.111158  0  0  -0.580652  0  2.339427  0  0  -0.594408  0  2.323618  0  0  -0.462329  -0.570933  0  2.348476  0
O  O37  1  0.03442061  0.47774618  0.78006197  1  0  -0.626916  0  2.11117  0  0  -0.580624  0  2.339449  0  0  -0.594381  0  2.32364  0  0  -0.462314  -0.570905  0  2.348505  0
O  O38  1  0.11283678  0.85237127  0.58999038  1  0  -0.624762  0  1.991838  0  0  -0.563766  0  2.211783  0  0  -0.589109  0  2.201329  0  0  -0.295766  -0.546215  0  2.21841  0
O  O39  1  0.88716446  0.14763133  0.41001003  1  0  -0.624694  0  1.99192  0  0  -0.563749  0  2.211838  0  0  -0.58909  0  2.201383  0  0  -0.295751  -0.546199  0  2.218467  0
O  O40  1  0.40538859  0.83454287  0.03495201  1  0  -0.741508  0  1.980058  0  0  -0.693905  0  2.209349  0  0  -0.714785  0  2.197148  0  0  -0.404471  -0.679337  0  2.217347  0
O  O41  1  0.59460483  0.16545400  0.96504608  1  0  -0.741539  0  1.979922  0  0  -0.693954  0  2.20922  0  0  -0.714838  0  2.197011  0  0  -0.404495  -0.679387  0  2.217219  0
O  O42  1  0.78325498  0.68353984  0.47046654  1  0  -0.678524  0  1.98271  0  0  -0.626486  0  2.220978  0  0  -0.649618  0  2.208824  0  0  -0.354879  -0.610634  0  2.22908  0
O  O43  1  0.21674860  0.31645844  0.52953528  1  0  -0.678622  0  1.982617  0  0  -0.626627  0  2.220867  0  0  -0.649759  0  2.208716  0  0  -0.354972  -0.610774  0  2.228969  0
