# generated using pymatgen
data_ZnH12(C7O3)2
_symmetry_space_group_name_H-M   'P 1'
_cell_length_a   6.23126336
_cell_length_b   7.09039445
_cell_length_c   15.61315485
_cell_angle_alpha   76.92909734
_cell_angle_beta   84.94326693
_cell_angle_gamma   67.29696168
_symmetry_Int_Tables_number   1
_chemical_formula_structural   ZnH12(C7O3)2
_chemical_formula_sum   'Zn2 H24 C28 O12'
_cell_volume   619.88503425
_cell_formula_units_Z   2
loop_
 _symmetry_equiv_pos_site_id
 _symmetry_equiv_pos_as_xyz
  1  'x, y, z'
loop_
 _atom_site_type_symbol
 _atom_site_label
 _atom_site_symmetry_multiplicity
 _atom_site_fract_x
 _atom_site_fract_y
 _atom_site_fract_z
 _atom_site_occupancy
 _atom_site_hle17_bader_spin_density
 _atom_site_hle17_ddec_charge
 _atom_site_hle17_ddec_spin_density
 _atom_site_hle17_ddec_sum_bond_order
 _atom_site_hle17_magmom
 _atom_site_hse06_10hf_bader_spin_density
 _atom_site_hse06_10hf_ddec_charge
 _atom_site_hse06_10hf_ddec_spin_density
 _atom_site_hse06_10hf_ddec_sum_bond_order
 _atom_site_hse06_10hf_magmom
 _atom_site_hse06_bader_spin_density
 _atom_site_hse06_ddec_charge
 _atom_site_hse06_ddec_spin_density
 _atom_site_hse06_ddec_sum_bond_order
 _atom_site_hse06_magmom
 _atom_site_pbe_bader_spin_density
 _atom_site_pbe_cm5_charge
 _atom_site_pbe_ddec_charge
 _atom_site_pbe_ddec_spin_density
 _atom_site_pbe_ddec_sum_bond_order
 _atom_site_pbe_magmom
Zn  Zn0  1  0.99999024  0.00000725  0.00000369  1  0  1.198437  0  1.688083  0  0  1.047346  0  2.119872  0  0  1.093596  0  2.060153  0  0  0.672741  1.01439  0  2.161452  0
Zn  Zn1  1  0.49998488  0.00000935  0.00000044  1  0  1.198185  0  1.688228  0  0  1.047157  0  2.120347  0  0  1.093376  0  2.060622  0  0  0.672531  1.01427  0  2.161872  0
H  H2  1  0.89687333  0.88723379  0.27624993  1  0  0.097839  0  0.965983  0  0  0.107164  0  1.028968  0  0  0.11027  0  1.026505  0  0  0.103356  0.10473  0  1.031222  0
H  H3  1  0.60360397  0.83411618  0.27610835  1  0  0.096619  0  0.965783  0  0  0.105942  0  1.029019  0  0  0.109139  0  1.02647  0  0  0.10309  0.103457  0  1.031321  0
H  H4  1  0.10312416  0.11274260  0.72375800  1  0  0.097797  0  0.966093  0  0  0.107174  0  1.029005  0  0  0.11028  0  1.026543  0  0  0.103386  0.104744  0  1.03126  0
H  H5  1  0.39637136  0.16589240  0.72389256  1  0  0.096593  0  0.965724  0  0  0.105949  0  1.028932  0  0  0.109148  0  1.026382  0  0  0.103089  0.10346  0  1.031233  0
H  H6  1  0.89170943  0.81378207  0.43895699  1  0  0.077085  0  0.992344  0  0  0.088712  0  1.056529  0  0  0.091293  0  1.055319  0  0  0.094513  0.08671  0  1.057882  0
H  H7  1  0.60829649  0.74590872  0.43884516  1  0  0.077371  0  0.99121  0  0  0.088683  0  1.055875  0  0  0.091377  0  1.054534  0  0  0.094401  0.08658  0  1.057399  0
H  H8  1  0.10828455  0.18620210  0.56104957  1  0  0.077116  0  0.99245  0  0  0.088758  0  1.056591  0  0  0.09134  0  1.055379  0  0  0.094512  0.086754  0  1.057946  0
H  H9  1  0.39170372  0.25409228  0.56115555  1  0  0.077348  0  0.99128  0  0  0.088651  0  1.055949  0  0  0.091345  0  1.054609  0  0  0.094408  0.086554  0  1.057464  0
H  H10  1  0.95500799  0.62927819  0.56314526  1  0  0.081601  0  0.973763  0  0  0.092532  0  1.038913  0  0  0.095154  0  1.038061  0  0  0.096061  0.090672  0  1.039673  0
H  H11  1  0.54356690  0.80936783  0.56290176  1  0  0.081919  0  0.975006  0  0  0.093316  0  1.039545  0  0  0.095858  0  1.03886  0  0  0.096303  0.091487  0  1.040238  0
H  H12  1  0.04499741  0.37072990  0.43685207  1  0  0.081517  0  0.973711  0  0  0.092438  0  1.038902  0  0  0.095059  0  1.038052  0  0  0.096013  0.090582  0  1.039653  0
H  H13  1  0.45644551  0.19061931  0.43709776  1  0  0.08193  0  0.974677  0  0  0.093316  0  1.039244  0  0  0.09586  0  1.038558  0  0  0.096299  0.091484  0  1.039943  0
H  H14  1  0.95034004  0.55879663  0.72529509  1  0  0.102354  0  0.947581  0  0  0.110881  0  1.011016  0  0  0.114174  0  1.008709  0  0  0.105971  0.108467  0  1.012821  0
H  H15  1  0.54834654  0.71841161  0.72508982  1  0  0.1025  0  0.945632  0  0  0.11085  0  1.009392  0  0  0.114212  0  1.006979  0  0  0.105948  0.108383  0  1.01127  0
H  H16  1  0.04968707  0.44117422  0.27470233  1  0  0.102364  0  0.947727  0  0  0.110891  0  1.011158  0  0  0.114183  0  1.008851  0  0  0.105961  0.108475  0  1.012969  0
H  H17  1  0.45167689  0.28157064  0.27491015  1  0  0.102533  0  0.945652  0  0  0.110863  0  1.009435  0  0  0.114228  0  1.007022  0  0  0.105939  0.108396  0  1.011317  0
H  H18  1  0.08501953  0.29371236  0.04438722  1  0  0.43475  0  0.853952  0  0  0.401908  0  0.927572  0  0  0.412784  0  0.91175  0  0  0.302986  0.394181  0  0.938827  0
H  H19  1  0.41507361  0.66194296  0.04440266  1  0  0.433778  0  0.855585  0  0  0.400964  0  0.928678  0  0  0.41187  0  0.912841  0  0  0.302578  0.393206  0  0.93996  0
H  H20  1  0.91496198  0.70630396  0.95561255  1  0  0.43479  0  0.853947  0  0  0.401969  0  0.92748  0  0  0.412844  0  0.911652  0  0  0.303007  0.394239  0  0.938738  0
H  H21  1  0.58491484  0.33805908  0.95559858  1  0  0.433634  0  0.855753  0  0  0.400848  0  0.928831  0  0  0.41175  0  0.913001  0  0  0.30256  0.393091  0  0.94011  0
H  H22  1  0.11311299  0.36639257  0.93977039  1  0  0.43896  0  0.865123  0  0  0.405172  0  0.930977  0  0  0.417101  0  0.914041  0  0  0.29607  0.396773  0  0.942898  0
H  H23  1  0.38704768  0.69377159  0.93976046  1  0  0.439459  0  0.864632  0  0  0.405168  0  0.931392  0  0  0.417098  0  0.914455  0  0  0.296001  0.396776  0  0.943303  0
H  H24  1  0.88687784  0.63361372  0.06022924  1  0  0.43898  0  0.865095  0  0  0.405181  0  0.930969  0  0  0.417111  0  0.914033  0  0  0.296034  0.396786  0  0.942887  0
H  H25  1  0.61294447  0.30623522  0.06023996  1  0  0.439532  0  0.864542  0  0  0.405242  0  0.9313  0  0  0.417173  0  0.914362  0  0  0.296004  0.396852  0  0.943211  0
C  C26  1  0.25003864  0.91554263  0.16820498  1  0  0.681536  0  3.850806  0  0  0.627723  0  4.14415  0  0  0.664347  0  4.135641  0  0  0.220068  0.602784  0  4.149084  0
C  C27  1  0.74991950  0.08447386  0.83179778  1  0  0.681642  0  3.850862  0  0  0.627755  0  4.144319  0  0  0.664363  0  4.135833  0  0  0.220071  0.602811  0  4.149257  0
C  C28  1  0.25019009  0.86562445  0.26620450  1  0  -0.07203  0  3.754031  0  0  -0.052418  0  3.992153  0  0  -0.06218  0  4.01581  0  0  -0.018915  -0.045909  0  3.975996  0
C  C29  1  0.74980860  0.13438566  0.73379927  1  0  -0.072141  0  3.754127  0  0  -0.05247  0  3.992245  0  0  -0.062229  0  4.015906  0  0  -0.018832  -0.04595  0  3.976073  0
C  C30  1  0.05156254  0.85535258  0.31300604  1  0  -0.054627  0  3.745432  0  0  -0.08012  0  3.99469  0  0  -0.079035  0  4.01602  0  0  -0.080914  -0.080569  0  3.980156  0
C  C31  1  0.44868532  0.82938995  0.31290685  1  0  -0.052652  0  3.742778  0  0  -0.078107  0  3.992067  0  0  -0.077112  0  4.013402  0  0  -0.080669  -0.078502  0  3.977547  0
C  C32  1  0.94842997  0.14464808  0.68699302  1  0  -0.054426  0  3.745759  0  0  -0.079964  0  3.99501  0  0  -0.078879  0  4.016339  0  0  -0.080902  -0.080425  0  3.98048  0
C  C33  1  0.55131314  0.17059944  0.68708619  1  0  -0.052739  0  3.742682  0  0  -0.078223  0  3.991969  0  0  -0.077232  0  4.013307  0  0  -0.080701  -0.078615  0  3.977442  0
C  C34  1  0.05133921  0.81161119  0.40421964  1  0  -0.11361  0  3.749195  0  0  -0.130894  0  3.997057  0  0  -0.135622  0  4.019771  0  0  -0.091092  -0.127644  0  3.981591  0
C  C35  1  0.44864977  0.78268476  0.40416876  1  0  -0.113797  0  3.74536  0  0  -0.130916  0  3.993332  0  0  -0.1357  0  4.016037  0  0  -0.090652  -0.127646  0  3.977887  0
C  C36  1  0.94865805  0.18836668  0.59577923  1  0  -0.113773  0  3.749581  0  0  -0.131016  0  3.997495  0  0  -0.135744  0  4.020207  0  0  -0.091072  -0.127764  0  3.982033  0
C  C37  1  0.55134952  0.21732402  0.59582566  1  0  -0.11373  0  3.745245  0  0  -0.130786  0  3.993249  0  0  -0.135568  0  4.015954  0  0  -0.090608  -0.127519  0  3.977806  0
C  C38  1  0.24982318  0.77350003  0.45226036  1  0  0.055055  0  3.763966  0  0  0.066961  0  3.996897  0  0  0.068528  0  4.019699  0  0  -0.005377  0.066118  0  3.981091  0
C  C39  1  0.75018904  0.22649675  0.54774302  1  0  0.055269  0  3.764225  0  0  0.066961  0  3.997345  0  0  0.068524  0  4.02015  0  0  -0.005476  0.066116  0  3.981544  0
C  C40  1  0.24942244  0.72579809  0.54937888  1  0  0.061846  0  3.764451  0  0  0.076606  0  3.992924  0  0  0.07854  0  4.015464  0  0  -0.000278  0.075562  0  3.977368  0
C  C41  1  0.75060758  0.27418852  0.45063094  1  0  0.061741  0  3.764907  0  0  0.076681  0  3.993204  0  0  0.078616  0  4.015746  0  0  -0.000261  0.075639  0  3.97764  0
C  C42  1  0.08210788  0.65609514  0.59740009  1  0  -0.113407  0  3.729195  0  0  -0.130731  0  3.977886  0  0  -0.13545  0  3.999643  0  0  -0.088674  -0.127595  0  3.962924  0
C  C43  1  0.41640277  0.74835597  0.59728510  1  0  -0.115841  0  3.729697  0  0  -0.133644  0  3.978716  0  0  -0.138377  0  4.000586  0  0  -0.089576  -0.130491  0  3.963668  0
C  C44  1  0.91792798  0.34389488  0.40259180  1  0  -0.113358  0  3.729011  0  0  -0.130704  0  3.977671  0  0  -0.135424  0  3.99943  0  0  -0.088671  -0.127566  0  3.962704  0
C  C45  1  0.58364711  0.25163825  0.40272034  1  0  -0.115822  0  3.729663  0  0  -0.133647  0  3.978629  0  0  -0.138379  0  4.0005  0  0  -0.089512  -0.130493  0  3.96358  0
C  C46  1  0.07966441  0.61351768  0.68863622  1  0  -0.050979  0  3.726033  0  0  -0.076193  0  3.976635  0  0  -0.074892  0  3.997007  0  0  -0.077457  -0.076851  0  3.962631  0
C  C47  1  0.41878541  0.70022863  0.68855127  1  0  -0.049758  0  3.722048  0  0  -0.074733  0  3.972804  0  0  -0.073436  0  3.993042  0  0  -0.076726  -0.075373  0  3.958876  0
C  C48  1  0.92036344  0.38647922  0.31136188  1  0  -0.050935  0  3.726325  0  0  -0.076174  0  3.976929  0  0  -0.074872  0  3.997303  0  0  -0.077394  -0.076829  0  3.962923  0
C  C49  1  0.58124678  0.29976739  0.31144259  1  0  -0.049905  0  3.722184  0  0  -0.074882  0  3.972958  0  0  -0.07359  0  3.993204  0  0  -0.076798  -0.07553  0  3.959035  0
C  C50  1  0.24922167  0.63354727  0.73525719  1  0  -0.076956  0  3.758515  0  0  -0.056255  0  3.997963  0  0  -0.065985  0  4.02219  0  0  -0.018403  -0.049763  0  3.981453  0
C  C51  1  0.75079569  0.36643673  0.26474637  1  0  -0.076767  0  3.758667  0  0  -0.056069  0  3.998085  0  0  -0.065804  0  4.022325  0  0  -0.018369  -0.049578  0  3.981575  0
C  C52  1  0.24974789  0.58397608  0.83308309  1  0  0.68181  0  3.83661  0  0  0.621932  0  4.14248  0  0  0.656562  0  4.133478  0  0  0.223975  0.598485  0  4.147835  0
C  C53  1  0.75026393  0.41602579  0.16691515  1  0  0.681596  0  3.836253  0  0  0.621776  0  4.142033  0  0  0.656413  0  4.133027  0  0  0.223937  0.598332  0  4.147387  0
O  O54  1  0.06355681  0.94201507  0.13026742  1  0  -0.648371  0  2.029516  0  0  -0.576303  0  2.281347  0  0  -0.605304  0  2.268217  0  0  -0.321145  -0.556034  0  2.289817  0
O  O55  1  0.43602735  0.92827185  0.13024388  1  0  -0.64782  0  2.031956  0  0  -0.576024  0  2.284067  0  0  -0.604998  0  2.270904  0  0  -0.32059  -0.55577  0  2.292546  0
O  O56  1  0.93640780  0.05798748  0.86973046  1  0  -0.648305  0  2.029346  0  0  -0.576247  0  2.281218  0  0  -0.605244  0  2.268101  0  0  -0.321091  -0.555978  0  2.289687  0
O  O57  1  0.56393232  0.07176851  0.86975864  1  0  -0.647824  0  2.032011  0  0  -0.576046  0  2.284217  0  0  -0.60502  0  2.271068  0  0  -0.320683  -0.555796  0  2.292703  0
O  O58  1  0.06508927  0.57058209  0.87252632  1  0  -0.645088  0  1.983945  0  0  -0.581181  0  2.201952  0  0  -0.605228  0  2.188652  0  0  -0.322129  -0.564524  0  2.210907  0
O  O59  1  0.43492679  0.55714153  0.87235082  1  0  -0.64502  0  1.981755  0  0  -0.580727  0  2.199463  0  0  -0.604793  0  2.18623  0  0  -0.321387  -0.564039  0  2.208348  0
O  O60  1  0.93492683  0.42941954  0.12746703  1  0  -0.644993  0  1.983902  0  0  -0.581085  0  2.201881  0  0  -0.605135  0  2.188582  0  0  -0.322084  -0.564437  0  2.210839  0
O  O61  1  0.56504525  0.44286625  0.12765134  1  0  -0.64507  0  1.98148  0  0  -0.580773  0  2.199136  0  0  -0.604842  0  2.185895  0  0  -0.321387  -0.564081  0  2.208024  0
O  O62  1  0.14490567  0.23702710  0.99013509  1  0  -0.871736  0  2.005124  0  0  -0.797199  0  2.241761  0  0  -0.822223  0  2.203102  0  0  -0.555283  -0.7795  0  2.268673  0
O  O63  1  0.35520162  0.77274644  0.99024781  1  0  -0.871147  0  2.006768  0  0  -0.796381  0  2.244052  0  0  -0.821515  0  2.205359  0  0  -0.554753  -0.778545  0  2.270865  0
O  O64  1  0.85507415  0.76298407  0.00986408  1  0  -0.8718  0  2.005217  0  0  -0.797234  0  2.241774  0  0  -0.822247  0  2.203125  0  0  -0.555221  -0.779533  0  2.268689  0
O  O65  1  0.64477579  0.22727020  0.00974763  1  0  -0.871059  0  2.006809  0  0  -0.796323  0  2.244109  0  0  -0.821455  0  2.205419  0  0  -0.554733  -0.778497  0  2.270943  0
