# generated using pymatgen
data_CdH12C15(NO)5
_symmetry_space_group_name_H-M   'P 1'
_cell_length_a   10.12342949
_cell_length_b   9.78901170
_cell_length_c   9.46218686
_cell_angle_alpha   107.70120055
_cell_angle_beta   105.53071288
_cell_angle_gamma   97.00152314
_symmetry_Int_Tables_number   1
_chemical_formula_structural   CdH12C15(NO)5
_chemical_formula_sum   'Cd2 H24 C30 N10 O10'
_cell_volume   839.29719765
_cell_formula_units_Z   2
loop_
 _symmetry_equiv_pos_site_id
 _symmetry_equiv_pos_as_xyz
  1  'x, y, z'
loop_
 _atom_site_type_symbol
 _atom_site_label
 _atom_site_symmetry_multiplicity
 _atom_site_fract_x
 _atom_site_fract_y
 _atom_site_fract_z
 _atom_site_occupancy
 _atom_site_hle17_bader_spin_density
 _atom_site_hle17_ddec_charge
 _atom_site_hle17_ddec_spin_density
 _atom_site_hle17_ddec_sum_bond_order
 _atom_site_hle17_magmom
 _atom_site_hse06_10hf_bader_spin_density
 _atom_site_hse06_10hf_ddec_charge
 _atom_site_hse06_10hf_ddec_spin_density
 _atom_site_hse06_10hf_ddec_sum_bond_order
 _atom_site_hse06_10hf_magmom
 _atom_site_hse06_bader_spin_density
 _atom_site_hse06_ddec_charge
 _atom_site_hse06_ddec_spin_density
 _atom_site_hse06_ddec_sum_bond_order
 _atom_site_hse06_magmom
 _atom_site_pbe_bader_spin_density
 _atom_site_pbe_cm5_charge
 _atom_site_pbe_ddec_charge
 _atom_site_pbe_ddec_spin_density
 _atom_site_pbe_ddec_sum_bond_order
 _atom_site_pbe_magmom
Cd  Cd0  1  0.39949641  0.79876981  0.21344950  1  0  1.119525  0  1.668544  0  0  0.9245  0  2.115115  0  0  0.98223  0  2.064787  0  0  0.7645  0.880203  0  2.152039  0
Cd  Cd1  1  0.60050503  0.20122697  0.78654786  1  0  1.119539  0  1.668518  0  0  0.924509  0  2.115096  0  0  0.982251  0  2.064763  0  0  0.764496  0.880216  0  2.152022  0
H  H2  1  0.40798798  0.74143553  0.63003492  1  0  0.320751  0  0.905897  0  0  0.305962  0  0.958851  0  0  0.315171  0  0.951104  0  0  0.313891  0.299653  0  0.964169  0
H  H3  1  0.59200518  0.25855467  0.36996467  1  0  0.320705  0  0.905909  0  0  0.305972  0  0.9588  0  0  0.315181  0  0.951056  0  0  0.313917  0.299662  0  0.964121  0
H  H4  1  0.55926423  0.85761684  0.54211712  1  0  0.42783  0  0.874747  0  0  0.397826  0  0.936943  0  0  0.408388  0  0.921655  0  0  0.290429  0.390403  0  0.947672  0
H  H5  1  0.44073878  0.14237672  0.45786366  1  0  0.427632  0  0.874959  0  0  0.397711  0  0.937033  0  0  0.408274  0  0.921743  0  0  0.290383  0.39029  0  0.947758  0
H  H6  1  0.41368689  0.89356102  0.53831414  1  0  0.413883  0  0.891213  0  0  0.382473  0  0.963242  0  0  0.392994  0  0.948174  0  0  0.290151  0.374964  0  0.974029  0
H  H7  1  0.58632318  0.10644017  0.46167611  1  0  0.413939  0  0.891132  0  0  0.382532  0  0.96314  0  0  0.393049  0  0.948081  0  0  0.29014  0.375022  0  0.973932  0
H  H8  1  0.91331560  0.82469639  0.22607184  1  0  0.102367  0  0.991287  0  0  0.102909  0  1.068527  0  0  0.107021  0  1.065884  0  0  0.100971  0.09946  0  1.071538  0
H  H9  1  0.08668684  0.17530592  0.77392335  1  0  0.10221  0  0.991438  0  0  0.102783  0  1.068659  0  0  0.106903  0  1.066007  0  0  0.100926  0.099335  0  1.07167  0
H  H10  1  0.07914660  0.81065868  0.99966353  1  0  0.113267  0  0.971412  0  0  0.120183  0  1.036105  0  0  0.123304  0  1.034634  0  0  0.101501  0.118081  0  1.037068  0
H  H11  1  0.92085714  0.18933479  0.00033221  1  0  0.113263  0  0.971354  0  0  0.120185  0  1.036047  0  0  0.123306  0  1.034577  0  0  0.101499  0.118082  0  1.037008  0
H  H12  1  0.86724788  0.74845051  0.76670596  1  0  0.088939  0  0.967824  0  0  0.09526  0  1.033574  0  0  0.098556  0  1.032066  0  0  0.093161  0.092846  0  1.034714  0
H  H13  1  0.13274634  0.25155840  0.23330113  1  0  0.088969  0  0.968035  0  0  0.095285  0  1.033765  0  0  0.09858  0  1.032257  0  0  0.093172  0.092871  0  1.034909  0
H  H14  1  0.88179331  0.67183093  0.49829145  1  0  0.095016  0  0.947136  0  0  0.106054  0  1.004502  0  0  0.109067  0  1.003222  0  0  0.09961  0.103647  0  1.005766  0
H  H15  1  0.11818237  0.32818038  0.50169941  1  0  0.094956  0  0.947559  0  0  0.105981  0  1.004915  0  0  0.108989  0  1.00364  0  0  0.099544  0.103574  0  1.006178  0
H  H16  1  0.11268024  0.66239520  0.45189921  1  0  0.12112  0  0.939038  0  0  0.131666  0  0.995258  0  0  0.135133  0  0.99365  0  0  0.108165  0.129602  0  0.995833  0
H  H17  1  0.88730827  0.33761269  0.54809880  1  0  0.121055  0  0.939186  0  0  0.131629  0  0.995357  0  0  0.135094  0  0.993751  0  0  0.108205  0.129585  0  0.995909  0
H  H18  1  0.64292585  0.87470599  0.87051974  1  0  0.128964  0  0.900691  0  0  0.140024  0  0.962659  0  0  0.142313  0  0.959521  0  0  0.128271  0.137491  0  0.965758  0
H  H19  1  0.35705872  0.12527992  0.12946690  1  0  0.128902  0  0.900577  0  0  0.140003  0  0.962561  0  0  0.142299  0  0.959426  0  0  0.12828  0.137467  0  0.965666  0
H  H20  1  0.63204368  0.88938114  0.05914453  1  0  0.125224  0  0.921151  0  0  0.135646  0  0.984489  0  0  0.137112  0  0.983137  0  0  0.127586  0.134672  0  0.984374  0
H  H21  1  0.36793497  0.11060466  0.94086609  1  0  0.125164  0  0.921107  0  0  0.135606  0  0.984473  0  0  0.137071  0  0.983136  0  0  0.127522  0.13463  0  0.984356  0
H  H22  1  0.45354365  0.50687932  0.81565889  1  0  0.129093  0  0.935756  0  0  0.135954  0  1.000407  0  0  0.139134  0  0.995909  0  0  0.145864  0.13332  0  1.003579  0
H  H23  1  0.54645136  0.49310209  0.18433188  1  0  0.129154  0  0.935861  0  0  0.136038  0  1.000467  0  0  0.139212  0  0.995985  0  0  0.145898  0.133405  0  1.003641  0
H  H24  1  0.88289291  0.50724576  0.97076453  1  0  0.099396  0  0.920471  0  0  0.111317  0  0.978027  0  0  0.113227  0  0.975653  0  0  0.142024  0.109753  0  0.979803  0
H  H25  1  0.11710967  0.49276759  0.02923011  1  0  0.09949  0  0.920345  0  0  0.111372  0  0.977938  0  0  0.113283  0  0.975564  0  0  0.142017  0.109809  0  0.979713  0
C  C26  1  0.70268066  0.86958932  0.34010470  1  0  0.653605  0  3.907781  0  0  0.60241  0  4.204931  0  0  0.63667  0  4.196229  0  0  0.202088  0.578784  0  4.210524  0
C  C27  1  0.29733772  0.13042725  0.65988941  1  0  0.653672  0  3.907444  0  0  0.602259  0  4.204748  0  0  0.636517  0  4.196046  0  0  0.201954  0.578634  0  4.210343  0
C  C28  1  0.95151971  0.90138573  0.34665002  1  0  -0.078076  0  3.696524  0  0  -0.108909  0  3.947737  0  0  -0.109292  0  3.966046  0  0  -0.07767  -0.109942  0  3.93766  0
C  C29  1  0.04848480  0.09861430  0.65335548  1  0  -0.077716  0  3.697229  0  0  -0.108661  0  3.948281  0  0  -0.109063  0  3.966581  0  0  -0.077576  -0.109689  0  3.938199  0
C  C30  1  0.85575448  0.93688873  0.42672722  1  0  -0.054586  0  3.718906  0  0  -0.043406  0  3.959515  0  0  -0.047061  0  3.978247  0  0  -0.00721  -0.04021  0  3.947246  0
C  C31  1  0.14425241  0.06312771  0.57330120  1  0  -0.054746  0  3.71925  0  0  -0.043192  0  3.959431  0  0  -0.046822  0  3.978145  0  0  -0.007113  -0.040001  0  3.947158  0
C  C32  1  0.90487518  0.03613901  0.58233067  1  0  -0.052792  0  3.717751  0  0  -0.040892  0  3.956253  0  0  -0.045217  0  3.975873  0  0  -0.006511  -0.037312  0  3.943452  0
C  C33  1  0.09513579  0.96387413  0.41769126  1  0  -0.052852  0  3.717647  0  0  -0.041035  0  3.956033  0  0  -0.045389  0  3.975663  0  0  -0.006532  -0.037446  0  3.943231  0
C  C34  1  0.80682678  0.07908726  0.67342004  1  0  0.651457  0  3.902439  0  0  0.602307  0  4.192384  0  0  0.636439  0  4.184849  0  0  0.201252  0.5788  0  4.196578  0
C  C35  1  0.19317147  0.92089726  0.32660320  1  0  0.651397  0  3.902506  0  0  0.602242  0  4.192467  0  0  0.636385  0  4.184925  0  0  0.201163  0.578727  0  4.196677  0
C  C36  1  0.21692826  0.77343104  0.85653811  1  0  0.140345  0  3.825331  0  0  0.140069  0  4.067217  0  0  0.142429  0  4.092844  0  0  0.078152  0.138638  0  4.049348  0
C  C37  1  0.78306333  0.22656476  0.14344816  1  0  0.140379  0  3.826173  0  0  0.140126  0  4.067998  0  0  0.14249  0  4.093634  0  0  0.078161  0.138697  0  4.050126  0
C  C38  1  0.08721525  0.77899251  0.88214327  1  0  -0.151673  0  3.751153  0  0  -0.168865  0  3.999081  0  0  -0.172308  0  4.021242  0  0  -0.099297  -0.166838  0  3.984124  0
C  C39  1  0.91276856  0.22100770  0.11785216  1  0  -0.151711  0  3.750377  0  0  -0.168898  0  3.998292  0  0  -0.172346  0  4.020455  0  0  -0.099326  -0.166866  0  3.983332  0
C  C40  1  0.96910983  0.74236537  0.75047043  1  0  -0.074641  0  3.791026  0  0  -0.092459  0  4.050384  0  0  -0.095834  0  4.074805  0  0  -0.10049  -0.090256  0  4.034078  0
C  C41  1  0.03090392  0.25762906  0.24953960  1  0  -0.074723  0  3.790024  0  0  -0.092549  0  4.049408  0  0  -0.09592  0  4.073819  0  0  -0.100493  -0.090349  0  4.033112  0
C  C42  1  0.97760201  0.69927558  0.59736861  1  0  -0.057705  0  3.774778  0  0  -0.074899  0  4.031999  0  0  -0.077232  0  4.05625  0  0  -0.091691  -0.07301  0  4.016081  0
C  C43  1  0.02240849  0.30073096  0.40264997  1  0  -0.057563  0  3.774681  0  0  -0.074745  0  4.031901  0  0  -0.077076  0  4.056142  0  0  -0.091601  -0.072856  0  4.01599  0
C  C44  1  0.10533096  0.69307218  0.56977809  1  0  -0.14722  0  3.741315  0  0  -0.166272  0  3.994968  0  0  -0.170053  0  4.016318  0  0  -0.092141  -0.163992  0  3.980563  0
C  C45  1  0.89467094  0.30693560  0.43022514  1  0  -0.147262  0  3.740992  0  0  -0.166326  0  3.994682  0  0  -0.170104  0  4.016026  0  0  -0.09227  -0.16406  0  3.980274  0
C  C46  1  0.22401910  0.73154269  0.70193697  1  0  0.16276  0  3.780409  0  0  0.1555  0  4.025302  0  0  0.159654  0  4.047516  0  0  0.093693  0.152824  0  4.010411  0
C  C47  1  0.77597573  0.26845859  0.29805187  1  0  0.162809  0  3.779746  0  0  0.155546  0  4.024668  0  0  0.1597  0  4.04688  0  0  0.093784  0.152862  0  4.009797  0
C  C48  1  0.43829015  0.79087474  0.87416857  1  0  0.371471  0  3.732171  0  0  0.337501  0  4.021722  0  0  0.355053  0  4.033309  0  0  0.223787  0.325662  0  4.012024  0
C  C49  1  0.56170861  0.20911322  0.12583053  1  0  0.371484  0  3.732863  0  0  0.337627  0  4.022323  0  0  0.355247  0  4.033835  0  0  0.223843  0.325769  0  4.012663  0
C  C50  1  0.59449944  0.81885663  0.93516712  1  0  -0.115863  0  3.633701  0  0  -0.190496  0  3.885768  0  0  -0.179099  0  3.894571  0  0  -0.03276  -0.19183  0  3.881979  0
C  C51  1  0.40551419  0.18115328  0.06483954  1  0  -0.115737  0  3.633399  0  0  -0.190536  0  3.885616  0  0  -0.179211  0  3.894435  0  0  -0.0327  -0.191824  0  3.881757  0
C  C52  1  0.56709522  0.54222730  0.86471763  1  0  0.165922  0  3.639727  0  0  0.085676  0  3.907452  0  0  0.109781  0  3.922384  0  0  0.16124  0.076124  0  3.898992  0
C  C53  1  0.43291517  0.45777272  0.13528395  1  0  0.165821  0  3.640042  0  0  0.085551  0  3.907706  0  0  0.109632  0  3.922624  0  0  0.161154  0.075994  0  3.899258  0
C  C54  1  0.78600729  0.54504952  0.94468617  1  0  0.216247  0  3.687275  0  0  0.162068  0  3.971236  0  0  0.175247  0  3.980207  0  0  0.15835  0.153831  0  3.962666  0
C  C55  1  0.21399638  0.45496268  0.05531470  1  0  0.216179  0  3.687431  0  0  0.162017  0  3.971403  0  0  0.175202  0  3.980381  0  0  0.158362  0.153776  0  3.962834  0
N  N56  1  0.35320764  0.80837561  0.96166251  1  0  -0.501626  0  3.130777  0  0  -0.438709  0  3.415647  0  0  -0.46147  0  3.4307  0  0  -0.352452  -0.423042  0  3.404793  0
N  N57  1  0.64679999  0.19161774  0.03835102  1  0  -0.501657  0  3.13148  0  0  -0.438767  0  3.416289  0  0  -0.461554  0  3.43133  0  0  -0.352452  -0.423081  0  3.405411  0
N  N58  1  0.36522005  0.74211215  0.71842326  1  0  -0.375425  0  3.350847  0  0  -0.319419  0  3.581132  0  0  -0.336868  0  3.591419  0  0  -0.378519  -0.307929  0  3.574072  0
N  N59  1  0.63475649  0.25787053  0.28155726  1  0  -0.375395  0  3.350885  0  0  -0.319466  0  3.581119  0  0  -0.336936  0  3.591388  0  0  -0.378611  -0.307972  0  3.574074  0
N  N60  1  0.64243490  0.68133015  0.92133082  1  0  0.051357  0  3.560825  0  0  0.16746  0  3.753921  0  0  0.12934  0  3.811512  0  0  -0.128596  0.17408  0  3.737934  0
N  N61  1  0.35757656  0.31868744  0.07868318  1  0  0.051473  0  3.560763  0  0  0.167643  0  3.75381  0  0  0.129604  0  3.811355  0  0  -0.128486  0.17427  0  3.737825  0
N  N62  1  0.78224851  0.68553933  0.97303749  1  0  -0.248159  0  2.86237  0  0  -0.241279  0  3.127276  0  0  -0.240549  0  3.144854  0  0  -0.204506  -0.235325  0  3.118875  0
N  N63  1  0.21774350  0.31446961  0.02696593  1  0  -0.248216  0  2.861901  0  0  -0.241324  0  3.126753  0  0  -0.240626  0  3.14432  0  0  -0.204503  -0.235374  0  3.118356  0
N  N64  1  0.65607102  0.45312210  0.87797685  1  0  -0.409058  0  3.223816  0  0  -0.334577  0  3.51951  0  0  -0.357746  0  3.530415  0  0  -0.350091  -0.317832  0  3.508646  0
N  N65  1  0.34392673  0.54686812  0.12201324  1  0  -0.409071  0  3.223917  0  0  -0.334601  0  3.519617  0  0  -0.357771  0  3.530529  0  0  -0.350101  -0.317851  0  3.508747  0
O  O66  1  0.66164481  0.73286636  0.27365212  1  0  -0.614225  0  1.90104  0  0  -0.566457  0  2.125483  0  0  -0.590672  0  2.116848  0  0  -0.322468  -0.548472  0  2.130662  0
O  O67  1  0.33837873  0.26714678  0.72635793  1  0  -0.614213  0  1.90103  0  0  -0.566392  0  2.125544  0  0  -0.590615  0  2.116908  0  0  -0.322376  -0.548409  0  2.13073  0
O  O68  1  0.61797620  0.95881147  0.33210233  1  0  -0.692134  0  2.055878  0  0  -0.616963  0  2.302861  0  0  -0.648265  0  2.293362  0  0  -0.337675  -0.594681  0  2.310541  0
O  O69  1  0.38202300  0.04118862  0.66789771  1  0  -0.69218  0  2.055728  0  0  -0.616962  0  2.302806  0  0  -0.648261  0  2.293291  0  0  -0.337667  -0.594692  0  2.310512  0
O  O70  1  0.70891901  0.98115827  0.67029476  1  0  -0.677089  0  1.970918  0  0  -0.614543  0  2.199108  0  0  -0.64131  0  2.18744  0  0  -0.336019  -0.595623  0  2.208465  0
O  O71  1  0.29107255  0.01882535  0.32969910  1  0  -0.677073  0  1.970779  0  0  -0.614566  0  2.198951  0  0  -0.641331  0  2.187274  0  0  -0.336035  -0.595643  0  2.208311  0
O  O72  1  0.82393930  0.21544937  0.75007621  1  0  -0.628361  0  1.934052  0  0  -0.565316  0  2.167622  0  0  -0.593665  0  2.158561  0  0  -0.326601  -0.544312  0  2.172234  0
O  O73  1  0.17606184  0.78454406  0.24992843  1  0  -0.628277  0  1.93414  0  0  -0.565186  0  2.167632  0  0  -0.593536  0  2.158581  0  0  -0.326501  -0.544169  0  2.172231  0
O  O74  1  0.45681908  0.81157821  0.49217194  1  0  -0.819938  0  1.858291  0  0  -0.759404  0  2.033324  0  0  -0.781716  0  2.002852  0  0  -0.580064  -0.742362  0  2.053912  0
O  O75  1  0.54318959  0.18842744  0.50781311  1  0  -0.819764  0  1.858308  0  0  -0.759308  0  2.033316  0  0  -0.78162  0  2.002843  0  0  -0.579997  -0.742266  0  2.053903  0
