# generated using pymatgen
data_ZnH4C6N5Cl
_symmetry_space_group_name_H-M   'P 1'
_cell_length_a   6.12663298
_cell_length_b   9.48336484
_cell_length_c   14.36669957
_cell_angle_alpha   89.99958522
_cell_angle_beta   89.99972771
_cell_angle_gamma   97.61801344
_symmetry_Int_Tables_number   1
_chemical_formula_structural   ZnH4C6N5Cl
_chemical_formula_sum   'Zn4 H16 C24 N20 Cl4'
_cell_volume   827.35366528
_cell_formula_units_Z   4
loop_
 _symmetry_equiv_pos_site_id
 _symmetry_equiv_pos_as_xyz
  1  'x, y, z'
loop_
 _atom_site_type_symbol
 _atom_site_label
 _atom_site_symmetry_multiplicity
 _atom_site_fract_x
 _atom_site_fract_y
 _atom_site_fract_z
 _atom_site_occupancy
 _atom_site_hle17_bader_spin_density
 _atom_site_hle17_ddec_charge
 _atom_site_hle17_ddec_spin_density
 _atom_site_hle17_ddec_sum_bond_order
 _atom_site_hle17_magmom
 _atom_site_hse06_10hf_bader_spin_density
 _atom_site_hse06_10hf_ddec_charge
 _atom_site_hse06_10hf_ddec_spin_density
 _atom_site_hse06_10hf_ddec_sum_bond_order
 _atom_site_hse06_10hf_magmom
 _atom_site_hse06_bader_spin_density
 _atom_site_hse06_ddec_charge
 _atom_site_hse06_ddec_spin_density
 _atom_site_hse06_ddec_sum_bond_order
 _atom_site_hse06_magmom
 _atom_site_pbe_bader_spin_density
 _atom_site_pbe_cm5_charge
 _atom_site_pbe_ddec_charge
 _atom_site_pbe_ddec_spin_density
 _atom_site_pbe_ddec_sum_bond_order
 _atom_site_pbe_magmom
Zn  Zn0  1  0.05154266  0.70784256  0.68606534  1  0  0.872012  0  2.039192  0  0  0.676198  0  2.528658  0  0  0.716333  0  2.483394  0  0  0.65324  0.648115  0  2.560071  0
Zn  Zn1  1  0.05153567  0.20783383  0.31393520  1  0  0.872096  0  2.039091  0  0  0.676253  0  2.528602  0  0  0.716395  0  2.483344  0  0  0.653247  0.648181  0  2.559991  0
Zn  Zn2  1  0.54964895  0.12460329  0.80125838  1  0  0.841702  0  2.057742  0  0  0.64038  0  2.55045  0  0  0.680693  0  2.505213  0  0  0.65474  0.613195  0  2.580092  0
Zn  Zn3  1  0.54965144  0.62459635  0.19874017  1  0  0.841726  0  2.057658  0  0  0.640461  0  2.550346  0  0  0.680768  0  2.505112  0  0  0.654773  0.613278  0  2.579997  0
H  H4  1  0.59816144  0.46472601  0.54781102  1  0  0.126817  0  0.942371  0  0  0.134834  0  1.002868  0  0  0.138279  0  1.002081  0  0  0.105819  0.132346  0  1.003632  0
H  H5  1  0.59814979  0.96471341  0.45218864  1  0  0.126824  0  0.942428  0  0  0.134853  0  1.002891  0  0  0.138297  0  1.002103  0  0  0.105798  0.132366  0  1.003656  0
H  H6  1  0.10031932  0.23236219  0.66226081  1  0  0.109051  0  0.984946  0  0  0.114797  0  1.055088  0  0  0.118338  0  1.053318  0  0  0.095744  0.11175  0  1.057401  0
H  H7  1  0.10028919  0.73234590  0.33773825  1  0  0.109008  0  0.985152  0  0  0.114798  0  1.055233  0  0  0.118334  0  1.053472  0  0  0.095802  0.111751  0  1.057547  0
H  H8  1  0.33886533  0.69015143  0.85340177  1  0  0.115801  0  0.969087  0  0  0.120092  0  1.039644  0  0  0.123896  0  1.037907  0  0  0.101652  0.117192  0  1.041348  0
H  H9  1  0.33888040  0.19015298  0.14659838  1  0  0.115851  0  0.969007  0  0  0.120111  0  1.039591  0  0  0.12392  0  1.037852  0  0  0.101651  0.117208  0  1.041295  0
H  H10  1  0.18982395  0.16769304  0.50201404  1  0  0.084385  0  0.95955  0  0  0.090207  0  1.026524  0  0  0.092851  0  1.024579  0  0  0.107052  0.088316  0  1.02787  0
H  H11  1  0.18983967  0.66768847  0.49798611  1  0  0.084418  0  0.959501  0  0  0.090236  0  1.026476  0  0  0.092878  0  1.024544  0  0  0.107023  0.088347  0  1.027819  0
H  H12  1  0.70263408  0.38445199  0.39046406  1  0  0.079409  0  1.00677  0  0  0.076574  0  1.090722  0  0  0.079496  0  1.087683  0  0  0.104985  0.074228  0  1.093303  0
H  H13  1  0.70264054  0.88445102  0.60953678  1  0  0.079343  0  1.006678  0  0  0.076548  0  1.090615  0  0  0.079469  0  1.087571  0  0  0.104999  0.074202  0  1.093196  0
H  H14  1  0.53975622  0.58714304  0.98074381  1  0  0.090298  0  0.950095  0  0  0.091872  0  1.025424  0  0  0.095313  0  1.021517  0  0  0.1197  0.089237  0  1.028411  0
H  H15  1  0.53976621  0.08714058  0.01925701  1  0  0.090366  0  0.949882  0  0  0.091827  0  1.025312  0  0  0.095269  0  1.021407  0  0  0.119684  0.089195  0  1.028295  0
H  H16  1  0.15702795  0.74756672  0.18373905  1  0  0.073544  0  0.941866  0  0  0.082324  0  1.008451  0  0  0.084435  0  1.006592  0  0  0.113999  0.080597  0  1.010094  0
H  H17  1  0.15702446  0.24755231  0.81626207  1  0  0.073541  0  0.941905  0  0  0.08231  0  1.008503  0  0  0.084421  0  1.006645  0  0  0.11404  0.080584  0  1.010143  0
H  H18  1  0.93658604  0.85692145  0.06358760  1  0  0.114018  0  1.000025  0  0  0.115873  0  1.072426  0  0  0.119253  0  1.071582  0  0  0.110909  0.113526  0  1.072914  0
H  H19  1  0.93658959  0.35691228  0.93641146  1  0  0.114066  0  0.999945  0  0  0.115926  0  1.072326  0  0  0.119306  0  1.071479  0  0  0.110935  0.11358  0  1.072811  0
C  C20  1  0.78980754  0.40637872  0.71151829  1  0  0.308456  0  3.750115  0  0  0.278645  0  4.007482  0  0  0.291791  0  4.022031  0  0  0.234497  0.269693  0  3.997936  0
C  C21  1  0.78979549  0.90636589  0.28848111  1  0  0.30848  0  3.750357  0  0  0.278744  0  4.007562  0  0  0.291891  0  4.022109  0  0  0.234433  0.26979  0  3.998019  0
C  C22  1  0.12010627  0.78467021  0.94893000  1  0  0.074996  0  3.75149  0  0  0.088645  0  3.983536  0  0  0.092916  0  4.003479  0  0  0.026214  0.085519  0  3.970104  0
C  C23  1  0.12011710  0.28466847  0.05106742  1  0  0.075027  0  3.751218  0  0  0.088666  0  3.983259  0  0  0.092941  0  4.003203  0  0  0.026122  0.085536  0  3.969829  0
C  C24  1  0.99286534  0.85713844  0.88236858  1  0  0.260849  0  3.756872  0  0  0.233417  0  4.031434  0  0  0.241791  0  4.046935  0  0  0.223414  0.227592  0  4.020776  0
C  C25  1  0.99287752  0.35713598  0.11762843  1  0  0.260757  0  3.756609  0  0  0.233314  0  4.031217  0  0  0.241684  0  4.046723  0  0  0.223357  0.227493  0  4.02056  0
C  C26  1  0.84070405  0.35540049  0.61831053  1  0  0.061612  0  3.773856  0  0  0.074375  0  4.012116  0  0  0.077321  0  4.032105  0  0  0.020094  0.072575  0  3.998166  0
C  C27  1  0.84069828  0.85539424  0.38168777  1  0  0.061549  0  3.7739  0  0  0.074344  0  4.012051  0  0  0.077291  0  4.032037  0  0  0.020136  0.072553  0  3.998085  0
C  C28  1  0.72881670  0.39785456  0.54038156  1  0  -0.131939  0  3.658607  0  0  -0.14971  0  3.900068  0  0  -0.157042  0  3.920486  0  0  -0.073786  -0.145021  0  3.886888  0
C  C29  1  0.72882018  0.89784781  0.45961853  1  0  -0.13207  0  3.658786  0  0  -0.149817  0  3.900179  0  0  -0.157148  0  3.920595  0  0  -0.07379  -0.145129  0  3.886998  0
C  C30  1  0.00636296  0.26936220  0.60507636  1  0  -0.135468  0  3.703035  0  0  -0.157284  0  3.950518  0  0  -0.164613  0  3.971336  0  0  -0.080311  -0.152377  0  3.936884  0
C  C31  1  0.00636535  0.76935932  0.39492315  1  0  -0.135342  0  3.703095  0  0  -0.157219  0  3.950547  0  0  -0.164545  0  3.971368  0  0  -0.08033  -0.152316  0  3.936914  0
C  C32  1  0.29053490  0.70587372  0.92542521  1  0  -0.12484  0  3.633726  0  0  -0.144235  0  3.877311  0  0  -0.15174  0  3.897669  0  0  -0.072787  -0.139901  0  3.863996  0
C  C33  1  0.29055173  0.20587302  0.07457622  1  0  -0.124854  0  3.633489  0  0  -0.144222  0  3.877066  0  0  -0.151711  0  3.897381  0  0  -0.072707  -0.139894  0  3.863779  0
C  C34  1  0.05742303  0.23148197  0.51520406  1  0  0.137098  0  3.677614  0  0  0.108495  0  3.917308  0  0  0.11509  0  3.936299  0  0  0.048634  0.104149  0  3.904589  0
C  C35  1  0.05741767  0.73147560  0.48479428  1  0  0.13702  0  3.677714  0  0  0.10842  0  3.917426  0  0  0.115012  0  3.93642  0  0  0.048627  0.104077  0  3.9047  0
C  C36  1  0.78627002  0.35347054  0.45252087  1  0  0.150512  0  3.658096  0  0  0.11787  0  3.907656  0  0  0.125401  0  3.924619  0  0  0.05287  0.112659  0  3.896485  0
C  C37  1  0.78627139  0.85346690  0.54747879  1  0  0.150779  0  3.657997  0  0  0.118058  0  3.907621  0  0  0.125597  0  3.924579  0  0  0.052917  0.112847  0  3.896451  0
C  C38  1  0.40477031  0.64751551  0.99663522  1  0  0.148212  0  3.638771  0  0  0.115425  0  3.891686  0  0  0.123236  0  3.908785  0  0  0.055515  0.110427  0  3.879988  0
C  C39  1  0.40478208  0.14751014  0.00336729  1  0  0.148327  0  3.638489  0  0  0.115604  0  3.891409  0  0  0.123429  0  3.908481  0  0  0.055556  0.110601  0  3.879702  0
C  C40  1  0.19117993  0.73749073  0.10974645  1  0  0.137183  0  3.707079  0  0  0.100589  0  3.966179  0  0  0.108069  0  3.983814  0  0  0.043433  0.096119  0  3.953414  0
C  C41  1  0.19117518  0.23748386  0.89025613  1  0  0.137375  0  3.70694  0  0  0.100759  0  3.966031  0  0  0.108241  0  3.983662  0  0  0.043451  0.096285  0  3.953262  0
C  C42  1  0.07014495  0.79841338  0.04347703  1  0  -0.133954  0  3.682845  0  0  -0.153747  0  3.92912  0  0  -0.161344  0  3.949888  0  0  -0.078127  -0.148195  0  3.91417  0
C  C43  1  0.07014365  0.29841011  0.95652516  1  0  -0.134081  0  3.68282  0  0  -0.153856  0  3.92907  0  0  -0.161456  0  3.949836  0  0  -0.078154  -0.1483  0  3.91412  0
N  N44  1  0.84036146  0.54176317  0.73938241  1  0  -0.32376  0  3.216492  0  0  -0.253205  0  3.514346  0  0  -0.271177  0  3.526116  0  0  -0.235957  -0.240962  0  3.506094  0
N  N45  1  0.84035558  0.04175088  0.26061887  1  0  -0.323882  0  3.216598  0  0  -0.253353  0  3.514438  0  0  -0.27133  0  3.526211  0  0  -0.235914  -0.241111  0  3.506188  0
N  N46  1  0.85787991  0.95042703  0.90931533  1  0  -0.252506  0  2.895972  0  0  -0.241494  0  3.170469  0  0  -0.248579  0  3.185612  0  0  -0.200585  -0.237098  0  3.160112  0
N  N47  1  0.85788816  0.45042683  0.09068250  1  0  -0.252436  0  2.895864  0  0  -0.241419  0  3.170374  0  0  -0.248501  0  3.185513  0  0  -0.200563  -0.23702  0  3.160023  0
N  N48  1  0.76192009  0.54943783  0.82700930  1  0  -0.057162  0  2.962045  0  0  -0.05392  0  3.258386  0  0  -0.05321  0  3.271194  0  0  -0.0839  -0.054065  0  3.24925  0
N  N49  1  0.76192103  0.04943636  0.17299187  1  0  -0.057161  0  2.962161  0  0  -0.053909  0  3.258469  0  0  -0.0532  0  3.271281  0  0  -0.083933  -0.054053  0  3.249331  0
N  N50  1  0.85254087  0.93187595  0.75659624  1  0  -0.047346  0  2.956475  0  0  -0.04535  0  3.235054  0  0  -0.042609  0  3.248152  0  0  -0.079609  -0.046661  0  3.225619  0
N  N51  1  0.85253921  0.43186827  0.24340308  1  0  -0.047197  0  2.956405  0  0  -0.045175  0  3.234968  0  0  -0.042434  0  3.248066  0  0  -0.079587  -0.046482  0  3.225536  0
N  N52  1  0.99043940  0.84593942  0.78809156  1  0  -0.29271  0  3.223587  0  0  -0.223956  0  3.524546  0  0  -0.23942  0  3.534865  0  0  -0.221464  -0.213067  0  3.516948  0
N  N53  1  0.99043735  0.34593526  0.21190968  1  0  -0.292822  0  3.223635  0  0  -0.224068  0  3.524584  0  0  -0.239538  0  3.534912  0  0  -0.221452  -0.213181  0  3.516987  0
N  N54  1  0.66746636  0.42444139  0.85184201  1  0  -0.075462  0  2.980884  0  0  -0.067028  0  3.27717  0  0  -0.066641  0  3.289388  0  0  -0.089019  -0.067161  0  3.269117  0
N  N55  1  0.66746791  0.92444346  0.14815582  1  0  -0.075396  0  2.980736  0  0  -0.066945  0  3.276989  0  0  -0.066561  0  3.289209  0  0  -0.088966  -0.067081  0  3.268936  0
N  N56  1  0.68396035  0.33107593  0.78104659  1  0  -0.338501  0  3.200299  0  0  -0.265978  0  3.498184  0  0  -0.28465  0  3.509819  0  0  -0.241521  -0.254195  0  3.491239  0
N  N57  1  0.68395262  0.83107043  0.21895102  1  0  -0.338501  0  3.200376  0  0  -0.266021  0  3.498236  0  0  -0.28469  0  3.509867  0  0  -0.241548  -0.254239  0  3.491296  0
N  N58  1  0.95005171  0.27289929  0.44004715  1  0  -0.314986  0  3.294792  0  0  -0.223342  0  3.564594  0  0  -0.24208  0  3.579411  0  0  -0.328547  -0.210913  0  3.554421  0
N  N59  1  0.95004559  0.77288990  0.55995374  1  0  -0.314979  0  3.294786  0  0  -0.223362  0  3.56467  0  0  -0.242102  0  3.57949  0  0  -0.328557  -0.210934  0  3.554501  0
N  N60  1  0.77495175  0.99342444  0.82978544  1  0  -0.118934  0  3.304183  0  0  -0.04919  0  3.616639  0  0  -0.059457  0  3.628683  0  0  -0.117107  -0.041343  0  3.607074  0
N  N61  1  0.77494948  0.49342287  0.17021211  1  0  -0.119013  0  3.304076  0  0  -0.049299  0  3.616566  0  0  -0.059562  0  3.628606  0  0  -0.117127  -0.041467  0  3.607023  0
N  N62  1  0.35741402  0.66335179  0.08754884  1  0  -0.324651  0  3.313468  0  0  -0.238909  0  3.59401  0  0  -0.257477  0  3.608059  0  0  -0.334392  -0.226196  0  3.583361  0
N  N63  1  0.35741651  0.16334180  0.91245007  1  0  -0.324935  0  3.313197  0  0  -0.239089  0  3.593647  0  0  -0.257659  0  3.607691  0  0  -0.334448  -0.226398  0  3.583064  0
Cl  Cl64  1  0.37072150  0.62548211  0.66970353  1  0  -0.561668  0  0.944199  0  0  -0.503633  0  1.223317  0  0  -0.519321  0  1.202447  0  0  -0.322957  -0.492146  0  1.238432  0
Cl  Cl65  1  0.37072346  0.12548520  0.33029559  1  0  -0.561661  0  0.944184  0  0  -0.503623  0  1.223316  0  0  -0.519318  0  1.202453  0  0  -0.322955  -0.492137  0  1.238429  0
Cl  Cl66  1  0.38286474  0.05096142  0.66980451  1  0  -0.552127  0  0.947763  0  0  -0.489724  0  1.232832  0  0  -0.50525  0  1.210556  0  0  -0.312476  -0.478011  0  1.248321  0
Cl  Cl67  1  0.38286408  0.55095916  0.33019637  1  0  -0.552159  0  0.947754  0  0  -0.489762  0  1.232804  0  0  -0.505283  0  1.210532  0  0  -0.312488  -0.478059  0  1.248315  0
