# generated using pymatgen
data_CdFe2H44C48Br2(N2O)4
_symmetry_space_group_name_H-M   'P 1'
_cell_length_a   8.93743008
_cell_length_b   10.66419566
_cell_length_c   13.30880789
_cell_angle_alpha   107.68127379
_cell_angle_beta   105.65902311
_cell_angle_gamma   93.51810316
_symmetry_Int_Tables_number   1
_chemical_formula_structural   CdFe2H44C48Br2(N2O)4
_chemical_formula_sum   'Cd1 Fe2 H44 C48 Br2 N8 O4'
_cell_volume   1149.39980790
_cell_formula_units_Z   1
loop_
 _symmetry_equiv_pos_site_id
 _symmetry_equiv_pos_as_xyz
  1  'x, y, z'
loop_
 _atom_site_type_symbol
 _atom_site_label
 _atom_site_symmetry_multiplicity
 _atom_site_fract_x
 _atom_site_fract_y
 _atom_site_fract_z
 _atom_site_occupancy
 _atom_site_hle17_bader_spin_density
 _atom_site_hle17_ddec_charge
 _atom_site_hle17_ddec_spin_density
 _atom_site_hle17_ddec_sum_bond_order
 _atom_site_hle17_magmom
 _atom_site_hse06_10hf_bader_spin_density
 _atom_site_hse06_10hf_ddec_charge
 _atom_site_hse06_10hf_ddec_spin_density
 _atom_site_hse06_10hf_ddec_sum_bond_order
 _atom_site_hse06_10hf_magmom
 _atom_site_hse06_bader_spin_density
 _atom_site_hse06_ddec_charge
 _atom_site_hse06_ddec_spin_density
 _atom_site_hse06_ddec_sum_bond_order
 _atom_site_hse06_magmom
 _atom_site_pbe_bader_spin_density
 _atom_site_pbe_cm5_charge
 _atom_site_pbe_ddec_charge
 _atom_site_pbe_ddec_spin_density
 _atom_site_pbe_ddec_sum_bond_order
 _atom_site_pbe_magmom
Cd  Cd0  1  0.50000278  0.00000019  0.50000393  1  0  0.868286  0  1.948769  0  0  0.668735  0  2.403473  0  0  0.719002  0  2.367204  0  0  0.635698  0.633086  0  2.428053  0
Fe  Fe1  1  0.32869947  0.42975999  0.17634307  1  0  0.10208  0  3.569212  0  0  0.204617  0  3.979459  0  0  0.210201  0  3.964931  0  0  0.532646  0.207905  0  3.982571  0
Fe  Fe2  1  0.67130862  0.57023796  0.82365992  1  0  0.102066  0  3.569208  0  0  0.204588  0  3.979611  0  0  0.209984  0  3.965083  0  0  0.532652  0.207823  0  3.982611  0
H  H3  1  0.01949066  0.47344830  0.16632714  1  0  0.118238  0  0.978677  0  0  0.128615  0  1.041959  0  0  0.132526  0  1.039081  0  0  0.107258  0.125792  0  1.044204  0
H  H4  1  0.98052033  0.52656860  0.83368079  1  0  0.11817  0  0.97877  0  0  0.128681  0  1.041887  0  0  0.132595  0  1.039008  0  0  0.10722  0.125842  0  1.044143  0
H  H5  1  0.24517228  0.68658808  0.22420651  1  0  0.107673  0  0.965248  0  0  0.120482  0  1.023835  0  0  0.122547  0  1.024512  0  0  0.102443  0.119109  0  1.023342  0
H  H6  1  0.75484876  0.31342043  0.77579162  1  0  0.107648  0  0.965273  0  0  0.120423  0  1.02392  0  0  0.12248  0  1.024613  0  0  0.102432  0.119044  0  1.023413  0
H  H7  1  0.43247104  0.62231296  0.09367456  1  0  0.110479  0  0.951352  0  0  0.125656  0  1.006479  0  0  0.127836  0  1.006863  0  0  0.105987  0.124094  0  1.006395  0
H  H8  1  0.56754547  0.37767467  0.90632013  1  0  0.110574  0  0.951205  0  0  0.125731  0  1.006349  0  0  0.127911  0  1.00673  0  0  0.106056  0.124157  0  1.006273  0
H  H9  1  0.32481158  0.36794239  0.95467663  1  0  0.118723  0  0.948585  0  0  0.132608  0  1.006609  0  0  0.135493  0  1.005193  0  0  0.111355  0.130557  0  1.007799  0
H  H10  1  0.67518349  0.63204880  0.04532005  1  0  0.118576  0  0.94868  0  0  0.132572  0  1.00657  0  0  0.135464  0  1.00513  0  0  0.11137  0.130506  0  1.007767  0
H  H11  1  0.50481403  0.22004435  0.13160206  1  0  0.10887  0  0.979158  0  0  0.122128  0  1.038639  0  0  0.125317  0  1.036594  0  0  0.103155  0.119851  0  1.040174  0
H  H12  1  0.49519933  0.77995156  0.86840597  1  0  0.108789  0  0.979292  0  0  0.122049  0  1.038771  0  0  0.125237  0  1.036726  0  0  0.103104  0.119757  0  1.040317  0
H  H13  1  0.25461675  0.18610437  0.20643543  1  0  0.111593  0  0.956839  0  0  0.126885  0  1.011923  0  0  0.129383  0  1.011441  0  0  0.107091  0.125123  0  1.01248  0
H  H14  1  0.74538750  0.81389161  0.79356336  1  0  0.111541  0  0.956857  0  0  0.126849  0  1.011917  0  0  0.129344  0  1.011437  0  0  0.107087  0.125076  0  1.012479  0
H  H15  1  0.26045473  0.41138219  0.36733920  1  0  0.112333  0  0.964501  0  0  0.126805  0  1.018784  0  0  0.129678  0  1.017774  0  0  0.10336  0.124707  0  1.019904  0
H  H16  1  0.73954137  0.58861402  0.63266110  1  0  0.112393  0  0.964556  0  0  0.126852  0  1.018835  0  0  0.129723  0  1.017823  0  0  0.103386  0.124742  0  1.019952  0
H  H17  1  0.50663791  0.59099132  0.39182604  1  0  0.114589  0  0.975601  0  0  0.12533  0  1.04012  0  0  0.128869  0  1.038082  0  0  0.09717  0.122876  0  1.041583  0
H  H18  1  0.49336323  0.40900187  0.60817978  1  0  0.114531  0  0.975556  0  0  0.12531  0  1.040055  0  0  0.128849  0  1.038013  0  0  0.097173  0.122845  0  1.041516  0
H  H19  1  0.80907542  0.04130090  0.03069090  1  0  0.081337  0  0.918994  0  0  0.098829  0  0.975458  0  0  0.099721  0  0.974522  0  0  0.111641  0.098185  0  0.97611  0
H  H20  1  0.19091500  0.95872964  0.96932679  1  0  0.08126  0  0.91903  0  0  0.098792  0  0.975505  0  0  0.099669  0  0.974588  0  0  0.111667  0.098141  0  0.976186  0
H  H21  1  0.89876300  0.01126474  0.92322643  1  0  0.082201  0  0.940985  0  0  0.09564  0  1.007385  0  0  0.097178  0  1.005575  0  0  0.115303  0.094468  0  1.008688  0
H  H22  1  0.10121682  0.98873801  0.07678281  1  0  0.082103  0  0.940951  0  0  0.095591  0  1.007328  0  0  0.097132  0  1.005514  0  0  0.115321  0.094426  0  1.008638  0
H  H23  1  0.76324556  0.02964115  0.74193300  1  0  0.077231  0  0.961492  0  0  0.082283  0  1.035309  0  0  0.085431  0  1.031657  0  0  0.107291  0.079828  0  1.038203  0
H  H24  1  0.23674755  0.97037423  0.25807643  1  0  0.077186  0  0.961399  0  0  0.082155  0  1.035265  0  0  0.08538  0  1.031545  0  0  0.10724  0.079693  0  1.038167  0
H  H25  1  0.29337482  0.07179524  0.66236736  1  0  0.073166  0  0.962644  0  0  0.079041  0  1.031622  0  0  0.081936  0  1.028887  0  0  0.104591  0.076828  0  1.033685  0
H  H26  1  0.70661399  0.92820397  0.33762323  1  0  0.073017  0  0.962823  0  0  0.078861  0  1.031833  0  0  0.081771  0  1.029067  0  0  0.104543  0.076631  0  1.033908  0
H  H27  1  0.29131982  0.11543407  0.85984275  1  0  0.121645  0  0.98406  0  0  0.128578  0  1.047276  0  0  0.132981  0  1.044538  0  0  0.10712  0.12534  0  1.049471  0
H  H28  1  0.70865296  0.88456653  0.14014736  1  0  0.121616  0  0.984132  0  0  0.12851  0  1.047411  0  0  0.132911  0  1.044676  0  0  0.107138  0.125276  0  1.049596  0
H  H29  1  0.54488964  0.11728125  0.00118126  1  0  0.086923  0  0.97258  0  0  0.099874  0  1.033463  0  0  0.102358  0  1.031623  0  0  0.104874  0.098003  0  1.034907  0
H  H30  1  0.45508165  0.88273447  0.99881582  1  0  0.086788  0  0.972636  0  0  0.099847  0  1.033411  0  0  0.102333  0  1.031563  0  0  0.104871  0.09799  0  1.03484  0
H  H31  1  0.85699392  0.78416503  0.27847031  1  0  0.076753  0  0.932136  0  0  0.095163  0  0.993628  0  0  0.095208  0  0.993166  0  0  0.112296  0.095043  0  0.994026  0
H  H32  1  0.14301770  0.21583891  0.72153849  1  0  0.076764  0  0.932229  0  0  0.095144  0  0.993764  0  0  0.09519  0  0.9933  0  0  0.112257  0.095018  0  0.994166  0
H  H33  1  0.89738373  0.63294284  0.19951193  1  0  0.085584  0  0.947174  0  0  0.104331  0  1.008054  0  0  0.104389  0  1.008585  0  0  0.115878  0.104148  0  1.007861  0
H  H34  1  0.10261583  0.36706315  0.80048227  1  0  0.085646  0  0.94713  0  0  0.104414  0  1.007996  0  0  0.104474  0  1.008525  0  0  0.115916  0.104213  0  1.007816  0
H  H35  1  0.12913508  0.88977860  0.36385804  1  0  0.077598  0  0.962933  0  0  0.084226  0  1.032773  0  0  0.087039  0  1.02981  0  0  0.105537  0.08226  0  1.034842  0
H  H36  1  0.87087346  0.11021641  0.63614811  1  0  0.077644  0  0.96281  0  0  0.084249  0  1.032695  0  0  0.087066  0  1.029714  0  0  0.105523  0.082254  0  1.034794  0
H  H37  1  0.44042719  0.75272529  0.58368838  1  0  0.081629  0  0.964863  0  0  0.089606  0  1.030909  0  0  0.091508  0  1.030652  0  0  0.106653  0.088173  0  1.031209  0
H  H38  1  0.55957564  0.24726485  0.41631631  1  0  0.081553  0  0.964895  0  0  0.089586  0  1.030881  0  0  0.091446  0  1.030669  0  0  0.106627  0.088147  0  1.031184  0
H  H39  1  0.24035806  0.55767382  0.54935245  1  0  0.10077  0  0.968837  0  0  0.111509  0  1.027765  0  0  0.113808  0  1.028093  0  0  0.104284  0.109489  0  1.028496  0
H  H40  1  0.75964163  0.44231728  0.45064584  1  0  0.100744  0  0.968698  0  0  0.111485  0  1.02763  0  0  0.113785  0  1.02796  0  0  0.104255  0.109458  0  1.028368  0
H  H41  1  0.97751391  0.52294243  0.40602648  1  0  0.095674  0  0.953375  0  0  0.107343  0  1.014062  0  0  0.109775  0  1.012652  0  0  0.108109  0.10556  0  1.015189  0
H  H42  1  0.02249200  0.47704440  0.59396450  1  0  0.095643  0  0.953443  0  0  0.107361  0  1.014067  0  0  0.109789  0  1.012668  0  0  0.108112  0.105571  0  1.015203  0
H  H43  1  0.88858716  0.28048752  0.07089332  1  0  0.306246  0  0.893804  0  0  0.294989  0  0.948027  0  0  0.302061  0  0.942898  0  0  0.31434  0.289953  0  0.95177  0
H  H44  1  0.11142612  0.71952324  0.92910836  1  0  0.306301  0  0.893718  0  0  0.295018  0  0.947989  0  0  0.302089  0  0.942861  0  0  0.314327  0.289981  0  0.951731  0
H  H45  1  0.70023612  0.66481344  0.34913739  1  0  0.273461  0  0.952615  0  0  0.257401  0  1.021476  0  0  0.265034  0  1.015909  0  0  0.277923  0.251884  0  1.025662  0
H  H46  1  0.29977270  0.33518742  0.65086190  1  0  0.27348  0  0.952647  0  0  0.257453  0  1.021438  0  0  0.265085  0  1.015874  0  0  0.277974  0.251934  0  1.025621  0
C  C47  1  0.13757073  0.37571356  0.03932665  1  0  -0.091401  0  3.760573  0  0  -0.080717  0  4.018605  0  0  -0.090087  0  4.038442  0  0  -0.078049  -0.075147  0  4.005504  0
C  C48  1  0.86243633  0.62429042  0.96067754  1  0  -0.09133  0  3.76047  0  0  -0.080475  0  4.018388  0  0  -0.089828  0  4.038196  0  0  -0.077978  -0.074902  0  4.005253  0
C  C49  1  0.11198934  0.48021327  0.12850420  1  0  -0.127628  0  3.683754  0  0  -0.164721  0  3.95732  0  0  -0.166251  0  3.973145  0  0  -0.151705  -0.164068  0  3.946712  0
C  C50  1  0.88802929  0.51979537  0.87149801  1  0  -0.127679  0  3.683661  0  0  -0.164923  0  3.957179  0  0  -0.166438  0  3.97298  0  0  -0.151734  -0.164263  0  3.946538  0
C  C51  1  0.23028949  0.59276535  0.15820529  1  0  -0.093812  0  3.698769  0  0  -0.122836  0  3.975898  0  0  -0.126348  0  3.993689  0  0  -0.149905  -0.121043  0  3.964045  0
C  C52  1  0.76972470  0.40723337  0.84179378  1  0  -0.093748  0  3.698611  0  0  -0.122771  0  3.975848  0  0  -0.126262  0  3.993603  0  0  -0.149923  -0.120974  0  3.96397  0
C  C53  1  0.32988395  0.55837904  0.08914096  1  0  -0.081884  0  3.691482  0  0  -0.114549  0  3.971358  0  0  -0.117578  0  3.988249  0  0  -0.145533  -0.113171  0  3.96041  0
C  C54  1  0.67013074  0.44161668  0.91085826  1  0  -0.08207  0  3.691358  0  0  -0.11472  0  3.971313  0  0  -0.117727  0  3.988173  0  0  -0.145613  -0.113352  0  3.960355  0
C  C55  1  0.27404155  0.42459774  0.01620400  1  0  -0.11495  0  3.684494  0  0  -0.153549  0  3.962482  0  0  -0.153811  0  3.976482  0  0  -0.146839  -0.154028  0  3.953428  0
C  C56  1  0.72596551  0.57539520  0.98379613  1  0  -0.11473  0  3.684396  0  0  -0.153456  0  3.962313  0  0  -0.153691  0  3.976286  0  0  -0.146895  -0.153937  0  3.953249  0
C  C57  1  0.55564671  0.42540433  0.25590177  1  0  -0.105044  0  3.773686  0  0  -0.095761  0  4.034581  0  0  -0.104867  0  4.053948  0  0  -0.083211  -0.090445  0  4.021676  0
C  C58  1  0.44435714  0.57459083  0.74410653  1  0  -0.10504  0  3.773799  0  0  -0.095664  0  4.034529  0  0  -0.104749  0  4.053852  0  0  -0.08318  -0.090342  0  4.021588  0
C  C59  1  0.47247096  0.29216012  0.19601115  1  0  -0.121061  0  3.706582  0  0  -0.158731  0  3.980977  0  0  -0.159545  0  3.996508  0  0  -0.151114  -0.158451  0  3.970545  0
C  C60  1  0.52753860  0.70783990  0.80399861  1  0  -0.12097  0  3.7066  0  0  -0.158694  0  3.981005  0  0  -0.159487  0  3.996509  0  0  -0.151075  -0.158415  0  3.970557  0
C  C61  1  0.34283639  0.27417643  0.23631172  1  0  -0.098318  0  3.728104  0  0  -0.130979  0  4.007837  0  0  -0.1345  0  4.024826  0  0  -0.150337  -0.129449  0  3.99695  0
C  C62  1  0.65716665  0.72581963  0.76368986  1  0  -0.0982  0  3.728043  0  0  -0.130861  0  4.007772  0  0  -0.134362  0  4.02474  0  0  -0.150313  -0.129331  0  3.996871  0
C  C63  1  0.34506996  0.39474167  0.32160370  1  0  -0.091476  0  3.720045  0  0  -0.119531  0  3.992614  0  0  -0.121887  0  4.008334  0  0  -0.148529  -0.118434  0  3.982248  0
C  C64  1  0.65493035  0.60525243  0.67839616  1  0  -0.091688  0  3.720231  0  0  -0.11974  0  3.992838  0  0  -0.122078  0  4.008529  0  0  -0.148652  -0.118642  0  3.982451  0
C  C65  1  0.47488219  0.48944547  0.33386654  1  0  -0.140592  0  3.688606  0  0  -0.174262  0  3.958271  0  0  -0.176104  0  3.973829  0  0  -0.155699  -0.173372  0  3.947729  0
C  C66  1  0.52512238  0.51055260  0.66613806  1  0  -0.140395  0  3.688521  0  0  -0.174141  0  3.95818  0  0  -0.17596  0  3.973709  0  0  -0.155677  -0.173251  0  3.94761  0
C  C67  1  0.04802590  0.23968281  0.98171257  1  0  0.554621  0  3.864523  0  0  0.510933  0  4.15207  0  0  0.542363  0  4.149742  0  0  0.235163  0.489701  0  4.153029  0
C  C68  1  0.95196630  0.76032133  0.01827905  1  0  0.554655  0  3.8643  0  0  0.510846  0  4.152  0  0  0.542274  0  4.149671  0  0  0.235142  0.489611  0  4.152951  0
C  C69  1  0.82902043  0.07733924  0.96557529  1  0  0.012778  0  3.696835  0  0  -0.054665  0  3.956213  0  0  -0.048371  0  3.965814  0  0  -0.054505  -0.058749  0  3.949501  0
C  C70  1  0.17096441  0.92267528  0.03443010  1  0  0.013197  0  3.696428  0  0  -0.054401  0  3.955974  0  0  -0.048102  0  3.965585  0  0  -0.054477  -0.058533  0  3.949344  0
C  C71  1  0.67450568  0.07610832  0.88337014  1  0  0.02586  0  3.720305  0  0  0.052068  0  3.958224  0  0  0.047024  0  3.982884  0  0  -0.003931  0.055261  0  3.94183  0
C  C72  1  0.32548018  0.92390019  0.11663482  1  0  0.025651  0  3.720682  0  0  0.051972  0  3.958493  0  0  0.046924  0  3.983167  0  0  -0.003939  0.055189  0  3.942106  0
C  C73  1  0.66234551  0.05216333  0.77195959  1  0  0.081101  0  3.684723  0  0  0.045047  0  3.93271  0  0  0.050879  0  3.951254  0  0  0.046862  0.041222  0  3.92056  0
C  C74  1  0.33764562  0.94784806  0.22804703  1  0  0.081319  0  3.684798  0  0  0.04535  0  3.932692  0  0  0.051114  0  3.951205  0  0  0.047023  0.041522  0  3.92055  0
C  C75  1  0.39885290  0.07389150  0.72794118  1  0  0.120423  0  3.709795  0  0  0.088944  0  3.959323  0  0  0.095344  0  3.978253  0  0  0.040622  0.084962  0  3.946215  0
C  C76  1  0.60113301  0.92611085  0.27205334  1  0  0.12053  0  3.709808  0  0  0.089089  0  3.959324  0  0  0.095485  0  3.97823  0  0  0.040648  0.085122  0  3.946228  0
C  C77  1  0.39869130  0.09765582  0.83681648  1  0  -0.12515  0  3.727213  0  0  -0.133854  0  3.974879  0  0  -0.140713  0  3.995521  0  0  -0.086782  -0.129463  0  3.961023  0
C  C78  1  0.60129118  0.90234657  0.16317514  1  0  -0.12506  0  3.727091  0  0  -0.133782  0  3.974787  0  0  -0.140645  0  3.995433  0  0  -0.086807  -0.129393  0  3.960931  0
C  C79  1  0.53920799  0.09889584  0.91500164  1  0  -0.056374  0  3.714643  0  0  -0.083902  0  3.961443  0  0  -0.08188  0  3.980846  0  0  -0.066642  -0.085028  0  3.94844  0
C  C80  1  0.46076734  0.90111181  0.08499584  1  0  -0.056226  0  3.714938  0  0  -0.083855  0  3.961668  0  0  -0.081828  0  3.981064  0  0  -0.066662  -0.084992  0  3.948659  0
C  C81  1  0.69597695  0.48090829  0.23483856  1  0  0.552118  0  3.860502  0  0  0.508371  0  4.149297  0  0  0.539735  0  4.145874  0  0  0.234319  0.487077  0  4.151131  0
C  C82  1  0.30402677  0.51909072  0.76516158  1  0  0.552142  0  3.860698  0  0  0.508433  0  4.149394  0  0  0.539799  0  4.145967  0  0  0.234363  0.487131  0  4.15123  0
C  C83  1  0.88243418  0.68537149  0.28024814  1  0  0.014076  0  3.705536  0  0  -0.056402  0  3.964296  0  0  -0.049964  0  3.975108  0  0  -0.053063  -0.060579  0  3.956946  0
C  C84  1  0.11757225  0.31462338  0.71974705  1  0  0.013962  0  3.705628  0  0  -0.056532  0  3.964426  0  0  -0.050092  0  3.975233  0  0  -0.053055  -0.060688  0  3.957064  0
C  C85  1  0.03377884  0.70157540  0.37087877  1  0  0.036891  0  3.710974  0  0  0.060954  0  3.952277  0  0  0.056122  0  3.976434  0  0  -0.000735  0.063873  0  3.936165  0
C  C86  1  0.96623210  0.29841335  0.62911512  1  0  0.03688  0  3.710993  0  0  0.060949  0  3.952326  0  0  0.056123  0  3.976474  0  0  -0.00083  0.063861  0  3.936196  0
C  C87  1  0.15047851  0.81068543  0.39990619  1  0  0.070215  0  3.693238  0  0  0.035119  0  3.938911  0  0  0.041171  0  3.956844  0  0  0.043294  0.030982  0  3.926986  0
C  C88  1  0.84953181  0.18930643  0.60009356  1  0  0.070264  0  3.693225  0  0  0.035192  0  3.938835  0  0  0.041225  0  3.956808  0  0  0.043311  0.031081  0  3.926922  0
C  C89  1  0.32295980  0.73671517  0.52549197  1  0  0.124476  0  3.694881  0  0  0.093658  0  3.940335  0  0  0.100051  0  3.959503  0  0  0.042331  0.089581  0  3.927125  0
C  C90  1  0.67704523  0.26327383  0.47450761  1  0  0.12464  0  3.695  0  0  0.093776  0  3.940437  0  0  0.100206  0  3.959611  0  0  0.042324  0.089698  0  3.927227  0
C  C91  1  0.21112434  0.62790572  0.50511326  1  0  -0.111177  0  3.739519  0  0  -0.117465  0  3.983452  0  0  -0.12386  0  4.005023  0  0  -0.082808  -0.113311  0  3.969155  0
C  C92  1  0.78888146  0.37208122  0.49488373  1  0  -0.111162  0  3.739614  0  0  -0.117449  0  3.983554  0  0  -0.123843  0  4.00511  0  0  -0.082814  -0.113301  0  3.969261  0
C  C93  1  0.06576765  0.60915954  0.42590512  1  0  -0.051324  0  3.692323  0  0  -0.079032  0  3.938709  0  0  -0.076718  0  3.95729  0  0  -0.067111  -0.080432  0  3.926265  0
C  C94  1  0.93423691  0.39082630  0.57408462  1  0  -0.051224  0  3.69233  0  0  -0.078978  0  3.938712  0  0  -0.076661  0  3.957288  0  0  -0.067003  -0.080373  0  3.926263  0
Br  Br95  1  0.27593998  0.16598203  0.47718883  1  0  -0.592775  0  0.827271  0  0  -0.542844  0  1.082091  0  0  -0.558943  0  1.061788  0  0  -0.315356  -0.530526  0  1.096509  0
Br  Br96  1  0.72405212  0.83400623  0.52280736  1  0  -0.592801  0  0.82727  0  0  -0.542837  0  1.082066  0  0  -0.558931  0  1.061754  0  0  -0.315351  -0.530509  0  1.096477  0
N  N97  1  0.92497799  0.20855943  0.01635805  1  0  -0.425983  0  3.262886  0  0  -0.367562  0  3.506457  0  0  -0.389777  0  3.514599  0  0  -0.418004  -0.352411  0  3.500671  0
N  N98  1  0.07501590  0.79145268  0.98363649  1  0  -0.426207  0  3.262517  0  0  -0.367773  0  3.506282  0  0  -0.389983  0  3.514413  0  0  -0.418109  -0.35261  0  3.500511  0
N  N99  1  0.52824233  0.05182867  0.69611424  1  0  -0.314229  0  3.265958  0  0  -0.236165  0  3.526016  0  0  -0.254968  0  3.547082  0  0  -0.326017  -0.223375  0  3.51124  0
N  N100  1  0.47174804  0.94817864  0.30388604  1  0  -0.314417  0  3.266144  0  0  -0.236369  0  3.526158  0  0  -0.255176  0  3.547255  0  0  -0.326129  -0.22358  0  3.511384  0
N  N101  1  0.74810425  0.61295090  0.29006363  1  0  -0.433996  0  3.344127  0  0  -0.376733  0  3.594451  0  0  -0.399067  0  3.603109  0  0  -0.428653  -0.361541  0  3.588415  0
N  N102  1  0.25190414  0.38704796  0.70993512  1  0  -0.43405  0  3.344261  0  0  -0.376827  0  3.594597  0  0  -0.399164  0  3.603253  0  0  -0.428748  -0.361641  0  3.588556  0
N  N103  1  0.29255941  0.82664371  0.47348936  1  0  -0.318596  0  3.289181  0  0  -0.240567  0  3.550317  0  0  -0.259894  0  3.571703  0  0  -0.329463  -0.226988  0  3.535421  0
N  N104  1  0.70744831  0.17334728  0.52651419  1  0  -0.318754  0  3.289364  0  0  -0.240713  0  3.55049  0  0  -0.260032  0  3.571847  0  0  -0.329425  -0.227134  0  3.535583  0
O  O105  1  0.08434911  0.15782752  0.90577320  1  0  -0.579845  0  1.901777  0  0  -0.536943  0  2.119664  0  0  -0.557935  0  2.112061  0  0  -0.314962  -0.522378  0  2.124464  0
O  O106  1  0.91563070  0.84218271  0.09420695  1  0  -0.57978  0  1.901702  0  0  -0.536804  0  2.119637  0  0  -0.557797  0  2.112047  0  0  -0.314892  -0.522258  0  2.124446  0
O  O107  1  0.76091935  0.40968143  0.17083834  1  0  -0.575871  0  1.876325  0  0  -0.529649  0  2.087253  0  0  -0.54943  0  2.079563  0  0  -0.317686  -0.515893  0  2.092286  0
O  O108  1  0.23907339  0.59031475  0.82915530  1  0  -0.575899  0  1.876205  0  0  -0.529711  0  2.087118  0  0  -0.549492  0  2.07943  0  0  -0.317735  -0.515961  0  2.092161  0
