# generated using pymatgen
data_CdH18C19N4(ClO2)2
_symmetry_space_group_name_H-M   'P 1'
_cell_length_a   9.82421729
_cell_length_b   10.09965195
_cell_length_c   12.07243928
_cell_angle_alpha   84.55730148
_cell_angle_beta   67.89234094
_cell_angle_gamma   71.20124406
_symmetry_Int_Tables_number   1
_chemical_formula_structural   CdH18C19N4(ClO2)2
_chemical_formula_sum   'Cd2 H36 C38 N8 Cl4 O8'
_cell_volume   1050.09779605
_cell_formula_units_Z   2
loop_
 _symmetry_equiv_pos_site_id
 _symmetry_equiv_pos_as_xyz
  1  'x, y, z'
loop_
 _atom_site_type_symbol
 _atom_site_label
 _atom_site_symmetry_multiplicity
 _atom_site_fract_x
 _atom_site_fract_y
 _atom_site_fract_z
 _atom_site_occupancy
 _atom_site_hle17_bader_spin_density
 _atom_site_hle17_ddec_charge
 _atom_site_hle17_ddec_spin_density
 _atom_site_hle17_ddec_sum_bond_order
 _atom_site_hle17_magmom
 _atom_site_hse06_10hf_bader_spin_density
 _atom_site_hse06_10hf_ddec_charge
 _atom_site_hse06_10hf_ddec_spin_density
 _atom_site_hse06_10hf_ddec_sum_bond_order
 _atom_site_hse06_10hf_magmom
 _atom_site_hse06_bader_spin_density
 _atom_site_hse06_ddec_charge
 _atom_site_hse06_ddec_spin_density
 _atom_site_hse06_ddec_sum_bond_order
 _atom_site_hse06_magmom
 _atom_site_pbe_bader_spin_density
 _atom_site_pbe_cm5_charge
 _atom_site_pbe_ddec_charge
 _atom_site_pbe_ddec_spin_density
 _atom_site_pbe_ddec_sum_bond_order
 _atom_site_pbe_magmom
Cd  Cd0  1  0.55307279  0.02628067  0.81453771  1  0  1.130833  0  1.624197  0  0  0.926886  0  2.073807  0  0  0.986071  0  2.021685  0  0  0.794053  0.884652  0  2.109986  0
Cd  Cd1  1  0.44692581  0.97372269  0.18546439  1  0  1.130767  0  1.624247  0  0  0.926803  0  2.073863  0  0  0.985991  0  2.021743  0  0  0.793988  0.884567  0  2.110039  0
H  H2  1  0.18180225  0.12163119  0.71594278  1  0  0.078613  0  0.934493  0  0  0.091431  0  1.002129  0  0  0.092222  0  1.001673  0  0  0.091551  0.090853  0  1.002389  0
H  H3  1  0.81819782  0.87837115  0.28406062  1  0  0.078605  0  0.934539  0  0  0.091461  0  1.002136  0  0  0.092229  0  1.001701  0  0  0.091558  0.090881  0  1.002398  0
H  H4  1  0.26951043  0.95986267  0.76608969  1  0  0.096571  0  0.952086  0  0  0.110493  0  1.016537  0  0  0.111949  0  1.015642  0  0  0.098264  0.108636  0  1.018544  0
H  H5  1  0.73048890  0.04014174  0.23391210  1  0  0.096554  0  0.952125  0  0  0.110496  0  1.016552  0  0  0.111951  0  1.015657  0  0  0.09826  0.108641  0  1.018554  0
H  H6  1  0.49118973  0.73398111  0.36355776  1  0  0.29606  0  0.944082  0  0  0.276289  0  1.009297  0  0  0.284838  0  1.002058  0  0  0.313388  0.270226  0  1.014499  0
H  H7  1  0.50880816  0.26601807  0.63644742  1  0  0.295964  0  0.944371  0  0  0.27623  0  1.009511  0  0  0.284774  0  1.002279  0  0  0.313397  0.270173  0  1.014713  0
H  H8  1  0.77499334  0.87945182  0.96823447  1  0  0.299399  0  0.926593  0  0  0.277688  0  0.994708  0  0  0.285838  0  0.988143  0  0  0.316033  0.271841  0  0.999592  0
H  H9  1  0.22500819  0.12054631  0.03176553  1  0  0.299366  0  0.926607  0  0  0.277668  0  0.994718  0  0  0.285816  0  0.988152  0  0  0.316029  0.271821  0  0.999599  0
H  H10  1  0.00747663  0.81501731  0.03763655  1  0  0.123268  0  0.948095  0  0  0.142098  0  1.009934  0  0  0.143644  0  1.010253  0  0  0.095762  0.14085  0  1.009833  0
H  H11  1  0.99252859  0.18497034  0.96236239  1  0  0.123287  0  0.948117  0  0  0.142094  0  1.00997  0  0  0.143636  0  1.010291  0  0  0.095777  0.140848  0  1.009868  0
H  H12  1  0.17472431  0.85888730  0.94251763  1  0  0.124726  0  0.948058  0  0  0.144328  0  1.007836  0  0  0.145929  0  1.007755  0  0  0.096213  0.143178  0  1.007896  0
H  H13  1  0.82528345  0.14110244  0.05747703  1  0  0.124778  0  0.948036  0  0  0.144377  0  1.007823  0  0  0.145981  0  1.007738  0  0  0.096227  0.143227  0  1.007883  0
H  H14  1  0.14070784  0.70855332  0.90899121  1  0  0.122793  0  0.943622  0  0  0.141639  0  1.00614  0  0  0.14237  0  1.00785  0  0  0.094491  0.141139  0  1.004761  0
H  H15  1  0.85929332  0.29144264  0.09100330  1  0  0.122795  0  0.94356  0  0  0.141633  0  1.006084  0  0  0.142364  0  1.007795  0  0  0.094492  0.141131  0  1.004708  0
H  H16  1  0.38394796  0.69710238  0.69805295  1  0  0.136807  0  0.957363  0  0  0.153803  0  1.020779  0  0  0.156541  0  1.019249  0  0  0.095292  0.151786  0  1.021932  0
H  H17  1  0.61604628  0.30289783  0.30195327  1  0  0.136866  0  0.957325  0  0  0.153882  0  1.020704  0  0  0.156621  0  1.019174  0  0  0.095317  0.151866  0  1.021855  0
H  H18  1  0.46609899  0.59624529  0.56315282  1  0  0.114847  0  0.945935  0  0  0.134677  0  1.006002  0  0  0.136614  0  1.005029  0  0  0.09245  0.133182  0  1.0069  0
H  H19  1  0.53389670  0.40375386  0.43685139  1  0  0.11487  0  0.946028  0  0  0.134703  0  1.006082  0  0  0.136642  0  1.005106  0  0  0.092446  0.13321  0  1.006979  0
H  H20  1  0.26255754  0.65248632  0.63985684  1  0  0.113319  0  0.957452  0  0  0.127815  0  1.027198  0  0  0.129817  0  1.026288  0  0  0.085422  0.126327  0  1.027953  0
H  H21  1  0.73743670  0.34751387  0.36014855  1  0  0.113357  0  0.957423  0  0  0.127845  0  1.027171  0  0  0.129841  0  1.026265  0  0  0.085432  0.126356  0  1.027925  0
H  H22  1  0.34845326  0.21828836  0.38901997  1  0  0.131005  0  0.984449  0  0  0.14747  0  1.050089  0  0  0.149762  0  1.049393  0  0  0.09127  0.145789  0  1.050667  0
H  H23  1  0.65154535  0.78170865  0.61097772  1  0  0.131005  0  0.984432  0  0  0.14743  0  1.050122  0  0  0.149721  0  1.049426  0  0  0.091263  0.145752  0  1.050694  0
H  H24  1  0.25879788  0.24060276  0.54743392  1  0  0.111362  0  0.962074  0  0  0.127241  0  1.031338  0  0  0.129093  0  1.030628  0  0  0.084651  0.125892  0  1.031866  0
H  H25  1  0.74120035  0.75939846  0.45256517  1  0  0.111323  0  0.962122  0  0  0.127199  0  1.031388  0  0  0.129052  0  1.030676  0  0  0.084629  0.12585  0  1.031913  0
H  H26  1  0.15078587  0.22960700  0.46156898  1  0  0.108914  0  0.94521  0  0  0.128632  0  1.007333  0  0  0.130345  0  1.006608  0  0  0.087751  0.127482  0  1.007749  0
H  H27  1  0.84921164  0.77038999  0.53842822  1  0  0.10895  0  0.94519  0  0  0.128659  0  1.007311  0  0  0.130374  0  1.006584  0  0  0.08777  0.127508  0  1.00773  0
H  H28  1  0.77596791  0.18927804  0.65046500  1  0  0.108867  0  0.987699  0  0  0.121837  0  1.061895  0  0  0.123915  0  1.061065  0  0  0.089902  0.120422  0  1.062402  0
H  H29  1  0.22403033  0.81072323  0.34953823  1  0  0.108874  0  0.987709  0  0  0.121846  0  1.061903  0  0  0.123923  0  1.061073  0  0  0.089903  0.12043  0  1.062408  0
H  H30  1  0.96293133  0.08979644  0.55490770  1  0  0.11743  0  0.949732  0  0  0.138848  0  1.008776  0  0  0.140452  0  1.008737  0  0  0.094374  0.137636  0  1.008862  0
H  H31  1  0.03706619  0.91020376  0.44509419  1  0  0.117425  0  0.949724  0  0  0.138855  0  1.008755  0  0  0.140459  0  1.008718  0  0  0.094372  0.137641  0  1.008845  0
H  H32  1  0.94133526  0.22834583  0.64578375  1  0  0.109725  0  0.960283  0  0  0.127253  0  1.026496  0  0  0.128781  0  1.026122  0  0  0.08816  0.126202  0  1.026716  0
H  H33  1  0.05866407  0.77165543  0.35421749  1  0  0.109726  0  0.960295  0  0  0.127258  0  1.0265  0  0  0.128785  0  1.026128  0  0  0.088164  0.126212  0  1.026716  0
H  H34  1  0.19336631  0.36371534  0.08719456  1  0  0.117387  0  0.950339  0  0  0.123801  0  1.01761  0  0  0.126977  0  1.016116  0  0  0.106482  0.121322  0  1.019001  0
H  H35  1  0.80663666  0.63628801  0.91280122  1  0  0.117341  0  0.950348  0  0  0.123724  0  1.017664  0  0  0.1269  0  1.016171  0  0  0.106462  0.121248  0  1.019056  0
H  H36  1  0.36107399  0.71710381  0.12600543  1  0  0.11131  0  0.959718  0  0  0.118325  0  1.028761  0  0  0.12163  0  1.0269  0  0  0.105186  0.11611  0  1.029928  0
H  H37  1  0.63893631  0.28289439  0.87399185  1  0  0.111278  0  0.959777  0  0  0.118298  0  1.028807  0  0  0.121601  0  1.026947  0  0  0.105174  0.116079  0  1.029982  0
C  C38  1  0.19729611  0.00883685  0.71333721  1  0  -0.112784  0  3.757735  0  0  -0.154345  0  3.997498  0  0  -0.152609  0  4.011353  0  0  -0.152548  -0.155189  0  3.988847  0
C  C39  1  0.80270432  0.99116442  0.28666368  1  0  -0.112764  0  3.757789  0  0  -0.154374  0  3.997591  0  0  -0.152621  0  4.011442  0  0  -0.152549  -0.155223  0  3.988945  0
C  C40  1  0.04263189  0.98530321  0.77224897  1  0  -0.138417  0  3.726526  0  0  -0.127038  0  3.979018  0  0  -0.137075  0  4.004124  0  0  -0.036002  -0.120764  0  3.962232  0
C  C41  1  0.95736818  0.01469596  0.22775139  1  0  -0.13844  0  3.726445  0  0  -0.12706  0  3.978967  0  0  -0.137094  0  4.004063  0  0  -0.036003  -0.120784  0  3.962181  0
C  C42  1  0.31223608  0.03382002  0.48139486  1  0  0.226077  0  3.753675  0  0  0.217012  0  4.024813  0  0  0.227347  0  4.04525  0  0  0.094408  0.210416  0  4.010248  0
C  C43  1  0.68776400  0.96617917  0.51860798  1  0  0.226159  0  3.753594  0  0  0.217097  0  4.024738  0  0  0.227438  0  4.045164  0  0  0.094434  0.210504  0  4.01017  0
C  C44  1  0.91090040  0.04484423  0.74122702  1  0  0.220156  0  3.766332  0  0  0.212764  0  4.033417  0  0  0.223281  0  4.053018  0  0  0.091317  0.205908  0  4.01993  0
C  C45  1  0.08910040  0.95515600  0.25877386  1  0  0.220084  0  3.766415  0  0  0.21275  0  4.033417  0  0  0.223267  0  4.053019  0  0  0.091302  0.205893  0  4.01993  0
C  C46  1  0.08394648  0.81708264  0.94436530  1  0  -0.352873  0  3.706031  0  0  -0.429143  0  3.946902  0  0  -0.432678  0  3.955326  0  0  -0.235681  -0.426365  0  3.940757  0
C  C47  1  0.91605361  0.18291022  0.05563478  1  0  -0.352982  0  3.705945  0  0  -0.429183  0  3.946831  0  0  -0.432716  0  3.955255  0  0  -0.23572  -0.426406  0  3.94069  0
C  C48  1  0.35652887  0.81451049  0.54719576  1  0  0.238654  0  3.703268  0  0  0.225277  0  3.969363  0  0  0.235485  0  3.987983  0  0  0.105114  0.218748  0  3.956378  0
C  C49  1  0.64346791  0.18549180  0.45280618  1  0  0.238531  0  3.703445  0  0  0.225212  0  3.969488  0  0  0.235416  0  3.988107  0  0  0.105025  0.218691  0  3.956505  0
C  C50  1  0.36763576  0.68330651  0.61534534  1  0  -0.357768  0  3.72398  0  0  -0.432141  0  3.963492  0  0  -0.435442  0  3.969401  0  0  -0.238779  -0.429554  0  3.959449  0
C  C51  1  0.63235811  0.31669474  0.38466090  1  0  -0.357902  0  3.724171  0  0  -0.432288  0  3.963651  0  0  -0.435588  0  3.969562  0  0  -0.238824  -0.429706  0  3.959604  0
C  C52  1  0.99668856  0.90436442  0.87150354  1  0  0.226115  0  3.712959  0  0  0.211837  0  3.982909  0  0  0.222027  0  4.001201  0  0  0.102258  0.205405  0  3.970041  0
C  C53  1  0.00331371  0.09563160  0.12849559  1  0  0.226154  0  3.71283  0  0  0.211814  0  3.98287  0  0  0.221998  0  4.001159  0  0  0.102255  0.205379  0  3.970001  0
C  C54  1  0.26520683  0.18855548  0.46901164  1  0  -0.36649  0  3.734974  0  0  -0.443975  0  3.976566  0  0  -0.447596  0  3.983461  0  0  -0.246989  -0.441121  0  3.971413  0
C  C55  1  0.73478848  0.81144469  0.53099011  1  0  -0.366517  0  3.734971  0  0  -0.443962  0  3.976574  0  0  -0.447585  0  3.983466  0  0  -0.24701  -0.44111  0  3.97142  0
C  C56  1  0.89621782  0.14276008  0.64325170  1  0  -0.354635  0  3.734709  0  0  -0.431753  0  3.976406  0  0  -0.435129  0  3.983472  0  0  -0.241871  -0.429275  0  3.971334  0
C  C57  1  0.10378188  0.85724013  0.35674869  1  0  -0.354594  0  3.73474  0  0  -0.431733  0  3.976415  0  0  -0.435113  0  3.983484  0  0  -0.241853  -0.429262  0  3.97134  0
C  C58  1  0.50356888  0.77348793  0.89982811  1  0  0.638292  0  3.936011  0  0  0.587892  0  4.227784  0  0  0.622397  0  4.220333  0  0  0.194969  0.564542  0  4.231619  0
C  C59  1  0.49643190  0.22651226  0.10016946  1  0  0.638409  0  3.935889  0  0  0.588  0  4.227664  0  0  0.622503  0  4.220213  0  0  0.19502  0.56465  0  4.231499  0
C  C60  1  0.28346999  0.95497009  0.58611101  1  0  -0.130519  0  3.700243  0  0  -0.119357  0  3.955779  0  0  -0.129368  0  3.980983  0  0  -0.033612  -0.11297  0  3.938549  0
C  C61  1  0.71652898  0.04503223  0.41389108  1  0  -0.13047  0  3.700249  0  0  -0.119333  0  3.955806  0  0  -0.129343  0  3.981001  0  0  -0.033588  -0.112943  0  3.938571  0
C  C62  1  0.14235754  0.40852443  0.92642241  1  0  -0.086713  0  3.73502  0  0  -0.071734  0  3.975838  0  0  -0.075846  0  3.993721  0  0  -0.013876  -0.069176  0  3.963936  0
C  C63  1  0.85764946  0.59147689  0.07357562  1  0  -0.086912  0  3.735189  0  0  -0.071976  0  3.976025  0  0  -0.076085  0  3.993906  0  0  -0.013898  -0.069423  0  3.964115  0
C  C64  1  0.96819406  0.51399959  0.12137072  1  0  0.120032  0  3.781574  0  0  0.122009  0  4.051532  0  0  0.125911  0  4.070721  0  0  0.015821  0.119182  0  4.038824  0
C  C65  1  0.03180196  0.48600476  0.87862796  1  0  0.119853  0  3.781484  0  0  0.121839  0  4.051438  0  0  0.125741  0  4.070628  0  0  0.015757  0.11901  0  4.038735  0
C  C66  1  0.10884184  0.42355630  0.04869574  1  0  -0.12843  0  3.725231  0  0  -0.16116  0  3.983036  0  0  -0.162437  0  4.002153  0  0  -0.089506  -0.160323  0  3.970255  0
C  C67  1  0.89115603  0.57644599  0.95130586  1  0  -0.128184  0  3.725206  0  0  -0.160892  0  3.983012  0  0  -0.162169  0  4.002128  0  0  -0.089433  -0.16006  0  3.970237  0
C  C68  1  0.29452149  0.30787407  0.85117747  1  0  0.669137  0  3.910165  0  0  0.611372  0  4.218663  0  0  0.645979  0  4.209524  0  0  0.20947  0.587979  0  4.223769  0
C  C69  1  0.70546837  0.69212608  0.14882928  1  0  0.669358  0  3.910585  0  0  0.611657  0  4.218944  0  0  0.646266  0  4.209798  0  0  0.20953  0.588283  0  4.224021  0
C  C70  1  0.50182137  0.63149430  0.94833172  1  0  -0.084821  0  3.726524  0  0  -0.070474  0  3.966766  0  0  -0.076004  0  3.986211  0  0  -0.014621  -0.067083  0  3.953548  0
C  C71  1  0.49818381  0.36850595  0.05166613  1  0  -0.084868  0  3.726601  0  0  -0.070503  0  3.966849  0  0  -0.076031  0  3.986293  0  0  -0.014667  -0.067112  0  3.95363  0
C  C72  1  0.42243761  0.62159070  0.07068668  1  0  -0.113112  0  3.715897  0  0  -0.145246  0  3.969044  0  0  -0.146207  0  3.987913  0  0  -0.08742  -0.144777  0  3.956028  0
C  C73  1  0.57756721  0.37840744  0.92931147  1  0  -0.113051  0  3.715843  0  0  -0.145176  0  3.968948  0  0  -0.146136  0  3.987811  0  0  -0.08733  -0.144708  0  3.955937  0
C  C74  1  0.57991500  0.50729998  0.87767811  1  0  0.129169  0  3.758369  0  0  0.129624  0  4.0308  0  0  0.133765  0  4.050739  0  0  0.019382  0.127049  0  4.01723  0
C  C75  1  0.42009054  0.49269920  0.12231807  1  0  0.12923  0  3.758358  0  0  0.129659  0  4.030833  0  0  0.133797  0  4.050773  0  0  0.019422  0.127084  0  4.01726  0
N  N76  1  0.79171914  0.00313322  0.81709812  1  0  -0.341389  0  3.150365  0  0  -0.28497  0  3.438799  0  0  -0.304327  0  3.456706  0  0  -0.267998  -0.271721  0  3.426356  0
N  N77  1  0.20828240  0.99686493  0.18290436  1  0  -0.341398  0  3.150536  0  0  -0.284981  0  3.438953  0  0  -0.304344  0  3.456859  0  0  -0.268018  -0.271735  0  3.426509  0
N  N78  1  0.39779851  0.94648987  0.38481751  1  0  -0.342516  0  3.16691  0  0  -0.28614  0  3.454999  0  0  -0.305936  0  3.473969  0  0  -0.273228  -0.272541  0  3.442033  0
N  N79  1  0.60219937  0.05350928  0.61518436  1  0  -0.34261  0  3.166878  0  0  -0.28624  0  3.455013  0  0  -0.306043  0  3.47398  0  0  -0.273257  -0.272637  0  3.442056  0
N  N80  1  0.42275241  0.81497746  0.42676589  1  0  -0.221197  0  3.508056  0  0  -0.168334  0  3.742756  0  0  -0.180727  0  3.76161  0  0  -0.293216  -0.160184  0  3.730095  0
N  N81  1  0.57723890  0.18502482  0.57324106  1  0  -0.221019  0  3.507994  0  0  -0.168202  0  3.74272  0  0  -0.180584  0  3.761564  0  0  -0.293139  -0.160069  0  3.730072  0
N  N82  1  0.84650157  0.91768772  0.89501396  1  0  -0.206755  0  3.469085  0  0  -0.157471  0  3.711252  0  0  -0.169553  0  3.72965  0  0  -0.291416  -0.149569  0  3.698869  0
N  N83  1  0.15349852  0.08230830  0.10498750  1  0  -0.206683  0  3.46921  0  0  -0.157407  0  3.711427  0  0  -0.169476  0  3.729814  0  0  -0.291383  -0.149502  0  3.69904  0
Cl  Cl84  1  0.93340194  0.53144899  0.27190031  1  0  -0.091925  0  1.342491  0  0  -0.073881  0  1.55852  0  0  -0.075957  0  1.552  0  0  0.0105  -0.072229  0  1.563056  0
Cl  Cl85  1  0.06659995  0.46855121  0.72809692  1  0  -0.091918  0  1.342558  0  0  -0.073878  0  1.558586  0  0  -0.075954  0  1.552068  0  0  0.010505  -0.072222  0  1.563122  0
Cl  Cl86  1  0.68500824  0.50807132  0.72643442  1  0  -0.069967  0  1.380774  0  0  -0.050951  0  1.608294  0  0  -0.054068  0  1.602884  0  0  0.023706  -0.049019  0  1.612303  0
Cl  Cl87  1  0.31499839  0.49193105  0.27356445  1  0  -0.070052  0  1.380634  0  0  -0.051024  0  1.608166  0  0  -0.054141  0  1.602757  0  0  0.023641  -0.049093  0  1.612176  0
O  O88  1  0.52754084  0.85529494  0.96086632  1  0  -0.659897  0  2.015636  0  0  -0.588259  0  2.272685  0  0  -0.618939  0  2.262485  0  0  -0.333518  -0.566463  0  2.278281  0
O  O89  1  0.47246178  0.14470634  0.03913224  1  0  -0.659928  0  2.015592  0  0  -0.588299  0  2.272688  0  0  -0.61898  0  2.262493  0  0  -0.333554  -0.566506  0  2.278286  0
O  O90  1  0.48445142  0.80827907  0.80221911  1  0  -0.617106  0  2.000806  0  0  -0.558041  0  2.237159  0  0  -0.584721  0  2.228575  0  0  -0.308052  -0.538837  0  2.242648  0
O  O91  1  0.51554901  0.19172217  0.19777930  1  0  -0.617102  0  2.000669  0  0  -0.558087  0  2.237118  0  0  -0.584767  0  2.228536  0  0  -0.308041  -0.538879  0  2.242608  0
O  O92  1  0.38948568  0.35454164  0.76967338  1  0  -0.598335  0  1.962057  0  0  -0.555935  0  2.190447  0  0  -0.580299  0  2.182734  0  0  -0.308781  -0.538629  0  2.194804  0
O  O93  1  0.61051322  0.64547001  0.23031714  1  0  -0.598351  0  1.962821  0  0  -0.555969  0  2.191209  0  0  -0.58033  0  2.183487  0  0  -0.308731  -0.538678  0  2.195567  0
O  O94  1  0.31281475  0.17907162  0.88063332  1  0  -0.645115  0  2.060644  0  0  -0.567901  0  2.31724  0  0  -0.597959  0  2.304866  0  0  -0.320529  -0.546863  0  2.325653  0
O  O95  1  0.68718967  0.82093067  0.11935962  1  0  -0.645265  0  2.060619  0  0  -0.568015  0  2.317077  0  0  -0.598083  0  2.304708  0  0  -0.320548  -0.546982  0  2.32548  0
