# generated using pymatgen
data_Zn3H24(C2O)14
_symmetry_space_group_name_H-M   'P 1'
_cell_length_a   10.66275970
_cell_length_b   10.91657876
_cell_length_c   16.26794471
_cell_angle_alpha   106.20140995
_cell_angle_beta   90.00422547
_cell_angle_gamma   119.24142726
_symmetry_Int_Tables_number   1
_chemical_formula_structural   Zn3H24(C2O)14
_chemical_formula_sum   'Zn6 H48 C56 O28'
_cell_volume   1565.52680606
_cell_formula_units_Z   2
loop_
 _symmetry_equiv_pos_site_id
 _symmetry_equiv_pos_as_xyz
  1  'x, y, z'
loop_
 _atom_site_type_symbol
 _atom_site_label
 _atom_site_symmetry_multiplicity
 _atom_site_fract_x
 _atom_site_fract_y
 _atom_site_fract_z
 _atom_site_occupancy
 _atom_site_hle17_bader_spin_density
 _atom_site_hle17_ddec_charge
 _atom_site_hle17_ddec_spin_density
 _atom_site_hle17_ddec_sum_bond_order
 _atom_site_hle17_magmom
 _atom_site_hse06_10hf_bader_spin_density
 _atom_site_hse06_10hf_ddec_charge
 _atom_site_hse06_10hf_ddec_spin_density
 _atom_site_hse06_10hf_ddec_sum_bond_order
 _atom_site_hse06_10hf_magmom
 _atom_site_hse06_bader_spin_density
 _atom_site_hse06_ddec_charge
 _atom_site_hse06_ddec_spin_density
 _atom_site_hse06_ddec_sum_bond_order
 _atom_site_hse06_magmom
 _atom_site_pbe_bader_spin_density
 _atom_site_pbe_cm5_charge
 _atom_site_pbe_ddec_charge
 _atom_site_pbe_ddec_spin_density
 _atom_site_pbe_ddec_sum_bond_order
 _atom_site_pbe_magmom
Zn  Zn0  1  0.72918355  0.13428810  0.90982995  1  0  1.134635  0  1.752066  0  0  0.957669  0  2.229247  0  0  1.009189  0  2.163433  0  0  0.694551  0.921212  0  2.274789  0
Zn  Zn1  1  0.59500203  0.86575173  0.59013499  1  0  1.134838  0  1.752038  0  0  0.957832  0  2.229354  0  0  1.009394  0  2.163488  0  0  0.69489  0.92137  0  2.274957  0
Zn  Zn2  1  0.27081603  0.86571080  0.09016973  1  0  1.134655  0  1.752053  0  0  0.957693  0  2.229233  0  0  1.009214  0  2.163418  0  0  0.694574  0.921246  0  2.274771  0
Zn  Zn3  1  0.40499865  0.13424938  0.40986634  1  0  1.134847  0  1.752024  0  0  0.957823  0  2.229369  0  0  1.009387  0  2.1635  0  0  0.694895  0.92138  0  2.274929  0
Zn  Zn4  1  0.99999951  0.50000058  0.99999968  1  0  1.217375  0  1.803242  0  0  1.07952  0  2.257307  0  0  1.121938  0  2.195883  0  0  0.710622  1.050584  0  2.299888  0
Zn  Zn5  1  0.49999979  0.49999945  0.49999984  1  0  1.217546  0  1.804662  0  0  1.079198  0  2.259248  0  0  1.121493  0  2.198041  0  0  0.710831  1.050377  0  2.301629  0
H  H6  1  0.90250738  0.03648928  0.68224006  1  0  0.094913  0  0.981309  0  0  0.10059  0  1.052255  0  0  0.103598  0  1.050782  0  0  0.100789  0.098687  0  1.05283  0
H  H7  1  0.86592986  0.96349400  0.81791916  1  0  0.095053  0  0.981121  0  0  0.100765  0  1.051849  0  0  0.103747  0  1.050419  0  0  0.100651  0.098845  0  1.052473  0
H  H8  1  0.09749237  0.96351183  0.31776127  1  0  0.094969  0  0.981243  0  0  0.1006  0  1.052241  0  0  0.103608  0  1.050765  0  0  0.100799  0.098694  0  1.052824  0
H  H9  1  0.13407027  0.03650601  0.18208073  1  0  0.095032  0  0.981141  0  0  0.100745  0  1.051868  0  0  0.103728  0  1.050437  0  0  0.10065  0.09883  0  1.05249  0
H  H10  1  0.05486012  0.02183240  0.56789629  1  0  0.107475  0  0.945959  0  0  0.116808  0  1.005794  0  0  0.120277  0  1.003649  0  0  0.107987  0.114231  0  1.00753  0
H  H11  1  0.03303563  0.97813402  0.93219406  1  0  0.106888  0  0.946009  0  0  0.116468  0  1.005607  0  0  0.119979  0  1.00341  0  0  0.107714  0.113873  0  1.007372  0
H  H12  1  0.94513963  0.97816871  0.43210442  1  0  0.107456  0  0.945968  0  0  0.116787  0  1.005812  0  0  0.120255  0  1.003668  0  0  0.107974  0.114205  0  1.007555  0
H  H13  1  0.96696395  0.02186487  0.06780562  1  0  0.106855  0  0.946009  0  0  0.116437  0  1.005608  0  0  0.119949  0  1.003412  0  0  0.107698  0.113843  0  1.007372  0
H  H14  1  0.39678178  0.46534223  0.70640909  1  0  0.108278  0  0.936887  0  0  0.119151  0  0.993093  0  0  0.122705  0  0.990919  0  0  0.108657  0.116796  0  0.994387  0
H  H15  1  0.93153389  0.53475349  0.79354681  1  0  0.108567  0  0.935345  0  0  0.119217  0  0.991752  0  0  0.122773  0  0.989573  0  0  0.108595  0.116868  0  0.99303  0
H  H16  1  0.60321947  0.53465999  0.29359122  1  0  0.108334  0  0.936872  0  0  0.119169  0  0.993115  0  0  0.122723  0  0.99094  0  0  0.108661  0.116812  0  0.994405  0
H  H17  1  0.06846625  0.46524651  0.20645308  1  0  0.108563  0  0.935349  0  0  0.119214  0  0.991757  0  0  0.12277  0  0.989576  0  0  0.108593  0.116862  0  0.993033  0
H  H18  1  0.24662875  0.47641374  0.82501637  1  0  0.106141  0  0.947464  0  0  0.114509  0  1.01015  0  0  0.117704  0  1.008753  0  0  0.107735  0.112125  0  1.011391  0
H  H19  1  0.77018994  0.52368622  0.67501090  1  0  0.104794  0  0.947727  0  0  0.113814  0  1.009847  0  0  0.116941  0  1.008538  0  0  0.10749  0.111489  0  1.011025  0
H  H20  1  0.75337233  0.52358626  0.17498352  1  0  0.106152  0  0.947441  0  0  0.11452  0  1.010129  0  0  0.117715  0  1.008732  0  0  0.107741  0.112132  0  1.011373  0
H  H21  1  0.22981019  0.47631378  0.32498960  1  0  0.104796  0  0.947694  0  0  0.113816  0  1.009818  0  0  0.116941  0  1.008513  0  0  0.107509  0.111493  0  1.010994  0
H  H22  1  0.75157749  0.63693336  0.96886192  1  0  0.104742  0  0.952325  0  0  0.112474  0  1.014769  0  0  0.115293  0  1.014106  0  0  0.103302  0.110383  0  1.015492  0
H  H23  1  0.11452268  0.36292368  0.53105996  1  0  0.105286  0  0.952294  0  0  0.113059  0  1.014682  0  0  0.115886  0  1.014007  0  0  0.103379  0.110971  0  1.015403  0
H  H24  1  0.24842265  0.36306665  0.03113735  1  0  0.104749  0  0.952324  0  0  0.11248  0  1.014768  0  0  0.1153  0  1.014104  0  0  0.103306  0.110391  0  1.015491  0
H  H25  1  0.88547839  0.63707633  0.46893932  1  0  0.105261  0  0.952319  0  0  0.11303  0  1.014711  0  0  0.115856  0  1.014037  0  0  0.103367  0.110939  0  1.015428  0
H  H26  1  0.39012795  0.23366825  0.98726009  1  0  0.107308  0  0.940234  0  0  0.117367  0  0.997667  0  0  0.121329  0  0.994992  0  0  0.106434  0.114418  0  0.999898  0
H  H27  1  0.15662910  0.76631088  0.51273798  1  0  0.107559  0  0.940272  0  0  0.117279  0  0.998127  0  0  0.12123  0  0.995452  0  0  0.106333  0.114329  0  1.000345  0
H  H28  1  0.60987219  0.76633176  0.01273857  1  0  0.107303  0  0.940206  0  0  0.117365  0  0.997643  0  0  0.121327  0  0.994968  0  0  0.106432  0.114416  0  0.999875  0
H  H29  1  0.84337197  0.23368913  0.48726130  1  0  0.107569  0  0.940271  0  0  0.117288  0  0.998129  0  0  0.121238  0  0.995453  0  0  0.106337  0.114339  0  1.000352  0
H  H30  1  0.61118879  0.87719960  0.78307824  1  0  0.393623  0  0.893768  0  0  0.367441  0  0.962553  0  0  0.377835  0  0.951429  0  0  0.304326  0.36001  0  0.970429  0
H  H31  1  0.73398466  0.12283995  0.71692034  1  0  0.393405  0  0.893417  0  0  0.367199  0  0.962163  0  0  0.377561  0  0.95114  0  0  0.304191  0.359781  0  0.970016  0
H  H32  1  0.38880891  0.12279930  0.21692206  1  0  0.393607  0  0.893772  0  0  0.367434  0  0.962537  0  0  0.377826  0  0.951418  0  0  0.304346  0.360005  0  0.970411  0
H  H33  1  0.26601603  0.87716117  0.28307976  1  0  0.393408  0  0.893408  0  0  0.367203  0  0.962155  0  0  0.377566  0  0.951131  0  0  0.3042  0.359787  0  0.970007  0
H  H34  1  0.43988589  0.73218812  0.86647368  1  0  0.039511  0  0.920816  0  0  0.05599  0  0.981478  0  0  0.055822  0  0.981687  0  0  0.096886  0.055941  0  0.981505  0
H  H35  1  0.70769650  0.26775654  0.63349241  1  0  0.03937  0  0.920735  0  0  0.05562  0  0.98181  0  0  0.055429  0  0.982042  0  0  0.096919  0.055566  0  0.981839  0
H  H36  1  0.56011220  0.26780966  0.13352579  1  0  0.03947  0  0.920882  0  0  0.055974  0  0.981517  0  0  0.055806  0  0.981724  0  0  0.096874  0.055927  0  0.98154  0
H  H37  1  0.29230363  0.73224346  0.36650687  1  0  0.039383  0  0.920708  0  0  0.055624  0  0.981782  0  0  0.055432  0  0.982016  0  0  0.096914  0.05557  0  0.981806  0
H  H38  1  0.42615543  0.89178630  0.91242087  1  0  0.05324  0  0.913696  0  0  0.070581  0  0.97256  0  0  0.070449  0  0.972335  0  0  0.103928  0.070573  0  0.972818  0
H  H39  1  0.53435709  0.10813003  0.58749603  1  0  0.053235  0  0.913503  0  0  0.070537  0  0.972536  0  0  0.070366  0  0.972361  0  0  0.103888  0.070552  0  0.972775  0
H  H40  1  0.57384227  0.10821260  0.08757943  1  0  0.053257  0  0.913685  0  0  0.070589  0  0.972566  0  0  0.070456  0  0.972341  0  0  0.103933  0.070582  0  0.972819  0
H  H41  1  0.46564454  0.89187108  0.41250407  1  0  0.053251  0  0.913502  0  0  0.070549  0  0.972526  0  0  0.070378  0  0.972351  0  0  0.103885  0.070561  0  0.972765  0
H  H42  1  0.32593024  0.87010596  0.76618690  1  0  0.109546  0  0.940085  0  0  0.131297  0  0.996776  0  0  0.132944  0  0.996573  0  0  0.090556  0.13007  0  0.997018  0
H  H43  1  0.45570563  0.12977497  0.73370795  1  0  0.108874  0  0.939908  0  0  0.13061  0  0.996797  0  0  0.132265  0  0.996588  0  0  0.09039  0.12937  0  0.997056  0
H  H44  1  0.67406951  0.12989515  0.23381320  1  0  0.109552  0  0.940094  0  0  0.131303  0  0.996783  0  0  0.132951  0  0.996579  0  0  0.090563  0.130074  0  0.997029  0
H  H45  1  0.54429545  0.87022504  0.26629195  1  0  0.10885  0  0.939922  0  0  0.130587  0  0.996815  0  0  0.132243  0  0.996605  0  0  0.090386  0.129345  0  0.997076  0
H  H46  1  0.21940939  0.70079249  0.78910322  1  0  0.112785  0  0.967725  0  0  0.132613  0  1.031565  0  0  0.13309  0  1.033399  0  0  0.090727  0.132335  0  1.03003  0
H  H47  1  0.51852606  0.29910401  0.71080335  1  0  0.112697  0  0.967584  0  0  0.132501  0  1.031519  0  0  0.133009  0  1.03331  0  0  0.090702  0.132212  0  1.030001  0
H  H48  1  0.78058831  0.29920641  0.21089585  1  0  0.112754  0  0.967784  0  0  0.132591  0  1.031613  0  0  0.133069  0  1.033446  0  0  0.090701  0.132317  0  1.030072  0
H  H49  1  0.48147408  0.70089600  0.28919655  1  0  0.112693  0  0.967586  0  0  0.132494  0  1.031524  0  0  0.133004  0  1.033318  0  0  0.090698  0.132206  0  1.030001  0
H  H50  1  0.34723888  0.71439300  0.71746207  1  0  0.10972  0  0.974195  0  0  0.129557  0  1.036476  0  0  0.130348  0  1.037904  0  0  0.086797  0.12889  0  1.035717  0
H  H51  1  0.63274475  0.28550754  0.78245048  1  0  0.109407  0  0.973942  0  0  0.129279  0  1.036325  0  0  0.130062  0  1.037753  0  0  0.086925  0.128612  0  1.035567  0
H  H52  1  0.65276087  0.28560811  0.28253803  1  0  0.109732  0  0.974145  0  0  0.129568  0  1.036432  0  0  0.130359  0  1.03786  0  0  0.086805  0.128899  0  1.035675  0
H  H53  1  0.36725538  0.71449246  0.21754942  1  0  0.109357  0  0.973932  0  0  0.129228  0  1.036325  0  0  0.130011  0  1.037754  0  0  0.086895  0.12856  0  1.035566  0
C  C54  1  0.06560814  0.25812423  0.75988150  1  0  -0.06438  0  3.758108  0  0  -0.042087  0  3.988308  0  0  -0.049589  0  4.011514  0  0  -0.014596  -0.037233  0  3.972597  0
C  C55  1  0.80737264  0.74188025  0.74020421  1  0  -0.064111  0  3.7561  0  0  -0.04197  0  3.986991  0  0  -0.049374  0  4.010032  0  0  -0.014801  -0.037177  0  3.971374  0
C  C56  1  0.93439255  0.74187688  0.24011983  1  0  -0.064392  0  3.758072  0  0  -0.042117  0  3.988288  0  0  -0.04962  0  4.011493  0  0  -0.014626  -0.037268  0  3.972582  0
C  C57  1  0.19262601  0.25811865  0.25979486  1  0  -0.064086  0  3.756073  0  0  -0.041992  0  3.987027  0  0  -0.049394  0  4.010068  0  0  -0.014802  -0.037207  0  3.971423  0
C  C58  1  0.01073115  0.13005288  0.68745847  1  0  -0.066627  0  3.730599  0  0  -0.09077  0  3.98047  0  0  -0.091939  0  4.001865  0  0  -0.083118  -0.089833  0  3.965508  0
C  C59  1  0.88056779  0.86991450  0.81265081  1  0  -0.066829  0  3.731077  0  0  -0.090794  0  3.980603  0  0  -0.091974  0  4.001945  0  0  -0.082987  -0.089848  0  3.965685  0
C  C60  1  0.98926954  0.86994823  0.31254225  1  0  -0.066656  0  3.730571  0  0  -0.09075  0  3.980459  0  0  -0.091917  0  4.001853  0  0  -0.083133  -0.089826  0  3.965515  0
C  C61  1  0.11943328  0.13008550  0.18734970  1  0  -0.066828  0  3.731054  0  0  -0.090776  0  3.980586  0  0  -0.091958  0  4.00193  0  0  -0.083  -0.08983  0  3.965672  0
C  C62  1  0.09561440  0.12166538  0.62367448  1  0  -0.063258  0  3.714332  0  0  -0.085722  0  3.958184  0  0  -0.086315  0  3.978098  0  0  -0.078576  -0.085205  0  3.944756  0
C  C63  1  0.97391373  0.87831981  0.87640987  1  0  -0.062851  0  3.713273  0  0  -0.084844  0  3.95719  0  0  -0.085461  0  3.977099  0  0  -0.077716  -0.084319  0  3.943769  0
C  C64  1  0.90438629  0.87833573  0.37632562  1  0  -0.063259  0  3.714343  0  0  -0.085739  0  3.958177  0  0  -0.086333  0  3.978093  0  0  -0.078566  -0.085217  0  3.94475  0
C  C65  1  0.02608641  0.12168020  0.12359064  1  0  -0.0628  0  3.713171  0  0  -0.084792  0  3.957087  0  0  -0.085409  0  3.976995  0  0  -0.077681  -0.084265  0  3.943663  0
C  C66  1  0.23474286  0.24299485  0.63078344  1  0  -0.059283  0  3.744883  0  0  -0.035424  0  3.974395  0  0  -0.043147  0  3.997249  0  0  -0.009845  -0.030214  0  3.958941  0
C  C67  1  0.99178269  0.75703831  0.86924980  1  0  -0.058369  0  3.744535  0  0  -0.036529  0  3.976493  0  0  -0.044257  0  3.999335  0  0  -0.010477  -0.0313  0  3.961031  0
C  C68  1  0.76525579  0.75700405  0.36921624  1  0  -0.059291  0  3.744996  0  0  -0.035385  0  3.974449  0  0  -0.043106  0  3.997307  0  0  -0.009844  -0.030173  0  3.958976  0
C  C69  1  0.00821651  0.24296170  0.13074947  1  0  -0.05837  0  3.744517  0  0  -0.036547  0  3.976469  0  0  -0.044271  0  3.999309  0  0  -0.010492  -0.031324  0  3.961008  0
C  C70  1  0.28909292  0.37187485  0.70287950  1  0  -0.055384  0  3.711674  0  0  -0.079617  0  3.960425  0  0  -0.079828  0  3.979765  0  0  -0.075175  -0.079414  0  3.946916  0
C  C71  1  0.91725130  0.62818857  0.79712884  1  0  -0.055054  0  3.710284  0  0  -0.078458  0  3.959468  0  0  -0.078657  0  3.978781  0  0  -0.074925  -0.078276  0  3.94598  0
C  C72  1  0.71090628  0.62812515  0.29712100  1  0  -0.055444  0  3.711838  0  0  -0.079665  0  3.960581  0  0  -0.079877  0  3.979924  0  0  -0.075205  -0.079469  0  3.947067  0
C  C73  1  0.08274884  0.37181144  0.20287105  1  0  -0.055041  0  3.710241  0  0  -0.078446  0  3.959428  0  0  -0.078644  0  3.978738  0  0  -0.074923  -0.078253  0  3.945927  0
C  C74  1  0.20588631  0.37871639  0.76774829  1  0  -0.06274  0  3.716999  0  0  -0.08433  0  3.962255  0  0  -0.085559  0  3.98315  0  0  -0.076153  -0.083373  0  3.948055  0
C  C75  1  0.82713379  0.62134076  0.73229404  1  0  -0.062445  0  3.716235  0  0  -0.084474  0  3.961173  0  0  -0.085687  0  3.982083  0  0  -0.075786  -0.083534  0  3.946967  0
C  C76  1  0.79411476  0.62128361  0.23225222  1  0  -0.062732  0  3.716912  0  0  -0.084321  0  3.962178  0  0  -0.085548  0  3.983072  0  0  -0.076141  -0.083357  0  3.947973  0
C  C77  1  0.17286579  0.37865813  0.26770625  1  0  -0.062463  0  3.716154  0  0  -0.084479  0  3.961116  0  0  -0.085693  0  3.982027  0  0  -0.075798  -0.08354  0  3.94691  0
C  C78  1  0.97858700  0.26648916  0.83060934  1  0  0.675563  0  3.845697  0  0  0.62265  0  4.133793  0  0  0.658268  0  4.124423  0  0  0.226987  0.598567  0  4.139116  0
C  C79  1  0.71205757  0.73355892  0.66944713  1  0  0.676437  0  3.842982  0  0  0.622988  0  4.132314  0  0  0.658609  0  4.122938  0  0  0.227471  0.59892  0  4.137632  0
C  C80  1  0.02141462  0.73351194  0.16939199  1  0  0.675495  0  3.845778  0  0  0.622602  0  4.133858  0  0  0.658223  0  4.124487  0  0  0.226981  0.598523  0  4.139177  0
C  C81  1  0.28794201  0.26643997  0.33055317  1  0  0.676448  0  3.842954  0  0  0.623012  0  4.132288  0  0  0.658635  0  4.12291  0  0  0.227493  0.598949  0  4.137607  0
C  C82  1  0.32570259  0.23840803  0.56174085  1  0  0.665994  0  3.880484  0  0  0.615599  0  4.168681  0  0  0.651203  0  4.16023  0  0  0.219623  0.591385  0  4.173674  0
C  C83  1  0.08738167  0.76164970  0.93829464  1  0  0.664453  0  3.88148  0  0  0.614544  0  4.169774  0  0  0.650149  0  4.161329  0  0  0.21857  0.590332  0  4.174758  0
C  C84  1  0.67429661  0.76159198  0.43825965  1  0  0.666018  0  3.880462  0  0  0.615619  0  4.168644  0  0  0.651217  0  4.160207  0  0  0.219658  0.591422  0  4.173612  0
C  C85  1  0.91261902  0.23835141  0.06170546  1  0  0.664384  0  3.88156  0  0  0.614527  0  4.169782  0  0  0.650125  0  4.161342  0  0  0.218568  0.59032  0  4.174757  0
C  C86  1  0.57930974  0.42850252  0.97569591  1  0  -0.058603  0  3.742991  0  0  -0.036159  0  3.973998  0  0  -0.043846  0  3.997366  0  0  -0.013423  -0.030978  0  3.958635  0
C  C87  1  0.15081634  0.57139970  0.52424413  1  0  -0.057537  0  3.743347  0  0  -0.035171  0  3.974514  0  0  -0.042841  0  3.997852  0  0  -0.013214  -0.030007  0  3.959169  0
C  C88  1  0.42069040  0.57149748  0.02430460  1  0  -0.058638  0  3.743063  0  0  -0.036248  0  3.97415  0  0  -0.043937  0  3.997522  0  0  -0.01344  -0.031064  0  3.958787  0
C  C89  1  0.84918434  0.42860141  0.47575597  1  0  -0.057554  0  3.743398  0  0  -0.03519  0  3.974566  0  0  -0.04286  0  3.997903  0  0  -0.013214  -0.030021  0  3.959215  0
C  C90  1  0.64135154  0.57844857  0.98259164  1  0  -0.056444  0  3.71444  0  0  -0.079145  0  3.961334  0  0  -0.079884  0  3.982203  0  0  -0.078761  -0.078711  0  3.947679  0
C  C91  1  0.06283590  0.42147101  0.51735473  1  0  -0.057804  0  3.716061  0  0  -0.080569  0  3.962963  0  0  -0.08133  0  3.983845  0  0  -0.079115  -0.080114  0  3.949297  0
C  C92  1  0.35864859  0.42155143  0.01740825  1  0  -0.056444  0  3.714476  0  0  -0.079143  0  3.961396  0  0  -0.079881  0  3.982265  0  0  -0.078774  -0.078708  0  3.947741  0
C  C93  1  0.93716479  0.57853011  0.48264476  1  0  -0.057773  0  3.716095  0  0  -0.080531  0  3.962997  0  0  -0.081289  0  3.983879  0  0  -0.079103  -0.080072  0  3.949315  0
C  C94  1  0.43738864  0.35023907  0.99316813  1  0  -0.073353  0  3.726784  0  0  -0.095856  0  3.972575  0  0  -0.097009  0  3.992866  0  0  -0.081033  -0.095224  0  3.95921  0
C  C95  1  0.08723925  0.64974233  0.50682123  1  0  -0.073581  0  3.727907  0  0  -0.095765  0  3.973786  0  0  -0.096894  0  3.994052  0  0  -0.080754  -0.095126  0  3.960406  0
C  C96  1  0.56261055  0.64976094  0.00683176  1  0  -0.073331  0  3.726735  0  0  -0.095832  0  3.972553  0  0  -0.096985  0  3.992845  0  0  -0.081034  -0.095199  0  3.959185  0
C  C97  1  0.91276089  0.35025767  0.49317805  1  0  -0.073574  0  3.727939  0  0  -0.095755  0  3.97382  0  0  -0.096883  0  3.994085  0  0  -0.08074  -0.09512  0  3.960452  0
C  C98  1  0.66576054  0.35418701  0.95007482  1  0  0.665051  0  3.875259  0  0  0.614733  0  4.165217  0  0  0.650413  0  4.156252  0  0  0.217715  0.58981  0  4.171649  0
C  C99  1  0.31160174  0.64567211  0.54986673  1  0  0.665173  0  3.876083  0  0  0.614658  0  4.166325  0  0  0.65035  0  4.157311  0  0  0.217885  0.58972  0  4.172788  0
C  C100  1  0.33423959  0.64581299  0.04992507  1  0  0.665029  0  3.875349  0  0  0.614737  0  4.165298  0  0  0.650416  0  4.156334  0  0  0.217716  0.589803  0  4.17174  0
C  C101  1  0.68839839  0.35432789  0.45013316  1  0  0.665179  0  3.876078  0  0  0.614658  0  4.166325  0  0  0.650351  0  4.157309  0  0  0.217878  0.589717  0  4.172788  0
C  C102  1  0.44187859  0.82644646  0.85301186  1  0  0.215167  0  3.606557  0  0  0.161699  0  3.875787  0  0  0.170364  0  3.882313  0  0  -0.06916  0.155817  0  3.871267  0
C  C103  1  0.61537752  0.17348931  0.64693625  1  0  0.215251  0  3.604545  0  0  0.161898  0  3.874075  0  0  0.170587  0  3.880607  0  0  -0.069481  0.156014  0  3.869539  0
C  C104  1  0.55811967  0.17355354  0.14698804  1  0  0.215179  0  3.606506  0  0  0.161679  0  3.875761  0  0  0.170349  0  3.882277  0  0  -0.069154  0.155795  0  3.871238  0
C  C105  1  0.38462317  0.82651180  0.35306324  1  0  0.215207  0  3.604707  0  0  0.161884  0  3.874195  0  0  0.17057  0  3.880733  0  0  -0.069477  0.156005  0  3.869649  0
C  C106  1  0.32729790  0.77570741  0.77682729  1  0  -0.347708  0  3.706609  0  0  -0.422624  0  3.946727  0  0  -0.426559  0  3.957453  0  0  -0.255217  -0.419793  0  3.939376  0
C  C107  1  0.55150198  0.22421412  0.72308862  1  0  -0.346104  0  3.70436  0  0  -0.42099  0  3.944493  0  0  -0.424943  0  3.955229  0  0  -0.254899  -0.418154  0  3.937158  0
C  C108  1  0.67270224  0.22429260  0.22317260  1  0  -0.347692  0  3.706595  0  0  -0.422616  0  3.94672  0  0  -0.426553  0  3.957442  0  0  -0.255211  -0.419785  0  3.939368  0
C  C109  1  0.44849871  0.77578699  0.27691209  1  0  -0.346017  0  3.704458  0  0  -0.420906  0  3.944587  0  0  -0.424861  0  3.955325  0  0  -0.254866  -0.418068  0  3.937246  0
O  O110  1  0.04360873  0.35691617  0.90471615  1  0  -0.611848  0  2.095787  0  0  -0.553058  0  2.356496  0  0  -0.579413  0  2.344254  0  0  -0.292913  -0.534665  0  2.364161  0
O  O111  1  0.68668213  0.64316740  0.59534231  1  0  -0.612097  0  2.095486  0  0  -0.553138  0  2.356595  0  0  -0.579461  0  2.344328  0  0  -0.29318  -0.534826  0  2.36442  0
O  O112  1  0.95639140  0.64308383  0.09528497  1  0  -0.611803  0  2.095833  0  0  -0.552994  0  2.35651  0  0  -0.579344  0  2.344254  0  0  -0.292861  -0.534601  0  2.36417  0
O  O113  1  0.31331706  0.35683260  0.40465758  1  0  -0.612091  0  2.095491  0  0  -0.553134  0  2.356603  0  0  -0.579455  0  2.344333  0  0  -0.293176  -0.534824  0  2.364433  0
O  O114  1  0.83843128  0.17466712  0.81161035  1  0  -0.677497  0  2.133181  0  0  -0.594723  0  2.398685  0  0  -0.62425  0  2.381529  0  0  -0.314556  -0.573914  0  2.409451  0
O  O115  1  0.66377102  0.82541012  0.68840466  1  0  -0.67795  0  2.131972  0  0  -0.59502  0  2.39757  0  0  -0.624685  0  2.380581  0  0  -0.315071  -0.574182  0  2.408235  0
O  O116  1  0.16156979  0.82533288  0.18839016  1  0  -0.677446  0  2.133193  0  0  -0.594709  0  2.398733  0  0  -0.624239  0  2.38158  0  0  -0.314569  -0.573896  0  2.409478  0
O  O117  1  0.33622911  0.17458989  0.31159524  1  0  -0.677945  0  2.131984  0  0  -0.595015  0  2.397567  0  0  -0.624681  0  2.380577  0  0  -0.315074  -0.574181  0  2.408235  0
O  O118  1  0.44866458  0.35280215  0.56909291  1  0  -0.665174  0  2.104124  0  0  -0.604929  0  2.369759  0  0  -0.631374  0  2.355822  0  0  -0.319431  -0.586541  0  2.378652  0
O  O119  1  0.09595987  0.64727086  0.93094003  1  0  -0.66454  0  2.104684  0  0  -0.604518  0  2.370213  0  0  -0.630999  0  2.356336  0  0  -0.319042  -0.586131  0  2.379082  0
O  O120  1  0.55133462  0.64719785  0.43090760  1  0  -0.66521  0  2.104086  0  0  -0.604983  0  2.369744  0  0  -0.631417  0  2.355793  0  0  -0.319487  -0.586607  0  2.378641  0
O  O121  1  0.90404082  0.35273025  0.06906007  1  0  -0.664522  0  2.104697  0  0  -0.604514  0  2.37019  0  0  -0.631007  0  2.356352  0  0  -0.319057  -0.586141  0  2.379083  0
O  O122  1  0.27513646  0.11719349  0.49778787  1  0  -0.63627  0  2.017866  0  0  -0.566206  0  2.281191  0  0  -0.595752  0  2.265587  0  0  -0.316763  -0.545426  0  2.291145  0
O  O123  1  0.15798904  0.88283674  0.00227033  1  0  -0.635595  0  2.017136  0  0  -0.565276  0  2.279964  0  0  -0.594851  0  2.264464  0  0  -0.315767  -0.544511  0  2.289906  0
O  O124  1  0.72486274  0.88280651  0.50221264  1  0  -0.636264  0  2.017877  0  0  -0.566203  0  2.281203  0  0  -0.595743  0  2.265597  0  0  -0.316758  -0.545431  0  2.291158  0
O  O125  1  0.84200960  0.11716215  0.99773058  1  0  -0.635548  0  2.017136  0  0  -0.565243  0  2.279926  0  0  -0.594816  0  2.264433  0  0  -0.315747  -0.544479  0  2.289869  0
O  O126  1  0.79250939  0.42632927  0.93306505  1  0  -0.66254  0  2.096362  0  0  -0.608289  0  2.368437  0  0  -0.634089  0  2.354226  0  0  -0.316411  -0.590229  0  2.377958  0
O  O127  1  0.36615430  0.57352109  0.56690934  1  0  -0.662345  0  2.097735  0  0  -0.607637  0  2.369424  0  0  -0.633413  0  2.355172  0  0  -0.315957  -0.589612  0  2.379032  0
O  O128  1  0.20749168  0.57367073  0.06693484  1  0  -0.662508  0  2.096361  0  0  -0.608234  0  2.368373  0  0  -0.634036  0  2.354175  0  0  -0.316388  -0.590179  0  2.377927  0
O  O129  1  0.63384584  0.42647891  0.43309055  1  0  -0.662338  0  2.09774  0  0  -0.607617  0  2.369415  0  0  -0.633393  0  2.355165  0  0  -0.315949  -0.589587  0  2.379014  0
O  O130  1  0.60351932  0.21608507  0.94462181  1  0  -0.648607  0  2.040991  0  0  -0.579507  0  2.314723  0  0  -0.609439  0  2.298772  0  0  -0.320054  -0.558917  0  2.325381  0
O  O131  1  0.38750370  0.78375553  0.55530306  1  0  -0.649438  0  2.041401  0  0  -0.580212  0  2.315311  0  0  -0.61022  0  2.299456  0  0  -0.321097  -0.559597  0  2.325965  0
O  O132  1  0.39648081  0.78391494  0.05537808  1  0  -0.648601  0  2.041006  0  0  -0.579515  0  2.314744  0  0  -0.609448  0  2.298794  0  0  -0.320061  -0.558922  0  2.325404  0
O  O133  1  0.61249737  0.21624447  0.44469745  1  0  -0.649448  0  2.041386  0  0  -0.580215  0  2.315293  0  0  -0.610225  0  2.299441  0  0  -0.321094  -0.559604  0  2.325947  0
O  O134  1  0.58717539  0.92229852  0.83869595  1  0  -0.603023  0  2.192841  0  0  -0.522367  0  2.459437  0  0  -0.544022  0  2.440797  0  0  -0.407393  -0.507168  0  2.4719  0
O  O135  1  0.66478827  0.07765408  0.66131841  1  0  -0.603082  0  2.19201  0  0  -0.522199  0  2.458486  0  0  -0.543847  0  2.439856  0  0  -0.406885  -0.507021  0  2.470953  0
O  O136  1  0.41282325  0.07770037  0.16130496  1  0  -0.603015  0  2.192767  0  0  -0.522336  0  2.45934  0  0  -0.543994  0  2.4407  0  0  -0.407406  -0.50714  0  2.471803  0
O  O137  1  0.33521242  0.92234703  0.33868169  1  0  -0.603102  0  2.192049  0  0  -0.522224  0  2.458512  0  0  -0.54387  0  2.43988  0  0  -0.406892  -0.507053  0  2.470974  0
