# generated using pymatgen
data_FeH7C7NO6
_symmetry_space_group_name_H-M   'P 1'
_cell_length_a   7.28576287
_cell_length_b   7.79583906
_cell_length_c   7.79870533
_cell_angle_alpha   100.46433186
_cell_angle_beta   101.08081139
_cell_angle_gamma   101.03575368
_symmetry_Int_Tables_number   1
_chemical_formula_structural   FeH7C7NO6
_chemical_formula_sum   'Fe2 H14 C14 N2 O12'
_cell_volume   415.54559618
_cell_formula_units_Z   2
loop_
 _symmetry_equiv_pos_site_id
 _symmetry_equiv_pos_as_xyz
  1  'x, y, z'
loop_
 _atom_site_type_symbol
 _atom_site_label
 _atom_site_symmetry_multiplicity
 _atom_site_fract_x
 _atom_site_fract_y
 _atom_site_fract_z
 _atom_site_occupancy
 _atom_site_hle17_ddec_charge
 _atom_site_hle17_ddec_spin_density
 _atom_site_hle17_ddec_sum_bond_order
 _atom_site_hle17_magmom
 _atom_site_hse06_10hf_ddec_charge
 _atom_site_hse06_10hf_ddec_spin_density
 _atom_site_hse06_10hf_ddec_sum_bond_order
 _atom_site_hse06_10hf_magmom
 _atom_site_hse06_ddec_charge
 _atom_site_hse06_ddec_spin_density
 _atom_site_hse06_ddec_sum_bond_order
 _atom_site_hse06_magmom
 _atom_site_pbe_cm5_charge
 _atom_site_pbe_ddec_charge
 _atom_site_pbe_ddec_spin_density
 _atom_site_pbe_ddec_sum_bond_order
 _atom_site_pbe_magmom
Fe  Fe0  1  0.74969766  0.33294585  0.66664809  1  1.105806  3.966595  1.886483  3.689  0.995833  3.933276  2.334585  3.699  1.048581  3.929913  2.268198  3.73  0.689178  0.958192  3.945078  2.378954  3.675
Fe  Fe1  1  0.25030375  0.66722952  0.33351195  1  1.105795  3.966662  1.886728  3.689  0.995585  3.933325  2.334972  3.699  1.048397  3.929992  2.268579  3.73  0.689087  0.957934  3.945103  2.379353  3.675
H  H2  1  0.10784565  0.38914591  0.84418331  1  0.41898  -0.000267  0.890673  0.0  0.387965  5e-05  0.956479  0.001  0.397543  -0.000111  0.942738  0.001  0.291419  0.381774  0.000255  0.965182  0.001
H  H3  1  0.39146952  0.15524451  0.61004365  1  0.419633  -0.000254  0.889731  0.0  0.388309  6.3e-05  0.955879  0.001  0.397886  -0.000101  0.942134  0.001  0.291597  0.382118  0.000269  0.964584  0.001
H  H4  1  0.89211809  0.61064387  0.15585095  1  0.419393  -0.000272  0.88993  0.0  0.388203  4.5e-05  0.955964  0.001  0.397761  -0.000116  0.942248  0.001  0.291564  0.382013  0.000252  0.964671  0.001
H  H5  1  0.60856873  0.84463031  0.38966024  1  0.41956  -0.00025  0.889888  0.0  0.38821  6.6e-05  0.956093  0.001  0.397777  -9.7e-05  0.942364  0.001  0.291536  0.382015  0.00027  0.964801  0.001
H  H6  1  0.11891204  0.47849169  0.67562772  1  0.438398  -0.000389  0.857341  0.0  0.409044  -4.7e-05  0.917609  0.0  0.420187  -0.000234  0.901666  0.0  0.298431  0.401199  0.000185  0.928729  0.001
H  H7  1  0.38059211  0.32400504  0.52069230  1  0.438354  -0.000405  0.857386  0.0  0.40893  -6.2e-05  0.91787  0.0  0.420024  -0.000249  0.901967  0.0  0.298201  0.401124  0.000172  0.928965  0.001
H  H8  1  0.88110382  0.52134544  0.32445768  1  0.438778  -0.000386  0.85689  0.0  0.409109  -4.4e-05  0.917618  0.0  0.420259  -0.000231  0.901664  0.0  0.298458  0.401266  0.000187  0.928733  0.001
H  H9  1  0.61941260  0.67594410  0.47907993  1  0.4382  -0.000408  0.85757  0.0  0.408816  -6.5e-05  0.918006  0.0  0.4199  -0.000251  0.902117  0.0  0.298313  0.40101  0.00017  0.929099  0.001
H  H10  1  0.70872427  0.34165462  0.05107896  1  0.100129  0.000428  0.95916  0.002  0.107478  0.000114  1.022787  0.001  0.112427  0.000106  1.016787  0.001  0.126477  0.103075  8.7e-05  1.028245  0.001
H  H11  1  0.79080041  0.94866766  0.65844448  1  0.10014  0.000427  0.960083  0.002  0.107565  0.000113  1.023527  0.001  0.112507  0.000106  1.017546  0.001  0.126456  0.103151  8.6e-05  1.028993  0.001
H  H12  1  0.29121287  0.65839385  0.94915280  1  0.100516  0.000428  0.959529  0.002  0.10775  0.000116  1.023163  0.001  0.112788  0.000107  1.017079  0.001  0.126858  0.103274  8.9e-05  1.02871  0.001
H  H13  1  0.20885350  0.05148121  0.34149816  1  0.099777  0.000427  0.959665  0.002  0.107182  0.000113  1.023253  0.001  0.112088  0.000105  1.017296  0.001  0.126328  0.102816  8.3e-05  1.028649  0.001
H  H14  1  0.75003899  0.82946107  0.17061383  1  0.120888  0.000152  0.954534  0.002  0.129888  -0.000588  1.01854  0.0  0.135818  -0.000304  1.011177  0.0  0.116638  0.124358  -0.001049  1.02563  0.001
H  H15  1  0.25027156  0.17060218  0.82943369  1  0.121  0.000151  0.954631  0.002  0.130034  -0.000587  1.018631  0.0  0.135965  -0.000303  1.011263  0.0  0.116672  0.124513  -0.001047  1.025711  0.001
C  C16  1  0.73779798  0.09767645  0.13727648  1  -0.123652  0.010701  3.763116  0.019  -0.098363  0.00311  4.011625  0.008  -0.111804  0.003487  4.030781  0.007  -0.01763  -0.091398  0.001929  4.002304  0.009
C  C17  1  0.76201016  0.86262917  0.90243084  1  -0.122891  0.010701  3.76222  0.019  -0.097744  0.003107  4.010684  0.008  -0.111184  0.003484  4.029894  0.007  -0.017661  -0.09078  0.001931  4.001353  0.009
C  C18  1  0.26229668  0.90234641  0.86281095  1  -0.123291  0.010694  3.762485  0.019  -0.098081  0.003104  4.010928  0.008  -0.111529  0.003486  4.030097  0.007  -0.017538  -0.091121  0.001916  4.001611  0.009
C  C19  1  0.23798570  0.13746369  0.09756284  1  -0.122823  0.010715  3.761563  0.019  -0.097788  0.003116  4.010268  0.008  -0.111217  0.003485  4.029435  0.007  -0.017448  -0.090807  0.00195  4.000921  0.009
C  C20  1  0.73342085  0.17128039  0.32632981  1  0.651053  -0.003491  3.888972  -0.004  0.595089  3.2e-05  4.185241  -0.001  0.628807  0.000617  4.182429  0.0  0.211943  0.57239  -0.001413  4.185763  -0.002
C  C21  1  0.76647035  0.67344891  0.82910534  1  0.650292  -0.003404  3.888126  -0.004  0.594483  0.00011  4.184162  -0.001  0.628111  0.000671  4.181423  0.0  0.21236  0.571827  -0.001327  4.184677  -0.002
C  C22  1  0.26669489  0.82860613  0.67378200  1  0.651918  -0.003534  3.888059  -0.004  0.596151  -1.2e-05  4.184062  -0.001  0.629918  0.000589  4.181214  0.0  0.21268  0.573419  -0.00147  4.184623  -0.002
C  C23  1  0.23350218  0.32667348  0.17077441  1  0.650343  -0.003346  3.887749  -0.004  0.594375  0.000156  4.183979  -0.001  0.62805  0.000698  4.181202  0.0  0.212138  0.571724  -0.001267  4.184474  -0.002
C  C24  1  0.73077215  0.20728290  0.01427627  1  0.140414  -0.037655  3.62386  -0.025  0.093579  -0.021702  3.884496  -0.012  0.107759  -0.015415  3.8932  -0.009  0.055827  0.083179  -0.029333  3.881511  -0.016
C  C25  1  0.76881663  0.98556157  0.79275111  1  0.139754  -0.037718  3.624628  -0.025  0.092989  -0.021757  3.885189  -0.012  0.107167  -0.015436  3.893928  -0.009  0.055817  0.082594  -0.029435  3.882197  -0.016
C  C26  1  0.26920404  0.79278646  0.98586224  1  0.139755  -0.037615  3.624719  -0.025  0.093027  -0.021646  3.885395  -0.012  0.10713  -0.015401  3.894066  -0.009  0.05532  0.082692  -0.029231  3.882455  -0.016
C  C27  1  0.23102187  0.01455065  0.20725112  1  0.139915  -0.037771  3.624398  -0.025  0.093289  -0.021793  3.88473  -0.012  0.107512  -0.015438  3.893419  -0.009  0.055763  0.082857  -0.029532  3.881729  -0.016
C  C28  1  0.74996690  0.92028236  0.07976342  1  -0.015565  -0.050516  3.641176  -0.032  -0.060061  -0.035385  3.892253  -0.02  -0.044797  -0.019302  3.898657  -0.011  -0.060577  -0.073519  -0.057482  3.893017  -0.032
C  C29  1  0.25017738  0.07976945  0.92026486  1  -0.015568  -0.050503  3.640586  -0.032  -0.060092  -0.035376  3.891693  -0.02  -0.044818  -0.019297  3.898083  -0.011  -0.06046  -0.073551  -0.057475  3.892454  -0.032
N  N30  1  0.74973949  0.15505374  0.84485488  1  -0.322794  0.026455  3.238493  0.052  -0.261053  0.017464  3.531779  0.031  -0.277661  0.017751  3.53841  0.03  -0.331717  -0.251381  0.016644  3.528169  0.03
N  N31  1  0.25012546  0.84506655  0.15524189  1  -0.322592  0.026455  3.238729  0.052  -0.26095  0.01746  3.532179  0.031  -0.277561  0.017747  3.538825  0.03  -0.33174  -0.251285  0.01664  3.528571  0.03
O  O32  1  0.04714460  0.37634659  0.71495488  1  -0.83655  0.02313  1.954654  0.043  -0.792514  0.023632  2.171756  0.039  -0.819885  0.018553  2.137766  0.031  -0.583787  -0.76984  0.029446  2.192846  0.048
O  O33  1  0.45210227  0.28447523  0.62289056  1  -0.836789  0.023069  1.953545  0.043  -0.792496  0.023591  2.171111  0.039  -0.819766  0.018519  2.137208  0.031  -0.583444  -0.769887  0.029399  2.192121  0.048
O  O34  1  0.95281993  0.62347671  0.28506268  1  -0.837155  0.023127  1.954025  0.043  -0.79261  0.023631  2.171762  0.039  -0.819971  0.018552  2.137756  0.031  -0.583811  -0.769938  0.029444  2.192847  0.048
O  O35  1  0.54785495  0.71542112  0.37687007  1  -0.836651  0.023068  1.953589  0.042  -0.792354  0.023589  2.171114  0.039  -0.819633  0.018521  2.137249  0.031  -0.583612  -0.769732  0.029392  2.192111  0.048
O  O36  1  0.70749413  0.06685468  0.43214341  1  -0.626742  0.014386  2.014103  0.022  -0.56232  0.016688  2.24543  0.026  -0.593221  0.013082  2.237622  0.019  -0.295934  -0.539187  0.021073  2.249493  0.034
O  O37  1  0.79273802  0.56792302  0.93377918  1  -0.626008  0.014111  2.01364  0.021  -0.561672  0.016424  2.244618  0.025  -0.592443  0.012864  2.236823  0.019  -0.295298  -0.538577  0.020766  2.248636  0.033
O  O38  1  0.29259975  0.93293829  0.56783308  1  -0.627727  0.014518  2.013693  0.022  -0.563324  0.016816  2.245099  0.026  -0.594342  0.013188  2.237316  0.019  -0.296547  -0.540141  0.02122  2.249196  0.034
O  O39  1  0.20710500  0.43207874  0.06604681  1  -0.625868  0.013995  2.014115  0.021  -0.561351  0.016308  2.244971  0.025  -0.592224  0.012773  2.237271  0.019  -0.294963  -0.53833  0.02063  2.249023  0.033
O  O40  1  0.75797175  0.34013686  0.38353400  1  -0.606482  0.021867  2.03669  0.04  -0.542525  0.020785  2.272063  0.036  -0.573104  0.015905  2.263041  0.027  -0.293732  -0.520197  0.02627  2.276848  0.046
O  O41  1  0.74152814  0.61587551  0.66028538  1  -0.606574  0.022032  2.037962  0.04  -0.542503  0.020944  2.273336  0.036  -0.572997  0.016046  2.26424  0.027  -0.294625  -0.520304  0.026437  2.278358  0.046
O  O42  1  0.24212855  0.65976389  0.61666629  1  -0.606366  0.02182  2.036469  0.04  -0.542622  0.020724  2.271685  0.036  -0.573186  0.01585  2.262664  0.027  -0.293799  -0.520318  0.026206  2.276547  0.045
O  O43  1  0.25858100  0.38433958  0.33961723  1  -0.606703  0.022072  2.037863  0.04  -0.542458  0.020995  2.273267  0.036  -0.573017  0.016093  2.264178  0.027  -0.294739  -0.520219  0.026486  2.278276  0.046
