# generated using pymatgen
data_ZnH5C13Br2NO5
_symmetry_space_group_name_H-M   'P 1'
_cell_length_a   10.59901265
_cell_length_b   11.89681628
_cell_length_c   17.39713608
_cell_angle_alpha   86.33154578
_cell_angle_beta   98.54961100
_cell_angle_gamma   89.90728016
_symmetry_Int_Tables_number   1
_chemical_formula_structural   ZnH5C13Br2NO5
_chemical_formula_sum   'Zn2 H10 C26 Br4 N2 O10'
_cell_volume   2164.72338871
_cell_formula_units_Z   2
loop_
 _symmetry_equiv_pos_site_id
 _symmetry_equiv_pos_as_xyz
  1  'x, y, z'
loop_
 _atom_site_type_symbol
 _atom_site_label
 _atom_site_symmetry_multiplicity
 _atom_site_fract_x
 _atom_site_fract_y
 _atom_site_fract_z
 _atom_site_occupancy
 _atom_site_pbe_bader_charge
 _atom_site_pbe_bader_spin_density
 _atom_site_pbe_cm5_charge
 _atom_site_pbe_ddec_charge
 _atom_site_pbe_ddec_spin_density
 _atom_site_pbe_ddec_sum_bond_order
 _atom_site_pbe_magmom
Zn  Zn0  1  0.63140005  0.49969222  0.50275928  1  1.31396  0  0.686821  0.878745  0  2.431119  0
Zn  Zn1  1  0.36837291  0.50022357  0.49740995  1  1.315458  0  0.687176  0.879726  0  2.429142  0
H  H2  1  0.38525919  0.36313158  0.73462860  1  0.110082  0  0.113244  0.133559  0  0.979981  0
H  H3  1  0.73501888  0.26259606  0.06496563  1  0.065001  0  0.11382  0.123015  0  0.96261  0
H  H4  1  0.61642442  0.63760935  0.26718860  1  0.102971  0  0.113568  0.13434  0  0.979709  0
H  H5  1  0.69429038  0.58374473  0.90540792  1  0.068519  0  0.107486  0.123044  0  0.993501  0
H  H6  1  0.30452672  0.42429443  0.09315051  1  0.105166  0  0.10713  0.122379  0  0.993687  0
H  H7  1  0.37529756  0.75445064  0.02606767  1  0.05686  0  0.093368  0.093653  0  1.010105  0
H  H8  1  0.24280273  0.65950427  0.01966612  1  0.059857  0  0.098032  0.099637  0  0.986406  0
H  H9  1  0.26960043  0.74692374  0.93583541  1  0.092335  0  0.113449  0.122078  0  0.962259  0
H  H10  1  0.76183695  0.35323743  0.98261777  1  0.04408  0  0.098585  0.100944  0  0.987468  0
H  H11  1  0.63325953  0.25421782  0.97336555  1  0.062621  0  0.093516  0.094392  0  1.00801  0
C  C12  1  0.49971015  0.28090399  0.50045816  1  1.706777  0  0.221373  0.661329  0  4.243244  0
C  C13  1  0.47420992  0.51266275  0.34891553  1  1.601215  0  0.218622  0.611569  0  4.15264  0
C  C14  1  0.53985267  0.48010228  0.73872991  1  0.060009  0  -0.010712  -0.043095  0  3.913207  0
C  C15  1  0.46001481  0.52245432  0.26142382  1  0.004003  0  -0.010064  -0.042726  0  3.912176  0
C  C16  1  0.45521385  0.40885319  0.77270275  1  -0.033479  0  -0.084057  -0.133033  0  3.951088  0
C  C17  1  0.54597170  0.59344727  0.22841029  1  0.069003  0  -0.083923  -0.133073  0  3.949229  0
C  C18  1  0.45878072  0.39882754  0.85297205  1  -0.082338  0  -0.011828  0.0752  0  3.946811  0
C  C19  1  0.54299442  0.60520715  0.14822920  1  -0.101899  0  -0.012783  0.074544  0  3.946955  0
C  C20  1  0.54367724  0.46245407  0.90218173  1  0.071596  0  -0.011971  0.019883  0  4.030746  0
C  C21  1  0.45726775  0.54364311  0.09809639  1  0.016593  0  -0.011464  0.019146  0  4.031651  0
C  C22  1  0.62899085  0.53263046  0.86814764  1  0.055302  0  -0.086977  -0.162193  0  3.955408  0
C  C23  1  0.50020915  0.71905809  0.49972847  1  1.706293  0  0.221847  0.661576  0  4.242957  0
C  C24  1  0.37047739  0.47387905  0.13114605  1  0.022395  0  -0.086446  -0.159724  0  3.953374  0
C  C25  1  0.62872741  0.54046409  0.78772362  1  -0.105921  0  -0.0091  0.09915  0  3.932122  0
C  C26  1  0.37024441  0.46426323  0.21150913  1  -0.073201  0  -0.009516  0.098224  0  3.932573  0
C  C27  1  0.53801446  0.46492391  0.98664300  1  0.530867  0  0.054389  0.060367  0  4.058168  0
C  C28  1  0.46354564  0.54212329  0.01365121  1  0.540494  0  0.055769  0.062679  0  4.05767  0
C  C29  1  0.31589330  0.69840631  0.98807809  1  0.356718  0  -0.134539  -0.168987  0  3.912359  0
C  C30  1  0.68886169  0.31102886  0.01265724  1  0.393466  0  -0.135567  -0.17257  0  3.916515  0
C  C31  1  0.49970694  0.15956825  0.50002406  1  0.116383  0  -0.014595  -0.141337  0  3.860992  0
C  C32  1  0.50010182  0.84039636  0.50011747  1  0.116094  0  -0.014041  -0.140487  0  3.86186  0
C  C33  1  0.49972893  0.05673012  0.50004627  1  -0.3174  0  -0.015344  0.021317  0  4.247765  0
C  C34  1  0.49997447  0.94323493  0.50008162  1  -0.201421  0  -0.015976  0.02025  0  4.248424  0
C  C35  1  0.06341696  0.50047128  0.49789805  1  0.947676  0  0.282162  0.276736  0  3.960285  0
C  C36  1  0.93631636  0.49988088  0.50214408  1  1.052976  0  0.282825  0.276827  0  3.959335  0
C  C37  1  0.52538327  0.48812013  0.65123064  1  1.605611  0  0.218275  0.610572  0  4.154115  0
Br  Br38  1  0.25190187  0.36219351  0.24904750  1  -0.045304  0  0.010553  -0.067971  0  1.350212  0
Br  Br39  1  0.74490513  0.64320478  0.74860111  1  -0.045809  0  0.011101  -0.0675  0  1.351228  0
Br  Br40  1  0.66079524  0.70403158  0.10659978  1  -0.070128  0  0.013616  -0.082484  0  1.343208  0
Br  Br41  1  0.34269719  0.29986471  0.89609938  1  -0.068585  0  0.01413  -0.081228  0  1.343039  0
N  N42  1  0.17233033  0.50092575  0.49408092  1  -0.997275  0  -0.19725  -0.168082  0  2.984642  0
N  N43  1  0.82741953  0.49927233  0.50602685  1  -1.00109  0  -0.19776  -0.168181  0  2.984042  0
O  O44  1  0.60764374  0.32823800  0.50160567  1  -1.129013  0  -0.311101  -0.536347  0  2.247967  0
O  O45  1  0.60786699  0.39081131  0.04051605  1  -1.040964  0  -0.186305  -0.142345  0  2.580884  0
O  O46  1  0.39234759  0.67164705  0.49875737  1  -1.129528  0  -0.311372  -0.536893  0  2.247739  0
O  O47  1  0.39169865  0.32850185  0.49980898  1  -1.132951  0  -0.312299  -0.541959  0  2.254764  0
O  O48  1  0.60821081  0.67152953  0.50022077  1  -1.134653  0  -0.312716  -0.542223  0  2.254684  0
O  O49  1  0.62613477  0.48977923  0.61984489  1  -1.15257  0  -0.313636  -0.547703  0  2.361808  0
O  O50  1  0.37341497  0.51064640  0.38025645  1  -1.153496  0  -0.314015  -0.548563  0  2.361333  0
O  O51  1  0.41092075  0.49041846  0.61627225  1  -1.148301  0  -0.314513  -0.541646  0  2.29819  0
O  O52  1  0.58864586  0.50950874  0.38395474  1  -1.145914  0  -0.314405  -0.541772  0  2.299429  0
O  O53  1  0.39189599  0.61501510  0.95978126  1  -1.059142  0  -0.186581  -0.142758  0  2.577847  0
