# generated using pymatgen
data_Zn4H33C78N23O14
_symmetry_space_group_name_H-M   'P 1'
_cell_length_a   18.81361868
_cell_length_b   20.24242059
_cell_length_c   19.68870988
_cell_angle_alpha   106.51479408
_cell_angle_beta   108.83802645
_cell_angle_gamma   109.64691028
_symmetry_Int_Tables_number   1
_chemical_formula_structural   Zn4H33C78N23O14
_chemical_formula_sum   'Zn4 H33 C78 N23 O14'
_cell_volume   5999.27281218
_cell_formula_units_Z   1
loop_
 _symmetry_equiv_pos_site_id
 _symmetry_equiv_pos_as_xyz
  1  'x, y, z'
loop_
 _atom_site_type_symbol
 _atom_site_label
 _atom_site_symmetry_multiplicity
 _atom_site_fract_x
 _atom_site_fract_y
 _atom_site_fract_z
 _atom_site_occupancy
 _atom_site_pbe_bader_charge
 _atom_site_pbe_bader_spin_density
 _atom_site_pbe_cm5_charge
 _atom_site_pbe_ddec_charge
 _atom_site_pbe_ddec_spin_density
 _atom_site_pbe_ddec_sum_bond_order
 _atom_site_pbe_magmom
Zn  Zn0  1  0.12379727  0.51046882  0.11800815  1  1.205575  0  0.756905  0.633941  0  2.423358  0
Zn  Zn1  1  0.89368662  0.48440077  0.87740228  1  1.241873  0  0.718115  0.663569  0  2.334376  0
Zn  Zn2  1  0.89578074  0.39372848  0.00866720  1  1.233054  0  0.733167  0.656891  0  2.389269  0
Zn  Zn3  1  0.12938741  0.61743732  0.00183544  1  1.233666  0  0.739131  0.664068  0  2.386482  0
H  H4  1  0.17632164  0.36179579  0.13007586  1  0.148861  0  0.133468  0.127946  0  0.971955  0
H  H5  1  0.78279959  0.22337561  0.87229759  1  0.137432  0  0.121326  0.113485  0  1.029519  0
H  H6  1  0.81549876  0.34227194  0.72546669  1  0.125061  0  0.125358  0.122768  0  0.998441  0
H  H7  1  0.14165274  0.36595203  0.99795191  1  0.121171  0  0.124027  0.116971  0  1.014061  0
H  H8  1  0.15180036  0.64722866  0.83878108  1  0.105284  0  0.128282  0.125997  0  0.981896  0
H  H9  1  0.85175610  0.49592725  0.12714641  1  0.086149  0  0.1284  0.120082  0  0.991644  0
H  H10  1  0.84157174  0.60920834  0.89408571  1  0.158769  0  0.122669  0.126157  0  1.052551  0
H  H11  1  0.12641305  0.63116957  0.26345309  1  0.132703  0  0.120616  0.108479  0  1.042595  0
H  H12  1  0.22025680  0.78203808  0.16121718  1  0.138978  0  0.122351  0.114794  0  1.012218  0
H  H13  1  0.71055847  0.36356013  0.00569192  1  0.117445  0  0.134453  0.12879  0  0.966405  0
H  H14  1  0.84604516  0.57161322  0.50976708  1  0.132711  0  0.125001  0.145145  0  0.97971  0
H  H15  1  0.10188005  0.72587688  0.49129699  1  0.123129  0  0.115609  0.12649  0  0.979025  0
H  H16  1  0.11665926  0.72589458  0.62094787  1  0.095544  0  0.117647  0.122647  0  0.970485  0
H  H17  1  0.55012516  0.12343532  0.50825113  1  0.099297  0  0.114155  0.120464  0  0.975129  0
H  H18  1  0.42388732  0.00521018  0.39084133  1  0.086331  0  0.113441  0.119189  0  0.976742  0
H  H19  1  0.13733746  0.08080594  0.97036882  1  0.152585  0  0.121878  0.138917  0  0.986995  0
H  H20  1  0.84887114  0.87292567  0.88561005  1  0.118377  0  0.119215  0.127347  0  0.969436  0
H  H21  1  0.87711279  0.01096717  0.92851514  1  0.102549  0  0.118121  0.124721  0  0.970638  0
H  H22  1  0.08823284  0.86568640  0.07273884  1  0.057804  0  0.105162  0.10747  0  0.995389  0
H  H23  1  0.22219663  0.98731478  0.12683582  1  0.065704  0  0.104716  0.102071  0  0.98632  0
H  H24  1  0.34356560  0.98075116  0.10534540  1  0.080402  0  0.107808  0.103764  0  0.983553  0
H  H25  1  0.33012256  0.85124869  0.03037223  1  0.083727  0  0.108891  0.108112  0  0.978337  0
H  H26  1  0.19570205  0.73122215  0.97254119  1  0.052057  0  0.095215  0.0913  0  1.07462  0
H  H27  1  0.39051621  0.01566849  0.67739673  1  0.072975  0  0.10288  0.105736  0  0.994128  0
H  H28  1  0.42633595  0.03744099  0.81735715  1  0.042302  0  0.104211  0.100351  0  0.98886  0
H  H29  1  0.56883153  0.06039493  0.90875766  1  0.034429  0  0.101875  0.097141  0  0.993036  0
H  H30  1  0.67427816  0.05930837  0.85858950  1  0.059701  0  0.096513  0.093868  0  1.012169  0
H  H31  1  0.63777134  0.03615686  0.71792794  1  0.072709  0  0.102883  0.105154  0  0.993119  0
H  H32  1  0.27452529  0.71722984  0.39577295  1  0.071778  0  0.100746  0.103831  0  1.023631  0
H  H33  1  0.32097226  0.66577525  0.49182313  1  0.088578  0  0.108247  0.108045  0  0.98479  0
H  H34  1  0.35562068  0.55636876  0.45337503  1  0.064163  0  0.107635  0.103901  0  0.986044  0
H  H35  1  0.34609365  0.50108561  0.31853843  1  0.064014  0  0.103478  0.099643  0  0.989475  0
H  H36  1  0.30369486  0.55548741  0.22327250  1  0.034121  0  0.096682  0.094533  0  1.014295  0
C  C37  1  0.10929897  0.34656550  0.10557070  1  0.366768  0  0.027387  -0.052354  0  3.902501  0
C  C38  1  0.94851991  0.53355591  0.76593523  1  0.848631  0  0.184362  0.080246  0  3.995858  0
C  C39  1  0.80513038  0.26396924  0.84881653  1  0.433993  0  0.017401  -0.034632  0  3.918196  0
C  C40  1  0.20290150  0.51657993  0.95994807  1  0.826832  0  0.197406  0.106823  0  3.947046  0
C  C41  1  0.82127862  0.32472668  0.77327060  1  0.457184  0  0.018476  -0.028478  0  3.914587  0
C  C42  1  0.15544462  0.41784948  0.98806164  1  0.410385  0  0.025353  -0.035988  0  3.87546  0
C  C43  1  0.08669982  0.60768661  0.82189242  1  0.462666  0  0.022222  -0.043374  0  3.898158  0
C  C44  1  0.96945834  0.29043864  0.04928716  1  0.836812  0  0.189787  0.091023  0  3.981253  0
C  C45  1  0.03770656  0.27168564  0.06149894  1  0.15295  0  9.3e-05  0.037091  0  4.136637  0
C  C46  1  0.01132560  0.58572154  0.75488160  1  0.114297  0  -0.00255  0.036369  0  4.151536  0
C  C47  1  0.76920825  0.25375765  0.76949374  1  0.13166  0  -0.024676  0.046146  0  4.186154  0
C  C48  1  0.21044023  0.44852027  0.95772748  1  0.136745  0  0.000529  0.023036  0  4.154152  0
C  C49  1  0.25632960  0.66856309  0.24445777  1  0.437202  0  0.09895  0.106083  0  3.998853  0
C  C50  1  0.70603408  0.44079001  0.88032363  1  0.786674  0  0.192517  0.108964  0  3.940816  0
C  C51  1  0.92011712  0.52155343  0.14880566  1  0.45179  0  0.031292  -0.018765  0  3.90479  0
C  C52  1  0.05033647  0.71985367  0.98521772  1  0.446004  0  0.111194  0.129905  0  3.965056  0
C  C53  1  0.91062181  0.63887744  0.92648503  1  0.397831  0  0.020297  -0.02916  0  3.919629  0
C  C54  1  0.06096101  0.59084851  0.21869304  1  0.432547  0  0.027752  -0.020733  0  3.898554  0
C  C55  1  0.22639304  0.73738161  0.17911785  1  0.457625  0  0.028633  -0.015954  0  3.934553  0
C  C56  1  0.71827151  0.39029581  0.96615982  1  0.429173  0  0.030828  -0.033759  0  3.928465  0
C  C57  1  0.26454205  0.74394950  0.25692677  1  0.076079  0  -0.022222  -0.005572  0  4.148215  0
C  C58  1  0.66030925  0.40640862  0.91663125  1  0.171426  0  -0.010727  -0.007396  0  4.188205  0
C  C59  1  0.98571843  0.58208872  0.22413694  1  0.188866  0  -0.020532  0.040382  0  4.174542  0
C  C60  1  0.96917389  0.71387864  0.94386403  1  0.163074  0  -0.021714  -0.009171  0  4.15078  0
C  C61  1  0.26510016  0.42377121  0.93888565  1  0.180464  0  -0.024728  -0.065011  0  4.072144  0
C  C62  1  0.31987454  0.40879705  0.92793203  1  -0.287695  0  -0.017673  -0.00811  0  4.286495  0
C  C63  1  0.38269938  0.39732818  0.91887645  1  0.089863  0  -0.014531  -0.02068  0  4.211857  0
C  C64  1  0.44489585  0.39263823  0.91385796  1  -0.090245  0  -0.000353  0.019798  0  4.2058  0
C  C65  1  0.51473528  0.39230754  0.91119953  1  0.027899  0  -0.026236  -0.044376  0  4.273798  0
C  C66  1  0.58156429  0.39688703  0.91097130  1  -0.140741  0  -0.001103  -0.008845  0  4.05461  0
C  C67  1  0.89485529  0.60669752  0.43456150  1  0.23402  0  0.080967  0.028664  0  3.879817  0
C  C68  1  0.96694195  0.64563464  0.42527476  1  0.096676  0  0.016583  0.110198  0  4.080117  0
C  C69  1  0.04615074  0.69238129  0.49599665  1  0.002036  0  -0.072978  -0.114623  0  3.938912  0
C  C70  1  0.05447697  0.69216899  0.56824176  1  -0.036015  0  -0.066203  -0.101614  0  3.93627  0
C  C71  1  0.98336181  0.64502586  0.57377114  1  0.059561  0  0.004891  0.139242  0  4.119887  0
C  C72  1  0.90268234  0.60572051  0.50682106  1  0.060876  0  -0.064115  -0.152217  0  3.898737  0
C  C73  1  0.96711068  0.63406305  0.35149719  1  -0.102733  0  -0.04409  -0.106236  0  4.146014  0
C  C74  1  0.99341700  0.63134227  0.64165731  1  -0.092081  0  -0.027175  -0.076795  0  4.079597  0
C  C75  1  0.00133708  0.61053353  0.69490102  1  -0.164498  0  -0.039534  -0.081225  0  4.162506  0
C  C76  1  0.97815976  0.61569370  0.29243151  1  -0.177431  0  -0.031211  -0.055194  0  4.098884  0
C  C77  1  0.49144138  0.01609158  0.60593335  1  0.091595  0  0.014087  -0.003559  0  3.919104  0
C  C78  1  0.54163103  0.07720086  0.59307756  1  0.076327  0  0.007967  0.10622  0  4.076053  0
C  C79  1  0.51348447  0.07403884  0.51588949  1  0.049094  0  -0.076556  -0.114805  0  3.969024  0
C  C80  1  0.44304895  0.00881591  0.45076976  1  -0.041144  0  -0.07744  -0.111771  0  3.970261  0
C  C81  1  0.39769272  0.94312099  0.45967997  1  0.10408  0  0.004863  0.097967  0  4.121843  0
C  C82  1  0.42119833  0.95073975  0.53837547  1  0.185497  0  0.084414  -0.017476  0  3.867662  0
C  C83  1  0.62032971  0.14005618  0.65533251  1  0.004306  0  -0.044866  -0.113299  0  4.148382  0
C  C84  1  0.34046538  0.87144805  0.39092994  1  0.299598  0  -0.050734  -0.119343  0  4.129567  0
C  C85  1  0.30426275  0.81162695  0.32877358  1  -0.597044  0  -0.036154  -0.05817  0  4.143284  0
C  C86  1  0.69184746  0.19178988  0.70569599  1  -0.391792  0  -0.038647  -0.074585  0  4.131734  0
C  C87  1  0.05648400  0.95883736  0.92575115  1  0.207841  0  0.081366  0.026424  0  3.874953  0
C  C88  1  0.97716701  0.89852475  0.90736194  1  0.08429  0  0.021569  0.118545  0  4.079557  0
C  C89  1  0.91154168  0.91909942  0.90396484  1  0.078006  0  -0.072616  -0.115696  0  3.944084  0
C  C90  1  0.92745377  0.99582047  0.92846990  1  -0.097285  0  -0.064568  -0.093882  0  3.923314  0
C  C91  1  0.01074304  0.05676452  0.95839834  1  0.093763  0  0.000932  0.130678  0  4.118494  0
C  C92  1  0.07391832  0.03657257  0.95282924  1  0.019186  0  -0.066388  -0.154819  0  3.910509  0
C  C93  1  0.96512585  0.82538972  0.90436239  1  0.156921  0  -0.04357  -0.116993  0  4.128558  0
C  C94  1  0.02736323  0.13470816  0.99547543  1  -0.066051  0  -0.025247  -0.070095  0  4.083873  0
C  C95  1  0.03394031  0.19878347  0.02999726  1  -0.202829  0  -0.047481  -0.098667  0  4.164676  0
C  C96  1  0.95784162  0.77006662  0.92047370  1  -0.444598  0  -0.022267  -0.034615  0  4.101669  0
C  C97  1  0.13269023  0.78944484  0.02028039  1  0.017576  0  -0.011055  0.041121  0  4.033195  0
C  C98  1  0.14146624  0.86279096  0.06367164  1  -0.014586  0  -0.087112  -0.119964  0  3.969173  0
C  C99  1  0.21692058  0.93092505  0.09434146  1  -0.035755  0  -0.09118  -0.08276  0  4.034566  0
C  C100  1  0.28518806  0.92719291  0.08264334  1  -0.039982  0  -0.084803  -0.074605  0  4.008342  0
C  C101  1  0.27763596  0.85479002  0.04057733  1  -0.071579  0  -0.085291  -0.068262  0  4.003968  0
C  C102  1  0.20175399  0.78646647  0.00920134  1  -0.055269  0  -0.0922  -0.133108  0  3.975538  0
C  C103  1  0.51191633  0.02447197  0.68829880  1  0.020587  0  -0.012929  0.068446  0  4.019118  0
C  C104  1  0.45239179  0.02422854  0.71677341  1  -0.038733  0  -0.093399  -0.134647  0  3.975489  0
C  C105  1  0.47277279  0.03692066  0.79569004  1  -0.038788  0  -0.092693  -0.079263  0  4.037471  0
C  C106  1  0.55263617  0.04985315  0.84691776  1  -0.059627  0  -0.093541  -0.088959  0  4.031001  0
C  C107  1  0.61188614  0.04936733  0.81875525  1  -0.041075  0  -0.094752  -0.082551  0  4.032919  0
C  C108  1  0.59170145  0.03675770  0.73996638  1  -0.024114  0  -0.088759  -0.119306  0  3.970752  0
C  C109  1  0.28386676  0.63866800  0.30197459  1  0.024851  0  -0.015303  0.037843  0  4.048106  0
C  C110  1  0.28999929  0.66979890  0.37850365  1  -0.059461  0  -0.086711  -0.118481  0  3.953809  0
C  C111  1  0.31571434  0.64029026  0.43249050  1  0.003465  0  -0.084164  -0.066909  0  4.003623  0
C  C112  1  0.33509550  0.57906726  0.41089732  1  -0.027068  0  -0.087362  -0.082097  0  4.008454  0
C  C113  1  0.32927183  0.54772756  0.33502056  1  -0.080008  0  -0.09372  -0.082202  0  4.042896  0
C  C114  1  0.30426745  0.57743008  0.28103197  1  -0.096064  0  -0.099758  -0.14309  0  4.002451  0
N  N115  1  0.08346128  0.40211973  0.11400800  1  -0.69247  0  -0.238435  -0.118711  0  3.546799  0
N  N116  1  0.98396913  0.52594367  0.83272100  1  -0.692103  0  -0.245862  -0.225232  0  3.499025  0
N  N117  1  0.87164986  0.33629373  0.89611981  1  -0.804584  0  -0.286519  -0.199548  0  3.598015  0
N  N118  1  0.14831955  0.52359830  0.98793586  1  -0.747855  0  -0.258015  -0.203421  0  3.621922  0
N  N119  1  0.88119246  0.37469212  0.84954440  1  -0.799511  0  -0.282216  -0.204722  0  3.529636  0
N  N120  1  0.12012029  0.46442694  0.00659764  1  -0.711164  0  -0.245993  -0.149202  0  3.488489  0
N  N121  1  0.06842336  0.57191315  0.86725086  1  -0.723376  0  -0.233996  -0.157399  0  3.473369  0
N  N122  1  0.99794253  0.36794137  0.07917929  1  -0.741758  0  -0.238121  -0.232948  0  3.435948  0
N  N123  1  0.21490917  0.62173257  0.16442895  1  -0.781798  0  -0.278003  -0.243493  0  3.506208  0
N  N124  1  0.78401362  0.44530163  0.90635774  1  -0.707419  0  -0.221463  -0.204308  0  3.3637  0
N  N125  1  0.95446578  0.49604583  0.10383607  1  -0.819636  0  -0.278491  -0.189969  0  3.644158  0
N  N126  1  0.03882056  0.65160826  0.98871035  1  -0.776034  0  -0.267549  -0.221732  0  3.514593  0
N  N127  1  0.95259387  0.60150074  0.95230502  1  -0.777923  0  -0.270886  -0.186739  0  3.522343  0
N  N128  1  0.04120679  0.53845926  0.14686645  1  -0.803222  0  -0.275109  -0.177608  0  3.586518  0
N  N129  1  0.19671303  0.66468107  0.12483567  1  -0.805257  0  -0.267766  -0.185393  0  3.57512  0
N  N130  1  0.78996326  0.41304323  0.95864847  1  -0.739805  0  -0.240063  -0.149189  0  3.513851  0
N  N131  1  0.67410365  0.46826271  0.82344277  1  0.34962  0  0.057493  0.504996  0  4.242263  0
N  N132  1  0.80860168  0.56152740  0.36638056  1  0.38452  0  0.054214  0.501367  0  4.230648  0
N  N133  1  0.85913070  0.49550437  0.72238073  1  0.222669  0  0.050669  0.501901  0  4.19305  0
N  N134  1  0.37162681  0.88260590  0.54742351  1  0.384347  0  0.059808  0.525752  0  4.227027  0
N  N135  1  0.12410453  0.94108117  0.91786986  1  0.375708  0  0.054942  0.501071  0  4.234683  0
N  N136  1  0.25117570  0.57925406  0.94842639  1  0.284893  0  0.053805  0.502551  0  4.204563  0
N  N137  1  0.88058465  0.24247103  0.01247546  1  0.251633  0  0.051218  0.500409  0  4.18963  0
O  O138  1  0.59571121  0.44167635  0.78824795  1  -0.437994  0  -0.129491  -0.319848  0  1.865694  0
O  O139  1  0.72611727  0.51699230  0.81356871  1  -0.473454  0  -0.137597  -0.338496  0  1.985723  0
O  O140  1  0.74795403  0.53384107  0.38012453  1  -0.46028  0  -0.153384  -0.347436  0  1.869313  0
O  O141  1  0.80128659  0.55388121  0.29928302  1  -0.457824  0  -0.140904  -0.331884  0  1.913352  0
O  O142  1  0.82373158  0.49439545  0.65700703  1  -0.414372  0  -0.114967  -0.293452  0  1.858796  0
O  O143  1  0.81746769  0.46301416  0.75428435  1  -0.541649  0  -0.157171  -0.363122  0  2.097294  0
O  O144  1  0.29408327  0.86037587  0.52195314  1  -0.443253  0  -0.138764  -0.344412  0  1.870814  0
O  O145  1  0.41018510  0.85141466  0.57804893  1  -0.433917  0  -0.124382  -0.322667  0  1.878076  0
O  O146  1  0.19620582  0.99708144  0.94714824  1  -0.462752  0  -0.151025  -0.353185  0  1.887371  0
O  O147  1  0.10473537  0.87178154  0.88094690  1  -0.435343  0  -0.124336  -0.315154  0  1.92516  0
O  O148  1  0.29740080  0.57178253  0.91768177  1  -0.405594  0  -0.109465  -0.289375  0  1.858855  0
O  O149  1  0.24575661  0.64183224  0.97335155  1  -0.521206  0  -0.151041  -0.366395  0  2.013412  0
O  O150  1  0.85045504  0.17064307  0.98495626  1  -0.413522  0  -0.112319  -0.302599  0  1.879037  0
O  O151  1  0.83420252  0.27669698  0.00939130  1  -0.540622  0  -0.157595  -0.361157  0  1.990857  0
