# generated using pymatgen
data_MnH16C8(BrO)2
_symmetry_space_group_name_H-M   'P 1'
_cell_length_a   3.88532940
_cell_length_b   7.65194188
_cell_length_c   9.27406240
_cell_angle_alpha   94.08310157
_cell_angle_beta   100.30027571
_cell_angle_gamma   90.05433506
_symmetry_Int_Tables_number   1
_chemical_formula_structural   MnH16C8(BrO)2
_chemical_formula_sum   'Mn1 H16 C8 Br2 O2'
_cell_volume   270.56248808
_cell_formula_units_Z   1
loop_
 _symmetry_equiv_pos_site_id
 _symmetry_equiv_pos_as_xyz
  1  'x, y, z'
loop_
 _atom_site_type_symbol
 _atom_site_label
 _atom_site_symmetry_multiplicity
 _atom_site_fract_x
 _atom_site_fract_y
 _atom_site_fract_z
 _atom_site_occupancy
 _atom_site_hle17_ddec_charge
 _atom_site_hle17_ddec_spin_density
 _atom_site_hle17_ddec_sum_bond_order
 _atom_site_hle17_magmom
 _atom_site_hse06_10hf_ddec_charge
 _atom_site_hse06_10hf_ddec_spin_density
 _atom_site_hse06_10hf_ddec_sum_bond_order
 _atom_site_hse06_10hf_magmom
 _atom_site_hse06_ddec_charge
 _atom_site_hse06_ddec_spin_density
 _atom_site_hse06_ddec_sum_bond_order
 _atom_site_hse06_magmom
 _atom_site_pbe_cm5_charge
 _atom_site_pbe_ddec_charge
 _atom_site_pbe_ddec_spin_density
 _atom_site_pbe_ddec_sum_bond_order
 _atom_site_pbe_magmom
Mn  Mn0  1  0.50011859  0.00002227  0.00000887  1  0.900627  4.762202  1.986923  4.645  0.752928  4.695136  2.463693  4.52  0.822273  4.744831  2.400338  4.588  0.360438  0.696217  4.648173  2.512209  4.457
H  H1  1  0.86343861  0.61622303  0.14237931  1  0.05038  -0.000365  0.957864  0.0  0.061363  -0.000214  1.029912  0.0  0.062434  -0.000351  1.028543  0.0  0.089054  0.06033  -6.5e-05  1.031452  0.0
H  H2  1  0.59973961  0.40774715  0.91456080  1  0.061866  -0.000309  0.96444  0.0  0.072373  -0.000117  1.038431  0.0  0.073005  -0.000236  1.037389  0.0  0.096324  0.071793  1.5e-05  1.039441  0.0
H  H3  1  0.13677068  0.38377049  0.85766945  1  0.050089  -0.000348  0.957907  0.0  0.061113  -0.000215  1.030113  0.0  0.062189  -0.000351  1.028728  0.0  0.088907  0.060043  -6.5e-05  1.031708  0.0
H  H4  1  0.40050464  0.59225161  0.08540478  1  0.062338  -0.000313  0.964508  0.0  0.072703  -0.000117  1.038495  0.0  0.073362  -0.000237  1.037422  0.0  0.096375  0.072109  1.4e-05  1.039511  0.0
H  H5  1  0.31530550  0.55115465  0.33201047  1  0.075664  -1.8e-05  0.958579  0.0  0.094705  9.3e-05  1.019155  0.0  0.095077  3.3e-05  1.020513  0.0  0.088474  0.094507  0.000166  1.018044  0.0
H  H6  1  0.26543177  0.54086997  0.65784394  1  0.075732  0.000294  0.963953  0.0  0.092248  0.000646  1.029882  0.0  0.093611  0.000441  1.029195  0.0  0.086825  0.090943  0.000937  1.031066  0.0
H  H7  1  0.68469941  0.44870418  0.66787708  1  0.075724  -6e-06  0.958605  0.0  0.094783  9.2e-05  1.01899  0.0  0.095155  3.4e-05  1.020339  0.0  0.088495  0.094587  0.000165  1.017873  0.0
H  H8  1  0.73476096  0.45919560  0.34220693  1  0.075598  0.000288  0.963725  0.0  0.092146  0.000646  1.02982  0.0  0.093548  0.000439  1.029093  0.0  0.086779  0.090841  0.000936  1.031001  0.0
H  H9  1  0.99753686  0.70880683  0.49342604  1  0.068414  7.3e-05  0.969336  0.0  0.086433  0.000172  1.032634  0.0  0.087109  0.000116  1.033306  0.0  0.08825  0.085588  0.000296  1.033314  0.0
H  H10  1  0.42797831  0.23581105  0.48403806  1  0.067711  -4.1e-05  0.970523  0.0  0.08219  6.1e-05  1.04003  0.0  0.083396  6e-06  1.039734  0.0  0.086038  0.080806  0.000118  1.041491  0.0
H  H11  1  0.00181553  0.29126230  0.50683891  1  0.068187  8e-05  0.970002  0.0  0.086396  0.000171  1.0331  0.0  0.087057  0.000116  1.033789  0.0  0.088213  0.085564  0.000295  1.033761  0.0
H  H12  1  0.57106321  0.76429930  0.51576020  1  0.067735  -4.8e-05  0.970962  0.0  0.082379  6.1e-05  1.040041  0.0  0.083511  5e-06  1.039849  0.0  0.08633  0.081019  0.000116  1.041452  0.0
H  H13  1  0.62361383  0.00882553  0.37078850  1  0.051896  -0.000244  0.954785  0.0  0.064031  -7.7e-05  1.026227  0.0  0.064569  -0.000159  1.025289  0.0  0.095668  0.063478  3e-06  1.027265  0.0
H  H14  1  0.97816681  0.07639377  0.67322850  1  0.054647  -0.000507  0.958402  0.0  0.066673  -0.000479  1.025168  0.0  0.067572  -0.000573  1.024714  0.0  0.091654  0.065942  -0.000351  1.025539  0.0
H  H15  1  0.37676516  0.99125513  0.62914242  1  0.051895  -0.000246  0.955032  0.0  0.063882  -7.8e-05  1.026551  0.0  0.064438  -0.000159  1.025623  0.0  0.095609  0.06332  3e-06  1.027569  0.0
H  H16  1  0.02211079  0.92339543  0.32681604  1  0.054454  -0.000536  0.9583  0.0  0.066591  -0.000478  1.02512  0.0  0.067471  -0.000572  1.024657  0.0  0.091616  0.065904  -0.00035  1.025462  0.0
C  C17  1  0.60815598  0.64314711  0.17421787  1  0.085143  0.001489  3.586799  0.002  0.026368  0.002694  3.848194  0.002  0.034677  0.001943  3.853121  0.002  -0.078044  0.020525  0.003434  3.845228  0.003
C  C18  1  0.39196166  0.35685194  0.82576435  1  0.086557  0.001448  3.586023  0.002  0.027231  0.002694  3.847885  0.002  0.035563  0.001941  3.852786  0.002  -0.07789  0.021384  0.003434  3.84493  0.003
C  C19  1  0.58739474  0.58024532  0.32433049  1  -0.140607  0.000575  3.652958  0.001  -0.181625  0.001288  3.90706  0.001  -0.183041  0.000899  3.918724  0.001  -0.172927  -0.180123  0.001776  3.89822  0.001
C  C20  1  0.41258112  0.41975115  0.67565189  1  -0.141102  0.000546  3.653278  0.001  -0.181714  0.001289  3.907049  0.001  -0.183087  0.000895  3.918672  0.001  -0.172843  -0.180219  0.001776  3.898252  0.001
C  C21  1  0.73613314  0.73570974  0.43288723  1  -0.145258  0.000384  3.641303  0.0  -0.186926  0.000784  3.898466  0.001  -0.189063  0.000538  3.911339  0.001  -0.172495  -0.185476  0.001017  3.890545  0.001
C  C22  1  0.26346536  0.26433027  0.56711063  1  -0.144735  0.000357  3.641534  0.0  -0.186646  0.000786  3.898345  0.001  -0.188816  0.000536  3.911226  0.001  -0.17215  -0.185182  0.001017  3.890407  0.001
C  C23  1  0.75253812  0.88947521  0.33639552  1  0.091895  0.001489  3.556089  0.002  0.037134  0.002429  3.813036  0.002  0.044878  0.00177  3.819225  0.002  -0.073342  0.031974  0.003115  3.808052  0.003
C  C24  1  0.24758085  0.11049393  0.66359940  1  0.091423  0.001469  3.556609  0.002  0.037088  0.002426  3.813133  0.002  0.044735  0.001772  3.819406  0.002  -0.073452  0.031995  0.003116  3.80813  0.003
Br  Br25  1  0.94508716  0.80113074  0.87267283  1  -0.505416  0.090898  1.084954  0.052  -0.44933  0.113655  1.422948  0.058  -0.477918  0.095106  1.396683  0.045  -0.182183  -0.425623  0.130993  1.443706  0.069
Br  Br26  1  0.05511984  0.19887588  0.12737638  1  -0.505204  0.090852  1.084663  0.052  -0.449136  0.113625  1.42271  0.058  -0.477723  0.095087  1.396463  0.045  -0.182123  -0.425434  0.130976  1.443479  0.069
O  O27  1  0.56274354  0.83150242  0.19132600  1  -0.342614  0.025272  2.33765  0.016  -0.242523  0.031509  2.58472  0.021  -0.267832  0.028063  2.588128  0.018  -0.223819  -0.223256  0.034468  2.581512  0.024
O  O28  1  0.43741050  0.16849808  0.80866574  1  -0.343043  0.025271  2.337642  0.016  -0.242858  0.031521  2.584601  0.021  -0.268151  0.028071  2.588027  0.018  -0.223783  -0.223557  0.034478  2.581321  0.024
