# generated using pymatgen
data_Zn4H37C46N19O2
_symmetry_space_group_name_H-M   'P 1'
_cell_length_a   15.09562327
_cell_length_b   14.84366653
_cell_length_c   14.72899197
_cell_angle_alpha   110.13941287
_cell_angle_beta   103.91147323
_cell_angle_gamma   113.32821651
_symmetry_Int_Tables_number   1
_chemical_formula_structural   Zn4H37C46N19O2
_chemical_formula_sum   'Zn4 H37 C46 N19 O2'
_cell_volume   2559.18816456
_cell_formula_units_Z   1
loop_
 _symmetry_equiv_pos_site_id
 _symmetry_equiv_pos_as_xyz
  1  'x, y, z'
loop_
 _atom_site_type_symbol
 _atom_site_label
 _atom_site_symmetry_multiplicity
 _atom_site_fract_x
 _atom_site_fract_y
 _atom_site_fract_z
 _atom_site_occupancy
 _atom_site_pbe_bader_charge
 _atom_site_pbe_bader_spin_density
 _atom_site_pbe_cm5_charge
 _atom_site_pbe_ddec_charge
 _atom_site_pbe_ddec_spin_density
 _atom_site_pbe_ddec_sum_bond_order
 _atom_site_pbe_magmom
Zn  Zn0  1  0.35577921  0.88038526  0.99008915  1  1.194582  0  0.749668  0.622716  0  2.433341  0
Zn  Zn1  1  0.62697063  0.16048229  0.98771232  1  1.189135  0  0.740138  0.614596  0  2.423905  0
Zn  Zn2  1  0.50166072  0.15645560  0.14099376  1  1.188593  0  0.742849  0.613376  0  2.4323  0
Zn  Zn3  1  0.49620998  0.88576316  0.85427751  1  1.185817  0  0.750403  0.60491  0  2.489716  0
H  H4  1  0.15605682  0.85637075  0.81563218  1  0.100118  0  0.122104  0.110966  0  0.997612  0
H  H5  1  0.48187647  0.20095233  0.81514075  1  0.104775  0  0.117798  0.107588  0  0.994873  0
H  H6  1  0.56620025  0.42957788  0.24940129  1  0.100957  0  0.118799  0.108095  0  0.990932  0
H  H7  1  0.32219794  0.63943231  0.63203480  1  0.076491  0  0.11701  0.104701  0  1.002486  0
H  H8  1  0.71649681  0.42333198  0.03305541  1  0.08526  0  0.119614  0.106427  0  0.992925  0
H  H9  1  0.12733688  0.64920981  0.80334588  1  0.085056  0  0.118041  0.105328  0  1.003046  0
H  H10  1  0.30970246  0.83524291  0.65351428  1  0.089374  0  0.117207  0.10458  0  1.016165  0
H  H11  1  0.34011007  0.21929622  0.02721968  1  0.066868  0  0.119492  0.106309  0  0.997388  0
H  H12  1  0.84959753  0.23658635  0.15664717  1  0.072478  0  0.112333  0.097217  0  1.018524  0
H  H13  1  0.44926712  0.17260974  0.35873087  1  0.122716  0  0.121882  0.108495  0  0.987354  0
H  H14  1  0.66678378  0.84635856  0.76532918  1  0.138965  0  0.121226  0.114322  0  0.994986  0
H  H15  1  0.84804678  0.21159622  0.94410413  1  0.112086  0  0.119857  0.10777  0  0.994289  0
H  H16  1  0.23301397  0.81467392  0.13527229  1  0.146427  0  0.126996  0.125562  0  1.000261  0
H  H17  1  0.68267503  0.86737720  0.99431948  1  0.109314  0  0.122292  0.112169  0  0.993135  0
H  H18  1  0.67246312  0.20264384  0.34645609  1  0.078359  0  0.112698  0.098588  0  1.01073  0
H  H19  1  0.16579738  0.52962630  0.47297105  1  -0.00946  0  0.086394  0.078432  0  0.997089  0
H  H20  1  0.09037815  0.59500819  0.48097558  1  0.006344  0  0.090967  0.09176  0  0.977267  0
H  H21  1  0.95903287  0.43741597  0.31563808  1  0.029868  0  0.090864  0.089727  0  0.985477  0
H  H22  1  0.02058129  0.35970544  0.32695984  1  0.007777  0  0.08685  0.081076  0  0.981682  0
H  H23  1  0.13153941  0.38579667  0.54004862  1  -0.010758  0  0.086386  0.081828  0  0.984643  0
H  H24  1  0.96300551  0.22959133  0.40507218  1  0.036411  0  0.088457  0.085327  0  0.987586  0
H  H25  1  0.97074345  0.49125269  0.64378522  1  0.000179  0  0.086992  0.080625  0  0.985387  0
H  H26  1  0.99818769  0.59563191  0.60464700  1  0.020442  0  0.08955  0.085277  0  0.984789  0
H  H27  1  0.85996711  0.46555745  0.43077765  1  0.025202  0  0.091338  0.091485  0  0.975384  0
H  H28  1  0.81564530  0.37485734  0.48320294  1  0.028879  0  0.085336  0.07744  0  1.002194  0
H  H29  1  0.07171040  0.38796608  0.62919250  1  0.018659  0  0.086596  0.082265  0  0.989003  0
H  H30  1  0.89895757  0.25469557  0.48816166  1  0.007789  0  0.087717  0.08483  0  0.981168  0
H  H31  1  0.36703630  0.05946665  0.44669170  1  0.08695  0  0.109731  0.107671  0  0.994457  0
H  H32  1  0.22514640  0.83400181  0.49358838  1  0.092418  0  0.104628  0.114544  0  1.019527  0
H  H33  1  0.35363936  0.09280505  0.59217918  1  0.031678  0  0.097752  0.09379  0  1.0013  0
H  H34  1  0.76842028  0.62040363  0.09352756  1  0.05022  0  0.097702  0.095368  0  0.997224  0
H  H35  1  0.62735736  0.61329730  0.21427735  1  0.049335  0  0.102318  0.102069  0  0.991872  0
H  H36  1  0.75432309  0.76859284  0.07667072  1  0.038974  0  0.098245  0.09417  0  0.989973  0
H  H37  1  0.60349871  0.73670224  0.18669939  1  0.058209  0  0.100851  0.102627  0  1.006933  0
H  H38  1  0.99854202  0.19714810  0.92913540  1  0.047613  0  0.103835  0.100791  0  0.990257  0
H  H39  1  0.16181023  0.20717588  0.95701106  1  0.029274  0  0.097287  0.096817  0  0.996604  0
H  H40  1  0.03831815  0.95135927  0.80167454  1  0.103642  0  0.103409  0.107729  0  1.020445  0
C  C41  1  0.21589811  0.94406482  0.87514612  1  0.41214  0  0.020679  -0.034926  0  3.928965  0
C  C42  1  0.44925133  0.11226508  0.79087092  1  0.396723  0  0.009443  -0.055073  0  3.948193  0
C  C43  1  0.59869469  0.40948633  0.19216720  1  0.37943  0  0.0066  -0.064464  0  3.9909  0
C  C44  1  0.28915312  0.65622367  0.68936829  1  0.381973  0  0.000226  -0.068675  0  4.016949  0
C  C45  1  0.67607598  0.40701031  0.08251769  1  0.414727  0  0.012183  -0.049265  0  3.971122  0
C  C46  1  0.19009091  0.66152565  0.77649727  1  0.360854  0  0.001137  -0.066314  0  4.014702  0
C  C47  1  0.36098836  0.92557015  0.70804676  1  0.418205  0  0.013182  -0.03757  0  3.926137  0
C  C48  1  0.30905186  0.12951426  0.98321930  1  0.423992  0  0.017629  -0.036453  0  3.926505  0
C  C49  1  0.20655204  0.03982501  0.90016240  1  0.045033  0  -0.034364  0.003408  0  4.1067  0
C  C50  1  0.36961158  0.01600789  0.69110157  1  0.021025  0  -0.037569  0.012344  0  4.106194  0
C  C51  1  0.65446902  0.47754217  0.15408361  1  0.014153  0  -0.038525  0.006912  0  4.141467  0
C  C52  1  0.18252904  0.60317278  0.67444863  1  0.042397  0  -0.032043  -0.044291  0  4.023234  0
C  C53  1  0.52455453  0.84632185  0.11506816  1  0.558682  0  0.096071  0.079428  0  4.083017  0
C  C54  1  0.79043598  0.21718238  0.18800240  1  0.381896  0  -1.5e-05  -0.060964  0  3.989023  0
C  C55  1  0.40220402  0.08741563  0.29057578  1  0.417199  0  0.02179  -0.041826  0  3.970598  0
C  C56  1  0.69608157  0.93542950  0.81191743  1  0.410267  0  0.007719  -0.057974  0  3.991977  0
C  C57  1  0.78935005  0.12176666  0.90328817  1  0.382002  0  0.007112  -0.05654  0  3.983936  0
C  C58  1  0.29007195  0.90448607  0.17599047  1  0.494695  0  0.032605  -0.001827  0  3.927178  0
C  C59  1  0.62616212  0.86516731  0.02853830  1  0.411144  0  0.018636  -0.041698  0  3.915285  0
C  C60  1  0.70055760  0.20019800  0.28478638  1  0.311231  0  -0.001578  -0.062904  0  3.985207  0
C  C61  1  0.60853457  0.82978707  0.10320714  1  0.017579  0  -0.017657  0.003191  0  4.069385  0
C  C62  1  0.80546988  0.25313523  0.29491401  1  0.043416  0  -0.030653  -0.038799  0  3.987697  0
C  C63  1  0.32308713  0.98774400  0.28131770  1  0.019486  0  -0.032699  0.008828  0  4.104451  0
C  C64  1  0.79709732  0.02910853  0.84662877  1  0.012766  0  -0.035566  -0.035631  0  4.119302  0
C  C65  1  0.08975625  0.51854156  0.47431155  1  0.012624  0  -0.159651  -0.184319  0  3.868654  0
C  C66  1  0.99402547  0.41276309  0.37014994  1  -0.04126  0  -0.160342  -0.186606  0  3.867505  0
C  C67  1  0.06565742  0.39220223  0.55501143  1  0.00982  0  -0.160244  -0.186428  0  3.867756  0
C  C68  1  0.98354732  0.51027534  0.58043590  1  -0.028236  0  -0.161276  -0.186636  0  3.880258  0
C  C69  1  0.08320948  0.50844282  0.57366485  1  0.061425  0  -0.012178  0.12516  0  3.842161  0
C  C70  1  0.90736923  0.34240208  0.39619112  1  0.109309  0  -0.010065  0.128855  0  3.821241  0
C  C71  1  0.95524256  0.29554068  0.45937851  1  -0.041553  0  -0.160256  -0.186801  0  3.868885  0
C  C72  1  0.88423614  0.42353796  0.47128193  1  -0.033882  0  -0.159822  -0.185094  0  3.868918  0
C  C73  1  0.23802012  0.90293366  0.38836587  1  0.224303  0  0.066588  0.048782  0  3.9399  0
C  C74  1  0.30529253  0.98268822  0.37084530  1  0.00826  0  -0.05905  -0.109715  0  3.93595  0
C  C75  1  0.25942144  0.91447377  0.49459984  1  -0.016143  0  -0.107827  -0.165876  0  4.047601  0
C  C76  1  0.32427185  0.01144985  0.59002962  1  -0.02712  0  -0.094601  -0.107716  0  4.040431  0
C  C77  1  0.72213988  0.64666505  0.13095013  1  0.027968  0  -0.105226  -0.106785  0  4.058799  0
C  C78  1  0.66991027  0.58550907  0.17195913  1  -0.068546  0  -0.091463  -0.111277  0  4.018472  0
C  C79  1  0.71202639  0.73535886  0.11910481  1  -0.037203  0  -0.096731  -0.081055  0  4.04896  0
C  C80  1  0.64512319  0.76908648  0.14341625  1  -0.045383  0  -0.099809  -0.134302  0  4.032878  0
C  C81  1  0.99112181  0.11633799  0.88502739  1  -0.020128  0  -0.079624  -0.098979  0  3.992744  0
C  C82  1  0.88831763  0.02405817  0.83397540  1  0.069675  0  -0.009653  -0.003204  0  4.101845  0
C  C83  1  0.09135515  0.12283013  0.89995789  1  0.055877  0  -0.111873  -0.12597  0  4.079054  0
C  C84  1  0.10736292  0.03554584  0.86108840  1  -0.11779  0  -0.077388  -0.079568  0  3.976154  0
C  C85  1  0.86398152  0.91247184  0.77211396  1  0.823876  0  0.175772  0.25597  0  4.042763  0
C  C86  1  0.47385583  0.82103303  0.17935720  1  0.803639  0  0.171229  0.219487  0  4.064546  0
N  N87  1  0.31397409  0.97453313  0.93979224  1  -0.777744  0  -0.277241  -0.181268  0  3.616954  0
N  N88  1  0.48601421  0.08055103  0.85966538  1  -0.763543  0  -0.280901  -0.183228  0  3.620221  0
N  N89  1  0.58813626  0.30783603  0.14714730  1  -0.785576  0  -0.269447  -0.178428  0  3.537346  0
N  N90  1  0.35494432  0.73983370  0.79213543  1  -0.798249  0  -0.281557  -0.184641  0  3.557868  0
N  N91  1  0.63625790  0.30661985  0.07855456  1  -0.802856  0  -0.270273  -0.175083  0  3.557189  0
N  N92  1  0.29295767  0.74300299  0.84636198  1  -0.80199  0  -0.281414  -0.184211  0  3.575964  0
N  N93  1  0.43134346  0.96588432  0.80829871  1  -0.821607  0  -0.284849  -0.186878  0  3.655683  0
N  N94  1  0.37124297  0.08853667  0.00583837  1  -0.79089  0  -0.276483  -0.178752  0  3.630683  0
N  N95  1  0.49415884  0.88530266  0.04960882  1  -0.727649  0  -0.257492  -0.208055  0  3.558114  0
N  N96  1  0.68459248  0.15069914  0.12012247  1  -0.782573  0  -0.289843  -0.195854  0  3.616458  0
N  N97  1  0.41426842  0.06550876  0.20002214  1  -0.818658  0  -0.265261  -0.174632  0  3.515929  0
N  N98  1  0.63417516  0.96960755  0.84577821  1  -0.778343  0  -0.275377  -0.171127  0  3.56412  0
N  N99  1  0.69183895  0.08545479  0.90234312  1  -0.813384  0  -0.263668  -0.168162  0  3.52137  0
N  N100  1  0.34522978  0.95059301  0.12953007  1  -0.801584  0  -0.266873  -0.169785  0  3.531421  0
N  N101  1  0.55644495  0.89587312  0.99735672  1  -0.751941  0  -0.263213  -0.152906  0  3.642968  0
N  N102  1  0.62881769  0.14032362  0.17989346  1  -0.790344  0  -0.293539  -0.199111  0  3.615317  0
N  N103  1  0.14616172  0.79388770  0.30011714  1  0.350534  0  0.046811  0.518792  0  4.194224  0
N  N104  1  0.83871791  0.81868961  0.72049368  1  -1.140974  0  -0.34065  -0.404621  0  2.667872  0
N  N105  1  0.43383836  0.79689363  0.23300201  1  -1.123112  0  -0.325351  -0.372894  0  2.693864  0
O  O106  1  0.09545010  0.72207228  0.32281803  1  -0.475707  0  -0.164855  -0.369248  0  1.876265  0
O  O107  1  0.12063310  0.77794139  0.20644779  1  -0.501368  0  -0.162984  -0.376109  0  1.932825  0
