# generated using pymatgen
data_Co3H18(C6O5)2
_symmetry_space_group_name_H-M   'P 1'
_cell_length_a   5.67565503
_cell_length_b   12.20123607
_cell_length_c   12.07820696
_cell_angle_alpha   73.22640541
_cell_angle_beta   81.34290026
_cell_angle_gamma   84.11263263
_symmetry_Int_Tables_number   1
_chemical_formula_structural   Co3H18(C6O5)2
_chemical_formula_sum   'Co6 H36 C24 O20'
_cell_volume   790.15812435
_cell_formula_units_Z   2
loop_
 _symmetry_equiv_pos_site_id
 _symmetry_equiv_pos_as_xyz
  1  'x, y, z'
loop_
 _atom_site_type_symbol
 _atom_site_label
 _atom_site_symmetry_multiplicity
 _atom_site_fract_x
 _atom_site_fract_y
 _atom_site_fract_z
 _atom_site_occupancy
 _atom_site_hse06_10hf_ddec_charge
 _atom_site_hse06_10hf_ddec_spin_density
 _atom_site_hse06_10hf_ddec_sum_bond_order
 _atom_site_hse06_10hf_magmom
 _atom_site_hse06_ddec_charge
 _atom_site_hse06_ddec_spin_density
 _atom_site_hse06_ddec_sum_bond_order
 _atom_site_hse06_magmom
 _atom_site_pbe_cm5_charge
 _atom_site_pbe_ddec_charge
 _atom_site_pbe_ddec_spin_density
 _atom_site_pbe_ddec_sum_bond_order
 _atom_site_pbe_magmom
Co  Co0  1  0.77063352  0.75577487  0.94791156  1  1.114223  2.760722  2.254049  2.603  1.204116  2.830917  2.172382  2.694  0.64052  1.018709  2.6648  2.341407  2.494
Co  Co1  1  0.22975869  0.24402881  0.05200017  1  1.114326  2.760842  2.254753  2.603  1.204229  2.83112  2.173045  2.694  0.640575  1.018845  2.665068  2.342153  2.493
Co  Co2  1  0.49996116  0.49990560  0.00006837  1  1.137376  -2.768502  2.353033  -2.64  1.20847  -2.842644  2.279829  -2.724  0.647775  1.079066  -2.619338  2.408449  -2.486
Co  Co3  1  0.22954937  0.74637464  0.05156029  1  1.090605  2.843465  2.294965  2.672  1.164629  2.884255  2.222496  2.739  0.623484  1.017114  2.774565  2.362373  2.585
Co  Co4  1  0.77086652  0.25353300  0.94845656  1  1.091029  2.843725  2.295253  2.672  1.164988  2.884495  2.222819  2.739  0.623639  1.017658  2.77447  2.362516  2.585
Co  Co5  1  0.00023059  0.99990907  0.99996979  1  1.137759  -2.776099  2.230159  -2.653  1.219132  -2.850226  2.155056  -2.736  0.620318  1.062692  -2.662386  2.291275  -2.537
H  H6  1  0.21172608  0.72518916  0.64814447  1  0.132071  0.000424  0.973808  0.001  0.133944  0.000322  0.973759  0.0  0.104559  0.13077  0.000499  0.97381  0.001
H  H7  1  0.78917295  0.27451420  0.35178013  1  0.132658  0.000424  0.973883  0.001  0.13451  0.000322  0.973856  0.0  0.105006  0.131363  0.000498  0.973877  0.001
H  H8  1  0.92245010  0.73767295  0.72436734  1  0.125378  -0.000496  1.023849  0.0  0.127693  -0.000409  1.022164  0.0  0.102426  0.124907  -0.000543  1.023695  -0.001
H  H9  1  0.07846352  0.26253059  0.27538545  1  0.125622  -0.000493  1.02392  0.0  0.12796  -0.000406  1.022233  0.0  0.10248  0.125131  -0.000538  1.023757  -0.001
H  H10  1  0.31305298  0.56683294  0.55675833  1  0.118128  -8.5e-05  1.027488  0.0  0.118608  -5.1e-05  1.028758  0.0  0.085222  0.11798  -0.000122  1.026436  0.0
H  H11  1  0.68577257  0.43293299  0.44285750  1  0.118145  -8.5e-05  1.028131  0.0  0.11861  -5e-05  1.029453  0.0  0.085314  0.118  -0.000122  1.027064  0.0
H  H12  1  0.18327221  0.43282756  0.62254325  1  0.124223  4.1e-05  1.034843  0.0  0.126019  4e-06  1.034398  0.0  0.08689  0.123002  8.8e-05  1.035085  0.0
H  H13  1  0.81553628  0.56701148  0.37751978  1  0.124139  4.2e-05  1.034023  0.0  0.125964  5e-06  1.033533  0.0  0.086965  0.122893  8.7e-05  1.034301  0.0
H  H14  1  0.38047015  0.48296360  0.69576459  1  0.125951  -1.5e-05  1.032479  0.0  0.128409  -1.3e-05  1.030937  0.0  0.087876  0.123963  1.3e-05  1.033841  0.0
H  H15  1  0.61914656  0.51696614  0.30379148  1  0.126017  -1.5e-05  1.032724  0.0  0.128492  -1.3e-05  1.03115  0.0  0.087963  0.124025  1.1e-05  1.034088  0.0
H  H16  1  0.66903487  0.64258547  0.65219056  1  0.130918  -4.5e-05  1.016837  0.0  0.132211  -2.3e-05  1.017417  0.0  0.090118  0.130095  -6e-05  1.016314  0.0
H  H17  1  0.33057922  0.35767113  0.34827542  1  0.130779  -4.5e-05  1.016639  0.0  0.132019  -2.3e-05  1.017299  0.0  0.090051  0.129979  -6.1e-05  1.016081  0.0
H  H18  1  0.77948490  0.52719482  0.59206738  1  0.130364  4e-06  1.013075  0.0  0.13166  -7e-06  1.013776  0.0  0.091623  0.129404  2.5e-05  1.012604  0.0
H  H19  1  0.21921899  0.47304531  0.40828541  1  0.130551  4e-06  1.012914  0.0  0.131893  -7e-06  1.013554  0.0  0.091747  0.129555  2.4e-05  1.012477  0.0
H  H20  1  0.89876250  0.66405789  0.53097060  1  0.118907  -0.000115  1.011783  0.0  0.119938  -8.9e-05  1.012144  0.0  0.086724  0.11843  -0.000148  1.011324  0.0
H  H21  1  0.10024673  0.33608361  0.46923411  1  0.11895  -0.000116  1.011287  0.0  0.119982  -9e-05  1.011643  0.0  0.086808  0.118454  -0.000149  1.01085  0.0
H  H22  1  0.97230638  0.09538030  0.57920045  1  0.118798  1.3e-05  1.009692  0.0  0.119682  8e-06  1.01044  0.0  0.08565  0.117902  2.7e-05  1.009529  0.0
H  H23  1  0.02769138  0.90486230  0.42063807  1  0.118871  1.3e-05  1.009497  0.0  0.119752  8e-06  1.01025  0.0  0.085694  0.117972  2.6e-05  1.009334  0.0
H  H24  1  0.89353071  0.95639905  0.66722486  1  0.134777  -0.000125  1.028441  0.0  0.13668  -0.000119  1.028127  0.0  0.090892  0.133636  -0.000125  1.028364  0.0
H  H25  1  0.10638146  0.04373723  0.33229831  1  0.13469  -0.000125  1.028314  0.0  0.136549  -0.000119  1.028056  0.0  0.090558  0.133557  -0.000125  1.028231  0.0
H  H26  1  0.75401924  0.02401577  0.53991205  1  0.11216  0.000262  1.022685  0.0  0.113135  0.000177  1.022951  0.0  0.082808  0.111455  0.000363  1.02257  0.0
H  H27  1  0.24574157  0.97651212  0.45974297  1  0.112262  0.000262  1.022333  0.0  0.113232  0.000176  1.022593  0.0  0.082725  0.111547  0.000363  1.022233  0.0
H  H28  1  0.39254503  0.25210877  0.65363233  1  0.128055  3.6e-05  1.018389  0.0  0.130662  3e-06  1.016754  0.0  0.08921  0.125833  8.7e-05  1.020017  0.0
H  H29  1  0.60737528  0.74787874  0.34685940  1  0.128288  3.7e-05  1.018268  0.0  0.130932  3e-06  1.016591  0.0  0.089254  0.126033  8.6e-05  1.019929  0.0
H  H30  1  0.68407580  0.26840332  0.57691502  1  0.124482  1e-06  1.014131  0.0  0.125985  -1e-05  1.013947  0.0  0.088723  0.122974  1.7e-05  1.014781  0.0
H  H31  1  0.31555164  0.73179389  0.42326898  1  0.124464  1e-06  1.013497  0.0  0.125976  -1e-05  1.013312  0.0  0.0886  0.122945  1.6e-05  1.014155  0.0
H  H32  1  0.47414659  0.19736511  0.53049430  1  0.115883  -0.000146  1.016383  0.0  0.116732  -0.0001  1.016924  0.0  0.085445  0.115331  -0.000178  1.015968  0.0
H  H33  1  0.52518437  0.80289067  0.46980147  1  0.115929  -0.000146  1.016236  0.0  0.116765  -0.000101  1.016803  0.0  0.085745  0.115378  -0.000179  1.015816  0.0
H  H34  1  0.24724078  0.06909308  0.75167485  1  0.126847  0.000614  1.022684  0.001  0.129701  0.000458  1.021564  0.0  0.102151  0.124303  0.000771  1.024313  0.001
H  H35  1  0.75300578  0.93082770  0.24845699  1  0.127233  0.000612  1.022366  0.001  0.130053  0.000457  1.021301  0.0  0.102522  0.124695  0.000767  1.023945  0.001
H  H36  1  0.37216696  0.98835501  0.65432633  1  0.131618  0.000423  0.969822  0.001  0.133822  0.000295  0.969131  0.001  0.105793  0.129396  0.000548  0.971166  0.001
H  H37  1  0.62794580  0.01167600  0.34568729  1  0.131448  0.000422  0.970065  0.001  0.133719  0.000295  0.96929  0.001  0.105683  0.129206  0.000547  0.971398  0.001
H  H38  1  0.77610436  0.82220743  0.12061392  1  0.397153  0.000197  0.919568  0.001  0.407381  3.5e-05  0.905742  0.001  0.300849  0.38925  0.000426  0.925112  0.001
H  H39  1  0.22423376  0.17764164  0.87930019  1  0.397498  0.000196  0.919162  0.001  0.407719  3.4e-05  0.905267  0.001  0.301243  0.389612  0.000426  0.924679  0.001
H  H40  1  0.58317805  0.61836461  0.12543871  1  0.405985  0.00044  0.895372  0.001  0.415954  0.000219  0.886615  0.001  0.311692  0.399324  0.000848  0.899779  0.002
H  H41  1  0.41712358  0.38161232  0.87459779  1  0.405557  0.000446  0.895341  0.001  0.415533  0.000224  0.886607  0.001  0.311491  0.398891  0.000855  0.899744  0.002
C  C42  1  0.02251759  0.56913118  0.69574341  1  0.138206  0.001283  3.802109  0.002  0.133819  0.000872  3.82058  0.001  -0.012234  0.141326  0.001641  3.790073  0.002
C  C43  1  0.97723354  0.43087167  0.30425744  1  0.140058  0.001281  3.799854  0.002  0.135673  0.000871  3.818324  0.001  -0.011817  0.143176  0.001635  3.787803  0.002
C  C44  1  0.19334343  0.65637973  0.83168323  1  0.706295  0.002865  4.058966  0.004  0.746456  0.002108  4.048239  0.003  0.230402  0.676148  0.003532  4.064147  0.004
C  C45  1  0.80696516  0.34347682  0.16827553  1  0.707868  0.002833  4.057895  0.004  0.748116  0.002083  4.047084  0.003  0.230993  0.677662  0.003487  4.063135  0.004
C  C46  1  0.08286170  0.67993945  0.72051731  1  -0.367209  0.000288  3.875047  0.001  -0.374282  0.000139  3.883047  0.0  -0.161595  -0.361562  0.000615  3.867808  0.001
C  C47  1  0.91764471  0.31999884  0.27936348  1  -0.368851  0.000299  3.875522  0.001  -0.375906  0.000149  3.883436  0.0  -0.162138  -0.363214  0.000627  3.868323  0.001
C  C48  1  0.23818987  0.50917374  0.63969556  1  -0.420807  0.000145  3.923089  0.0  -0.423093  9.5e-05  3.93307  0.0  -0.250203  -0.419096  0.000205  3.916187  0.0
C  C49  1  0.76102522  0.49071892  0.36008826  1  -0.421422  0.000146  3.922954  0.0  -0.423718  9.5e-05  3.932852  0.0  -0.250724  -0.419664  0.000205  3.916002  0.0
C  C50  1  0.82956738  0.60266806  0.61292355  1  -0.407037  -0.000445  3.881413  -0.001  -0.40981  -0.000352  3.892588  0.0  -0.239928  -0.405092  -0.000515  3.873532  -0.001
C  C51  1  0.16967292  0.39750476  0.38735025  1  -0.407772  -0.000449  3.879508  -0.001  -0.410546  -0.000355  3.890686  0.0  -0.240222  -0.405816  -0.00052  3.871626  -0.001
C  C52  1  0.71815188  0.11011413  0.79305935  1  0.607761  -0.000701  4.054222  -0.001  0.643593  -0.000466  4.049324  -0.001  0.222217  0.580948  -0.000647  4.056031  -0.001
C  C53  1  0.28231458  0.88980238  0.20689591  1  0.605721  -0.000703  4.055548  -0.001  0.641575  -0.000469  4.050635  -0.001  0.221521  0.578896  -0.000649  4.05731  -0.001
C  C54  1  0.62558667  0.09434682  0.68475077  1  0.136413  -2.9e-05  3.795667  0.0  0.132457  -0.000139  3.814226  0.0  -0.012937  0.139165  0.000244  3.783458  0.0
C  C55  1  0.37451604  0.90570661  0.31523478  1  0.136912  -2.9e-05  3.795627  0.0  0.13295  -0.000139  3.814191  0.0  -0.012924  0.139676  0.000241  3.783299  0.0
C  C56  1  0.82415075  0.03863260  0.61417525  1  -0.413568  0.000449  3.93117  0.001  -0.41605  0.000307  3.942677  0.0  -0.247899  -0.411639  0.00062  3.923314  0.001
C  C57  1  0.17578618  0.96162596  0.38555617  1  -0.413782  0.000447  3.929666  0.001  -0.416168  0.000306  3.941092  0.0  -0.24756  -0.411916  0.000617  3.921897  0.001
C  C58  1  0.53827202  0.20996341  0.60722081  1  -0.410667  -0.000145  3.929854  0.0  -0.41277  -0.000158  3.939808  0.0  -0.244369  -0.409034  -6.5e-05  3.923715  0.0
C  C59  1  0.46146590  0.79016581  0.39302789  1  -0.410986  -0.000145  3.929149  0.0  -0.413143  -0.000157  3.939108  0.0  -0.244617  -0.409343  -6.9e-05  3.923038  0.0
C  C60  1  0.40710769  0.01845064  0.72762717  1  -0.345765  0.00276  3.822947  0.004  -0.353718  0.001895  3.830558  0.003  -0.156349  -0.340005  0.003666  3.819584  0.005
C  C61  1  0.59313526  0.98151172  0.27241102  1  -0.345778  0.002758  3.823343  0.004  -0.353773  0.001894  3.831018  0.003  -0.156486  -0.339913  0.003663  3.819794  0.005
C  C62  1  0.44270371  0.91502063  0.82924121  1  0.699321  0.002067  4.057106  0.001  0.740121  0.001641  4.045998  0.001  0.225658  0.667943  0.002209  4.064813  0.001
C  C63  1  0.55772719  0.08490860  0.17073941  1  0.698964  0.002072  4.057173  0.001  0.739747  0.001648  4.046081  0.001  0.225223  0.667572  0.002206  4.064861  0.001
C  C64  1  0.91285879  0.48632462  0.81002875  1  0.615334  -0.003069  4.057979  -0.005  0.652327  -0.002484  4.05178  -0.004  0.221871  0.587226  -0.003673  4.061197  -0.006
C  C65  1  0.08714878  0.51373333  0.19007978  1  0.613538  -0.00309  4.059779  -0.005  0.650563  -0.002503  4.053538  -0.004  0.220795  0.585422  -0.003696  4.062971  -0.006
O  O66  1  0.86705115  0.03294405  0.84241611  1  -0.595448  -0.023543  2.380569  -0.037  -0.631973  -0.019616  2.370223  -0.029  -0.305649  -0.564004  -0.026079  2.38563  -0.041
O  O67  1  0.13329967  0.96690320  0.15751833  1  -0.59482  -0.023563  2.380938  -0.037  -0.631385  -0.019628  2.370618  -0.029  -0.305408  -0.563422  -0.026114  2.38607  -0.041
O  O68  1  0.36326279  0.58206299  0.84857852  1  -0.55532  -0.016748  2.393554  -0.026  -0.587336  -0.015292  2.380239  -0.023  -0.28679  -0.529736  -0.015619  2.402135  -0.025
O  O69  1  0.63663116  0.41758481  0.15151491  1  -0.555478  -0.016721  2.39326  -0.026  -0.587545  -0.015268  2.379904  -0.023  -0.286946  -0.52993  -0.015591  2.40199  -0.025
O  O70  1  0.11017978  0.71584508  0.90468285  1  -0.65903  0.052724  2.560785  0.076  -0.704375  0.043253  2.540693  0.06  -0.321857  -0.616601  0.06165  2.572116  0.091
O  O71  1  0.89035213  0.28410257  0.09520835  1  -0.659777  0.052769  2.560699  0.076  -0.705131  0.043295  2.540511  0.06  -0.321965  -0.617342  0.061703  2.572093  0.091
O  O72  1  0.60448690  0.83804361  0.81348729  1  -0.589582  0.029336  2.339128  0.042  -0.627593  0.023001  2.321761  0.031  -0.312547  -0.558886  0.034231  2.353626  0.05
O  O73  1  0.39595044  0.16190484  0.18641865  1  -0.589291  0.029355  2.339699  0.042  -0.627319  0.023017  2.322329  0.031  -0.312316  -0.55856  0.034255  2.354191  0.05
O  O74  1  0.81796999  0.52889959  0.89193002  1  -0.604465  -0.021906  2.400162  -0.032  -0.640441  -0.017684  2.388738  -0.024  -0.304935  -0.573164  -0.027256  2.405302  -0.041
O  O75  1  0.18182780  0.47127718  0.10805823  1  -0.603329  -0.021971  2.400381  -0.032  -0.639463  -0.017721  2.389225  -0.025  -0.304456  -0.571957  -0.027373  2.405359  -0.041
O  O76  1  0.92134854  0.38054223  0.81401409  1  -0.587852  0.027689  2.330361  0.045  -0.622582  0.021875  2.317368  0.035  -0.316054  -0.558074  0.032439  2.338699  0.053
O  O77  1  0.07898729  0.61949882  0.18621439  1  -0.587383  0.02762  2.330251  0.045  -0.6221  0.021825  2.317249  0.035  -0.315517  -0.557644  0.032345  2.338605  0.053
O  O78  1  0.63580181  0.19800397  0.82639540  1  -0.584575  0.025608  2.364632  0.042  -0.618834  0.020109  2.352739  0.032  -0.308856  -0.555461  0.031779  2.37041  0.052
O  O79  1  0.36484032  0.80189062  0.17365807  1  -0.583134  0.025562  2.363704  0.042  -0.617369  0.020075  2.351838  0.032  -0.308389  -0.554054  0.031722  2.369445  0.052
O  O80  1  0.31609416  0.90808528  0.92785773  1  -0.62902  0.009206  2.460074  0.012  -0.66674  0.00716  2.440899  0.009  -0.294632  -0.598139  0.010533  2.474804  0.015
O  O81  1  0.68435629  0.09180360  0.07214136  1  -0.62924  0.00925  2.459913  0.012  -0.666939  0.007194  2.440716  0.009  -0.294531  -0.598378  0.01059  2.47466  0.015
O  O82  1  0.88396099  0.83820688  0.04750032  1  -0.93831  0.033062  2.348441  0.051  -0.99577  0.027461  2.310494  0.041  -0.55083  -0.881668  0.036881  2.369798  0.057
O  O83  1  0.11641213  0.16161981  0.95243430  1  -0.93897  0.033068  2.348552  0.051  -0.996388  0.02747  2.310399  0.041  -0.551451  -0.882401  0.036897  2.37006  0.057
O  O84  1  0.54497828  0.64683091  0.04539616  1  -0.939389  0.045688  2.429676  0.068  -0.994788  0.036662  2.391992  0.052  -0.549419  -0.885776  0.05265  2.457468  0.082
O  O85  1  0.45531635  0.35305009  0.95464102  1  -0.938448  0.045609  2.429007  0.068  -0.993787  0.036606  2.391203  0.052  -0.548939  -0.884947  0.052531  2.457039  0.082
