# generated using pymatgen
data_HgH12C10N5ClO5
_symmetry_space_group_name_H-M   'P 1'
_cell_length_a   8.51050165
_cell_length_b   13.11318275
_cell_length_c   13.91701977
_cell_angle_alpha   109.37222357
_cell_angle_beta   90.00004727
_cell_angle_gamma   90.00007084
_symmetry_Int_Tables_number   1
_chemical_formula_structural   HgH12C10N5ClO5
_chemical_formula_sum   'Hg4 H48 C40 N20 Cl4 O20'
_cell_volume   1465.20309995
_cell_formula_units_Z   4
loop_
 _symmetry_equiv_pos_site_id
 _symmetry_equiv_pos_as_xyz
  1  'x, y, z'
loop_
 _atom_site_type_symbol
 _atom_site_label
 _atom_site_symmetry_multiplicity
 _atom_site_fract_x
 _atom_site_fract_y
 _atom_site_fract_z
 _atom_site_occupancy
 _atom_site_hle17_bader_spin_density
 _atom_site_hle17_ddec_charge
 _atom_site_hle17_ddec_spin_density
 _atom_site_hle17_ddec_sum_bond_order
 _atom_site_hle17_magmom
 _atom_site_hse06_10hf_bader_spin_density
 _atom_site_hse06_10hf_ddec_charge
 _atom_site_hse06_10hf_ddec_spin_density
 _atom_site_hse06_10hf_ddec_sum_bond_order
 _atom_site_hse06_10hf_magmom
 _atom_site_hse06_bader_spin_density
 _atom_site_hse06_ddec_charge
 _atom_site_hse06_ddec_spin_density
 _atom_site_hse06_ddec_sum_bond_order
 _atom_site_hse06_magmom
 _atom_site_pbe_bader_spin_density
 _atom_site_pbe_cm5_charge
 _atom_site_pbe_ddec_charge
 _atom_site_pbe_ddec_spin_density
 _atom_site_pbe_ddec_sum_bond_order
 _atom_site_pbe_magmom
Hg  Hg0  1  0.73201436  0.71450855  0.64326179  1  0  0.878703  0  1.904869  0  0  0.713019  0  2.369851  0  0  0.771911  0  2.32494  0  0  0.615397  0.671559  0  2.400629  0
Hg  Hg1  1  0.23201585  0.78549303  0.85673818  1  0  0.878679  0  1.904851  0  0  0.713013  0  2.36983  0  0  0.771904  0  2.324921  0  0  0.615398  0.671553  0  2.400605  0
Hg  Hg2  1  0.26798589  0.28549351  0.35674003  1  0  0.878705  0  1.904845  0  0  0.713018  0  2.369831  0  0  0.771908  0  2.32492  0  0  0.615398  0.67156  0  2.400608  0
Hg  Hg3  1  0.76798558  0.21450741  0.14326026  1  0  0.878708  0  1.90487  0  0  0.713035  0  2.369841  0  0  0.771924  0  2.324933  0  0  0.615409  0.671576  0  2.400618  0
H  H4  1  0.25932367  0.13476294  0.60153528  1  0  0.103171  0  0.964497  0  0  0.119112  0  1.034629  0  0  0.119766  0  1.034495  0  0  0.106674  0.118535  0  1.034828  0
H  H5  1  0.75932399  0.36523818  0.89846589  1  0  0.103148  0  0.964494  0  0  0.119093  0  1.034608  0  0  0.119747  0  1.034478  0  0  0.106671  0.118517  0  1.034809  0
H  H6  1  0.74067893  0.86523831  0.39846413  1  0  0.103175  0  0.964416  0  0  0.119094  0  1.034574  0  0  0.119745  0  1.034449  0  0  0.106659  0.118518  0  1.034772  0
H  H7  1  0.24068096  0.63475903  0.10153371  1  0  0.103169  0  0.964452  0  0  0.119117  0  1.034565  0  0  0.11977  0  1.034438  0  0  0.106668  0.118542  0  1.034761  0
H  H8  1  0.09687370  0.04883094  0.60192416  1  0  0.121901  0  0.921698  0  0  0.14527  0  0.975361  0  0  0.145799  0  0.975394  0  0  0.112398  0.144752  0  0.975492  0
H  H9  1  0.59687184  0.45116920  0.89807878  1  0  0.12189  0  0.921694  0  0  0.145233  0  0.975384  0  0  0.145763  0  0.975415  0  0  0.112375  0.144715  0  0.975515  0
H  H10  1  0.90312772  0.95117273  0.39807600  1  0  0.121851  0  0.921704  0  0  0.145213  0  0.97537  0  0  0.14574  0  0.975409  0  0  0.112374  0.144695  0  0.975502  0
H  H11  1  0.40312959  0.54882477  0.10191982  1  0  0.121895  0  0.921649  0  0  0.145243  0  0.975332  0  0  0.145772  0  0.975367  0  0  0.112371  0.144724  0  0.975466  0
H  H12  1  0.15494308  0.06670725  0.48573988  1  0  0.12355  0  0.948381  0  0  0.138638  0  1.015895  0  0  0.140296  0  1.014766  0  0  0.110538  0.137309  0  1.016823  0
H  H13  1  0.65494654  0.43329355  0.01426248  1  0  0.123511  0  0.948437  0  0  0.13858  0  1.015965  0  0  0.14025  0  1.014823  0  0  0.110522  0.137252  0  1.016889  0
H  H14  1  0.84505835  0.93329561  0.51426004  1  0  0.123561  0  0.948401  0  0  0.138593  0  1.015961  0  0  0.140285  0  1.014793  0  0  0.110529  0.137264  0  1.016885  0
H  H15  1  0.34505724  0.56670204  0.98573734  1  0  0.123516  0  0.948393  0  0  0.138573  0  1.015934  0  0  0.140244  0  1.01479  0  0  0.110518  0.137245  0  1.016858  0
H  H16  1  0.47912772  0.69015535  0.29392184  1  0  0.111395  0  0.924135  0  0  0.132326  0  0.985582  0  0  0.132877  0  0.985025  0  0  0.11014  0.131816  0  0.98609  0
H  H17  1  0.97912533  0.80984629  0.20607746  1  0  0.111355  0  0.924132  0  0  0.132286  0  0.985578  0  0  0.132835  0  0.985024  0  0  0.110118  0.131779  0  0.986085  0
H  H18  1  0.52087018  0.30984268  0.70607945  1  0  0.111382  0  0.924102  0  0  0.132318  0  0.98557  0  0  0.132868  0  0.985012  0  0  0.110129  0.131803  0  0.986073  0
H  H19  1  0.02087022  0.19015413  0.79391954  1  0  0.11136  0  0.924138  0  0  0.132298  0  0.985599  0  0  0.132849  0  0.98504  0  0  0.110119  0.131786  0  0.986102  0
H  H20  1  0.27400706  0.72164348  0.29166322  1  0  0.11178  0  0.969392  0  0  0.127804  0  1.037153  0  0  0.129649  0  1.035732  0  0  0.110497  0.126361  0  1.038312  0
H  H21  1  0.77400461  0.77835793  0.20833590  1  0  0.111805  0  0.969416  0  0  0.127822  0  1.037179  0  0  0.129668  0  1.035758  0  0  0.110494  0.126379  0  1.03834  0
H  H22  1  0.72599202  0.27835616  0.70833928  1  0  0.111792  0  0.969352  0  0  0.127822  0  1.03712  0  0  0.129667  0  1.035697  0  0  0.110491  0.126378  0  1.03828  0
H  H23  1  0.22599329  0.22164088  0.79166060  1  0  0.111789  0  0.969375  0  0  0.127813  0  1.037144  0  0  0.129657  0  1.035723  0  0  0.110499  0.126369  0  1.038304  0
H  H24  1  0.33909248  0.63000486  0.35462793  1  0  0.119267  0  0.942816  0  0  0.136318  0  1.00772  0  0  0.137349  0  1.006841  0  0  0.102033  0.135481  0  1.008439  0
H  H25  1  0.83909012  0.86999745  0.14537437  1  0  0.119258  0  0.942876  0  0  0.136312  0  1.007774  0  0  0.137343  0  1.006894  0  0  0.102035  0.135476  0  1.008494  0
H  H26  1  0.66090660  0.36999722  0.64537820  1  0  0.119251  0  0.942845  0  0  0.136347  0  1.007715  0  0  0.137379  0  1.00683  0  0  0.10204  0.135509  0  1.008433  0
H  H27  1  0.16090660  0.13000056  0.85462260  1  0  0.119245  0  0.942808  0  0  0.136323  0  1.007699  0  0  0.137356  0  1.006816  0  0  0.10202  0.135485  0  1.008417  0
H  H28  1  0.69223687  0.97418156  0.89965794  1  0  0.140153  0  0.962748  0  0  0.154509  0  1.031832  0  0  0.156422  0  1.031633  0  0  0.090512  0.153079  0  1.032054  0
H  H29  1  0.19223399  0.52581997  0.60034127  1  0  0.140192  0  0.962812  0  0  0.154562  0  1.031875  0  0  0.156475  0  1.031675  0  0  0.090536  0.153133  0  1.032096  0
H  H30  1  0.30776456  0.02581968  0.10034147  1  0  0.14017  0  0.96276  0  0  0.154544  0  1.031818  0  0  0.156457  0  1.031618  0  0  0.090529  0.153115  0  1.032038  0
H  H31  1  0.80776861  0.47417886  0.39965955  1  0  0.14017  0  0.962879  0  0  0.154549  0  1.031925  0  0  0.156462  0  1.031725  0  0  0.090529  0.15312  0  1.032145  0
H  H32  1  0.84011440  0.02436106  0.83961021  1  0  0.147145  0  0.925494  0  0  0.170412  0  0.978309  0  0  0.172304  0  0.977727  0  0  0.105718  0.168991  0  0.978776  0
H  H33  1  0.34010893  0.47564014  0.66039031  1  0  0.147233  0  0.925452  0  0  0.170498  0  0.978268  0  0  0.17239  0  0.977685  0  0  0.105742  0.169077  0  0.978737  0
H  H34  1  0.15988703  0.97564099  0.16039017  1  0  0.147215  0  0.925441  0  0  0.170482  0  0.978254  0  0  0.172373  0  0.977671  0  0  0.105733  0.169061  0  0.97872  0
H  H35  1  0.65989015  0.52435868  0.33960979  1  0  0.147273  0  0.92538  0  0  0.170533  0  0.978206  0  0  0.172424  0  0.977625  0  0  0.105753  0.169112  0  0.978675  0
H  H36  1  0.81596621  0.88200649  0.80767331  1  0  0.131228  0  0.986327  0  0  0.148495  0  1.05195  0  0  0.150598  0  1.050302  0  0  0.089966  0.146795  0  1.05331  0
H  H37  1  0.31596480  0.61799437  0.69232503  1  0  0.131249  0  0.986352  0  0  0.148522  0  1.051966  0  0  0.150625  0  1.050317  0  0  0.089967  0.146822  0  1.053326  0
H  H38  1  0.18403287  0.11799556  0.19232563  1  0  0.131281  0  0.986317  0  0  0.148554  0  1.051931  0  0  0.150654  0  1.050284  0  0  0.089986  0.146853  0  1.053291  0
H  H39  1  0.68403663  0.38200365  0.30767481  1  0  0.13128  0  0.986313  0  0  0.148528  0  1.051963  0  0  0.150641  0  1.050304  0  0  0.089966  0.146829  0  1.053323  0
H  H40  1  0.69417251  0.17566975  0.85914382  1  0  0.130873  0  0.950916  0  0  0.15124  0  1.01165  0  0  0.152791  0  1.011754  0  0  0.099572  0.150095  0  1.011612  0
H  H41  1  0.19417496  0.32432889  0.64086157  1  0  0.130897  0  0.950845  0  0  0.151265  0  1.011597  0  0  0.152815  0  1.0117  0  0  0.099564  0.150119  0  1.01156  0
H  H42  1  0.30583009  0.82432907  0.14085484  1  0  0.130906  0  0.950886  0  0  0.151262  0  1.011625  0  0  0.152812  0  1.011729  0  0  0.099593  0.150117  0  1.011587  0
H  H43  1  0.80582765  0.67566671  0.35914040  1  0  0.13088  0  0.95089  0  0  0.151247  0  1.011634  0  0  0.152796  0  1.011738  0  0  0.099569  0.150101  0  1.011597  0
H  H44  1  0.53389642  0.13591450  0.91731314  1  0  0.140035  0  0.940291  0  0  0.157343  0  1.005201  0  0  0.158726  0  1.005403  0  0  0.098091  0.156272  0  1.005187  0
H  H45  1  0.03389886  0.36408314  0.58268899  1  0  0.14004  0  0.940242  0  0  0.157378  0  1.005137  0  0  0.158759  0  1.005342  0  0  0.098089  0.156306  0  1.005125  0
H  H46  1  0.46610619  0.86408756  0.08268724  1  0  0.14006  0  0.940304  0  0  0.157363  0  1.005212  0  0  0.158745  0  1.005417  0  0  0.098092  0.156291  0  1.0052  0
H  H47  1  0.96610140  0.63591488  0.41731230  1  0  0.139984  0  0.940356  0  0  0.157326  0  1.005235  0  0  0.158707  0  1.005441  0  0  0.098083  0.156254  0  1.005223  0
H  H48  1  0.49922751  0.22065675  0.84268251  1  0  0.137576  0  0.947915  0  0  0.156045  0  1.007895  0  0  0.158589  0  1.007062  0  0  0.100871  0.154183  0  1.008516  0
H  H49  1  0.99922970  0.27934546  0.65732487  1  0  0.137558  0  0.947892  0  0  0.156094  0  1.007821  0  0  0.158642  0  1.00699  0  0  0.100866  0.154228  0  1.008446  0
H  H50  1  0.50077509  0.77934611  0.15731884  1  0  0.137594  0  0.947895  0  0  0.156052  0  1.007885  0  0  0.158596  0  1.007052  0  0  0.100877  0.154193  0  1.008502  0
H  H51  1  0.00076938  0.72065338  0.34267883  1  0  0.137573  0  0.947943  0  0  0.156052  0  1.007928  0  0  0.158596  0  1.007098  0  0  0.10086  0.154189  0  1.00855  0
C  C52  1  0.19752933  0.06111367  0.55778377  1  0  -0.15212  0  3.600591  0  0  -0.259333  0  3.85796  0  0  -0.254663  0  3.86594  0  0  -0.13645  -0.262162  0  3.852538  0
C  C53  1  0.69752867  0.43888738  0.94221807  1  0  -0.152062  0  3.600614  0  0  -0.25924  0  3.857944  0  0  -0.25458  0  3.865918  0  0  -0.136417  -0.262071  0  3.852524  0
C  C54  1  0.80247327  0.93888839  0.44221589  1  0  -0.152042  0  3.600518  0  0  -0.259187  0  3.85785  0  0  -0.254544  0  3.865812  0  0  -0.136407  -0.262018  0  3.852442  0
C  C55  1  0.30247393  0.56110902  0.05778200  1  0  -0.152033  0  3.600472  0  0  -0.259207  0  3.857803  0  0  -0.254551  0  3.865777  0  0  -0.136376  -0.26204  0  3.852393  0
C  C56  1  0.42077793  0.96885662  0.60667834  1  0  0.324645  0  3.810692  0  0  0.280949  0  4.096014  0  0  0.297414  0  4.109377  0  0  0.237038  0.269917  0  4.087185  0
C  C57  1  0.92077291  0.53114435  0.89332226  1  0  0.324565  0  3.810667  0  0  0.280759  0  4.096081  0  0  0.29722  0  4.109446  0  0  0.2369  0.269722  0  4.087264  0
C  C58  1  0.57922584  0.03114381  0.39332082  1  0  0.32464  0  3.810552  0  0  0.280909  0  4.095876  0  0  0.297371  0  4.109239  0  0  0.236941  0.269877  0  4.087048  0
C  C59  1  0.07922616  0.46885528  0.10667737  1  0  0.324619  0  3.810747  0  0  0.280856  0  4.096096  0  0  0.297322  0  4.109458  0  0  0.236965  0.269821  0  4.087272  0
C  C60  1  0.28385397  0.88350381  0.44687883  1  0  0.622917  0  3.828887  0  0  0.54773  0  4.141784  0  0  0.582241  0  4.139811  0  0  0.341835  0.524523  0  4.142509  0
C  C61  1  0.78384866  0.61650004  0.05312033  1  0  0.623116  0  3.82864  0  0  0.547813  0  4.141745  0  0  0.582325  0  4.13977  0  0  0.341795  0.52461  0  4.142467  0
C  C62  1  0.71614745  0.11649663  0.55312176  1  0  0.622956  0  3.828934  0  0  0.54772  0  4.141836  0  0  0.582231  0  4.139865  0  0  0.341866  0.524515  0  4.142559  0
C  C63  1  0.21615042  0.38349798  0.94687952  1  0  0.623073  0  3.828774  0  0  0.547757  0  4.141843  0  0  0.582268  0  4.139872  0  0  0.341797  0.524552  0  4.142565  0
C  C64  1  0.36805088  0.70297881  0.33627166  1  0  -0.150632  0  3.608854  0  0  -0.255893  0  3.863764  0  0  -0.250993  0  3.871311  0  0  -0.136205  -0.258855  0  3.858517  0
C  C65  1  0.86804841  0.79702109  0.16372704  1  0  -0.150619  0  3.60889  0  0  -0.255838  0  3.863838  0  0  -0.250943  0  3.871399  0  0  -0.136211  -0.258805  0  3.858591  0
C  C66  1  0.63194820  0.29702083  0.66373013  1  0  -0.150663  0  3.608902  0  0  -0.255996  0  3.863799  0  0  -0.251114  0  3.871389  0  0  -0.13624  -0.258946  0  3.85854  0
C  C67  1  0.13194715  0.20297934  0.83627140  1  0  -0.150583  0  3.608871  0  0  -0.25586  0  3.863773  0  0  -0.25098  0  3.871367  0  0  -0.136194  -0.258815  0  3.858515  0
C  C68  1  0.49732311  0.78442379  0.49816478  1  0  0.489501  0  3.838195  0  0  0.435878  0  4.127402  0  0  0.467321  0  4.126513  0  0  0.242166  0.41481  0  4.12755  0
C  C69  1  0.99731557  0.71558270  0.00183244  1  0  0.489262  0  3.838462  0  0  0.435842  0  4.127419  0  0  0.467287  0  4.126525  0  0  0.242083  0.414773  0  4.127567  0
C  C70  1  0.50267596  0.21557988  0.50183754  1  0  0.489453  0  3.838426  0  0  0.435864  0  4.127558  0  0  0.46731  0  4.126663  0  0  0.242148  0.414794  0  4.127709  0
C  C71  1  0.00267293  0.28441773  0.99816600  1  0  0.489581  0  3.838128  0  0  0.435942  0  4.127341  0  0  0.467391  0  4.126443  0  0  0.242177  0.41487  0  4.12749  0
C  C72  1  0.51479345  0.87719756  0.59090467  1  0  -0.023247  0  3.778027  0  0  -0.031106  0  4.035077  0  0  -0.037624  0  4.0556  0  0  0.104024  -0.027571  0  4.021963  0
C  C73  1  0.01478529  0.62280377  0.90909439  1  0  -0.023164  0  3.777973  0  0  -0.031001  0  4.034935  0  0  -0.037515  0  4.05545  0  0  0.104137  -0.027467  0  4.021829  0
C  C74  1  0.48520916  0.12280369  0.40909618  1  0  -0.023294  0  3.777906  0  0  -0.031153  0  4.034922  0  0  -0.03767  0  4.055439  0  0  0.104085  -0.027618  0  4.02181  0
C  C75  1  0.98520909  0.37719747  0.09090286  1  0  -0.023299  0  3.778062  0  0  -0.031075  0  4.035029  0  0  -0.037595  0  4.055545  0  0  0.10406  -0.027534  0  4.021909  0
C  C76  1  0.64038082  0.96062044  0.74617672  1  0  0.2483  0  3.624958  0  0  0.237659  0  3.883862  0  0  0.245454  0  3.900821  0  0  0.14223  0.231968  0  3.872632  0
C  C77  1  0.14037582  0.53938184  0.75382198  1  0  0.248331  0  3.624884  0  0  0.237636  0  3.883911  0  0  0.245422  0  3.900882  0  0  0.142244  0.231945  0  3.872683  0
C  C78  1  0.35962061  0.03938161  0.25382294  1  0  0.24828  0  3.624915  0  0  0.237556  0  3.883982  0  0  0.245339  0  3.900959  0  0  0.142227  0.231867  0  3.872752  0
C  C79  1  0.85962443  0.46061617  0.24617643  1  0  0.248295  0  3.624923  0  0  0.237607  0  3.883918  0  0  0.245385  0  3.900902  0  0  0.142218  0.231915  0  3.872691  0
C  C80  1  0.75342004  0.95894711  0.82654334  1  0  -0.383714  0  3.690626  0  0  -0.462854  0  3.922838  0  0  -0.467401  0  3.931124  0  0  -0.245462  -0.459344  0  3.917303  0
C  C81  1  0.25341728  0.54105448  0.67345520  1  0  -0.383905  0  3.69073  0  0  -0.463059  0  3.922992  0  0  -0.467604  0  3.931279  0  0  -0.245507  -0.459548  0  3.91746  0
C  C82  1  0.24658021  0.04105494  0.17345632  1  0  -0.383903  0  3.690625  0  0  -0.463045  0  3.922902  0  0  -0.467587  0  3.931194  0  0  -0.245524  -0.459536  0  3.917368  0
C  C83  1  0.74658532  0.45894353  0.32654465  1  0  -0.383938  0  3.690677  0  0  -0.46309  0  3.922975  0  0  -0.467643  0  3.931256  0  0  -0.245512  -0.459582  0  3.917443  0
C  C84  1  0.54740425  0.05521288  0.75711253  1  0  0.28425  0  3.651393  0  0  0.281959  0  3.913761  0  0  0.292259  0  3.925863  0  0  0.154842  0.275052  0  3.90552  0
C  C85  1  0.04740588  0.44478801  0.74288774  1  0  0.284336  0  3.651239  0  0  0.28203  0  3.913696  0  0  0.292331  0  3.925801  0  0  0.154831  0.275123  0  3.905457  0
C  C86  1  0.45259365  0.94478837  0.24288616  1  0  0.284337  0  3.651267  0  0  0.282004  0  3.913746  0  0  0.292305  0  3.925853  0  0  0.154822  0.275097  0  3.905506  0
C  C87  1  0.95259555  0.55521163  0.25711333  1  0  0.284269  0  3.651276  0  0  0.281983  0  3.913708  0  0  0.292286  0  3.925812  0  0  0.154846  0.275074  0  3.90547  0
C  C88  1  0.56950886  0.15300365  0.84813537  1  0  -0.376599  0  3.672021  0  0  -0.455355  0  3.903208  0  0  -0.460217  0  3.911363  0  0  -0.238204  -0.451678  0  3.897488  0
C  C89  1  0.06951018  0.34699646  0.65186755  1  0  -0.376636  0  3.671857  0  0  -0.455493  0  3.903035  0  0  -0.460362  0  3.911194  0  0  -0.238208  -0.451808  0  3.897317  0
C  C90  1  0.43049257  0.84699921  0.15186454  1  0  -0.37673  0  3.672045  0  0  -0.455449  0  3.903265  0  0  -0.460309  0  3.911419  0  0  -0.238245  -0.45177  0  3.897549  0
C  C91  1  0.93049124  0.65300075  0.34813349  1  0  -0.376568  0  3.672108  0  0  -0.455351  0  3.903271  0  0  -0.460213  0  3.911429  0  0  -0.238203  -0.451666  0  3.897551  0
N  N92  1  0.30662010  0.96974700  0.53650471  1  0  -0.232554  0  3.445638  0  0  -0.147791  0  3.691868  0  0  -0.172048  0  3.71354  0  0  -0.244401  -0.131505  0  3.676806  0
N  N93  1  0.80661753  0.53025385  0.96349579  1  0  -0.232561  0  3.445603  0  0  -0.147706  0  3.691819  0  0  -0.171956  0  3.71349  0  0  -0.244366  -0.13142  0  3.676759  0
N  N94  1  0.69338250  0.03025505  0.46349639  1  0  -0.232679  0  3.445789  0  0  -0.147851  0  3.691941  0  0  -0.172107  0  3.71362  0  0  -0.244414  -0.131568  0  3.67688  0
N  N95  1  0.19338273  0.46974497  0.03650359  1  0  -0.232564  0  3.445621  0  0  -0.147736  0  3.691856  0  0  -0.171989  0  3.713531  0  0  -0.244371  -0.131451  0  3.676794  0
N  N96  1  0.38474100  0.79470085  0.43069417  1  0  -0.240014  0  3.397879  0  0  -0.153388  0  3.639747  0  0  -0.178136  0  3.657065  0  0  -0.24085  -0.136904  0  3.627653  0
N  N97  1  0.88473587  0.70530229  0.06930411  1  0  -0.239997  0  3.397868  0  0  -0.153533  0  3.639892  0  0  -0.178282  0  3.657205  0  0  -0.240795  -0.137049  0  3.627797  0
N  N98  1  0.61526043  0.20530121  0.56930837  1  0  -0.239887  0  3.397898  0  0  -0.15323  0  3.639738  0  0  -0.17798  0  3.657055  0  0  -0.240789  -0.136747  0  3.62764  0
N  N99  1  0.11525850  0.29469814  0.93069505  1  0  -0.240019  0  3.397864  0  0  -0.153416  0  3.639861  0  0  -0.178168  0  3.657177  0  0  -0.240777  -0.136932  0  3.627763  0
N  N100  1  0.62096820  0.87479877  0.66240319  1  0  -0.257257  0  3.285786  0  0  -0.178944  0  3.537247  0  0  -0.197109  0  3.55897  0  0  -0.275113  -0.166621  0  3.522869  0
N  N101  1  0.12095995  0.62520510  0.83759599  1  0  -0.257258  0  3.285743  0  0  -0.178961  0  3.537272  0  0  -0.197121  0  3.558993  0  0  -0.275178  -0.166638  0  3.522896  0
N  N102  1  0.37903441  0.12520410  0.33759816  1  0  -0.257152  0  3.285726  0  0  -0.178817  0  3.537233  0  0  -0.196975  0  3.558957  0  0  -0.275104  -0.166496  0  3.522855  0
N  N103  1  0.87903678  0.37479532  0.16240101  1  0  -0.257206  0  3.285886  0  0  -0.178902  0  3.537368  0  0  -0.197058  0  3.559091  0  0  -0.275134  -0.166582  0  3.52299  0
N  N104  1  0.43931774  0.05763620  0.68884501  1  0  -0.363464  0  2.998065  0  0  -0.337158  0  3.275574  0  0  -0.347802  0  3.284464  0  0  -0.296855  -0.330215  0  3.26974  0
N  N105  1  0.93932162  0.44236432  0.81115750  1  0  -0.36349  0  2.998031  0  0  -0.337109  0  3.275535  0  0  -0.347752  0  3.284427  0  0  -0.296781  -0.330163  0  3.269703  0
N  N106  1  0.56068133  0.94236505  0.31115440  1  0  -0.363426  0  2.99796  0  0  -0.33707  0  3.275465  0  0  -0.347714  0  3.284357  0  0  -0.29679  -0.330126  0  3.26963  0
N  N107  1  0.06068098  0.55763451  0.18884475  1  0  -0.363441  0  2.998068  0  0  -0.337114  0  3.275589  0  0  -0.347759  0  3.28448  0  0  -0.296806  -0.330169  0  3.269756  0
N  N108  1  0.09012278  0.78989212  0.64348957  1  0  0.693242  0  4.132798  0  0  0.729374  0  4.417364  0  0  0.75731  0  4.423977  0  0  0.097067  0.709224  0  4.412415  0
N  N109  1  0.59012510  0.71010607  0.85651143  1  0  0.693241  0  4.132844  0  0  0.729346  0  4.417455  0  0  0.757298  0  4.424055  0  0  0.097004  0.709195  0  4.412506  0
N  N110  1  0.90987865  0.21010831  0.35650959  1  0  0.693163  0  4.132812  0  0  0.729429  0  4.417206  0  0  0.757384  0  4.423815  0  0  0.097046  0.709281  0  4.412256  0
N  N111  1  0.40987280  0.28989275  0.14348723  1  0  0.69317  0  4.132944  0  0  0.729259  0  4.417551  0  0  0.757199  0  4.424163  0  0  0.09694  0.709107  0  4.4126  0
Cl  Cl112  1  0.80638110  0.53184154  0.59900735  1  0  -0.432352  0  0.990944  0  0  -0.372801  0  1.250048  0  0  -0.393363  0  1.232512  0  0  -0.237381  -0.359069  0  1.262258  0
Cl  Cl113  1  0.30638299  0.96815931  0.90099315  1  0  -0.432324  0  0.990967  0  0  -0.372774  0  1.250074  0  0  -0.393337  0  1.232538  0  0  -0.23736  -0.359043  0  1.262286  0
Cl  Cl114  1  0.19362150  0.46815890  0.40099253  1  0  -0.432312  0  0.990972  0  0  -0.372754  0  1.250081  0  0  -0.393318  0  1.232546  0  0  -0.237347  -0.359021  0  1.262291  0
Cl  Cl115  1  0.69362313  0.03184275  0.09900723  1  0  -0.432316  0  0.990971  0  0  -0.372754  0  1.250075  0  0  -0.393317  0  1.232539  0  0  -0.237358  -0.359022  0  1.262284  0
O  O116  1  0.18432396  0.88614430  0.38354674  1  0  -0.539285  0  1.9286  0  0  -0.497553  0  2.149768  0  0  -0.518573  0  2.143868  0  0  -0.282488  -0.483077  0  2.153443  0
O  O117  1  0.68431637  0.61385862  0.11645065  1  0  -0.539414  0  1.928559  0  0  -0.497555  0  2.149692  0  0  -0.518588  0  2.143813  0  0  -0.282457  -0.48307  0  2.153342  0
O  O118  1  0.81567864  0.11385534  0.61645577  1  0  -0.539354  0  1.928578  0  0  -0.497591  0  2.149731  0  0  -0.518616  0  2.143844  0  0  -0.282527  -0.483112  0  2.153396  0
O  O119  1  0.31568623  0.38613859  0.88354823  1  0  -0.539439  0  1.92855  0  0  -0.497589  0  2.149696  0  0  -0.518605  0  2.143797  0  0  -0.282488  -0.483106  0  2.153352  0
O  O120  1  0.57950502  0.70135276  0.47720717  1  0  -0.507502  0  1.997261  0  0  -0.457197  0  2.233729  0  0  -0.481905  0  2.226876  0  0  -0.267911  -0.440007  0  2.237812  0
O  O121  1  0.07949550  0.79865004  0.02278869  1  0  -0.50735  0  1.997308  0  0  -0.457118  0  2.233681  0  0  -0.481824  0  2.226826  0  0  -0.26786  -0.439929  0  2.237762  0
O  O122  1  0.42048466  0.29864205  0.52279815  1  0  -0.507498  0  1.997465  0  0  -0.457195  0  2.233885  0  0  -0.481899  0  2.227032  0  0  -0.267891  -0.440007  0  2.237968  0
O  O123  1  0.92048830  0.20135199  0.97720450  1  0  -0.507573  0  1.997304  0  0  -0.457266  0  2.23378  0  0  -0.48197  0  2.226925  0  0  -0.26797  -0.440077  0  2.237863  0
O  O124  1  0.01196643  0.77065885  0.71550335  1  0  -0.508476  0  1.859691  0  0  -0.477349  0  2.098795  0  0  -0.502248  0  2.092828  0  0  -0.201964  -0.458804  0  2.102021  0
O  O125  1  0.51197104  0.72933844  0.78449662  1  0  -0.508454  0  1.859718  0  0  -0.47731  0  2.098842  0  0  -0.502221  0  2.09288  0  0  -0.201933  -0.458763  0  2.102068  0
O  O126  1  0.98803382  0.22934239  0.28449678  1  0  -0.508519  0  1.85976  0  0  -0.47743  0  2.098823  0  0  -0.50234  0  2.092859  0  0  -0.201994  -0.458885  0  2.102048  0
O  O127  1  0.48802451  0.27066200  0.21550326  1  0  -0.508443  0  1.85968  0  0  -0.477288  0  2.098824  0  0  -0.502196  0  2.092867  0  0  -0.201879  -0.458739  0  2.102048  0
O  O128  1  0.23768400  0.79174915  0.64837746  1  0  -0.445224  0  1.779987  0  0  -0.439651  0  1.996981  0  0  -0.455493  0  1.993026  0  0  -0.182898  -0.427607  0  1.999312  0
O  O129  1  0.73768749  0.70824921  0.85162366  1  0  -0.445237  0  1.779914  0  0  -0.43967  0  1.996927  0  0  -0.455516  0  1.99297  0  0  -0.182878  -0.427624  0  1.999259  0
O  O130  1  0.76231625  0.20824967  0.35162119  1  0  -0.445177  0  1.779937  0  0  -0.439648  0  1.996884  0  0  -0.455499  0  1.992933  0  0  -0.182874  -0.427604  0  1.999217  0
O  O131  1  0.26230806  0.29175121  0.14837118  1  0  -0.445232  0  1.779976  0  0  -0.43965  0  1.997001  0  0  -0.455493  0  1.993049  0  0  -0.182872  -0.427604  0  1.999331  0
O  O132  1  0.01665939  0.80568232  0.57124798  1  0  -0.447207  0  1.734902  0  0  -0.437743  0  1.943461  0  0  -0.45152  0  1.937526  0  0  -0.185438  -0.427345  0  1.947279  0
O  O133  1  0.51666178  0.69431902  0.92875252  1  0  -0.447216  0  1.734982  0  0  -0.437714  0  1.943521  0  0  -0.451504  0  1.937599  0  0  -0.185419  -0.427325  0  1.947357  0
O  O134  1  0.98334204  0.19431731  0.42875021  1  0  -0.447144  0  1.734871  0  0  -0.437731  0  1.943416  0  0  -0.451505  0  1.937472  0  0  -0.185416  -0.427335  0  1.947237  0
O  O135  1  0.48334082  0.30568142  0.07124807  1  0  -0.447154  0  1.734969  0  0  -0.437702  0  1.943598  0  0  -0.451477  0  1.937664  0  0  -0.185419  -0.427312  0  1.947433  0
