# generated using pymatgen
data_H14PbC13(IN)2
_symmetry_space_group_name_H-M   'P 1'
_cell_length_a   4.52998945
_cell_length_b   11.51613966
_cell_length_c   15.27703469
_cell_angle_alpha   90.00529214
_cell_angle_beta   89.99992083
_cell_angle_gamma   96.16353686
_symmetry_Int_Tables_number   1
_chemical_formula_structural   H14PbC13(IN)2
_chemical_formula_sum   'H28 Pb2 C26 I4 N4'
_cell_volume   792.36530444
_cell_formula_units_Z   2
loop_
 _symmetry_equiv_pos_site_id
 _symmetry_equiv_pos_as_xyz
  1  'x, y, z'
loop_
 _atom_site_type_symbol
 _atom_site_label
 _atom_site_symmetry_multiplicity
 _atom_site_fract_x
 _atom_site_fract_y
 _atom_site_fract_z
 _atom_site_occupancy
 _atom_site_hle17_bader_spin_density
 _atom_site_hle17_ddec_charge
 _atom_site_hle17_ddec_spin_density
 _atom_site_hle17_ddec_sum_bond_order
 _atom_site_hle17_magmom
 _atom_site_hse06_10hf_bader_spin_density
 _atom_site_hse06_10hf_ddec_charge
 _atom_site_hse06_10hf_ddec_spin_density
 _atom_site_hse06_10hf_ddec_sum_bond_order
 _atom_site_hse06_10hf_magmom
 _atom_site_hse06_bader_spin_density
 _atom_site_hse06_ddec_charge
 _atom_site_hse06_ddec_spin_density
 _atom_site_hse06_ddec_sum_bond_order
 _atom_site_hse06_magmom
 _atom_site_pbe_bader_spin_density
 _atom_site_pbe_cm5_charge
 _atom_site_pbe_ddec_charge
 _atom_site_pbe_ddec_spin_density
 _atom_site_pbe_ddec_sum_bond_order
 _atom_site_pbe_magmom
H  H0  1  0.92859406  0.06364011  0.43191666  1  0  0.059947  0  0.975378  0  0  0.066486  0  1.04671  0  0  0.06894  0  1.044545  0  0  0.098531  0.064678  0  1.048276  0
H  H1  1  0.07087926  0.93641609  0.93204321  1  0  0.059968  0  0.976313  0  0  0.066573  0  1.047557  0  0  0.069011  0  1.045381  0  0  0.098348  0.064807  0  1.049108  0
H  H2  1  0.07130750  0.93632976  0.56816958  1  0  0.059972  0  0.975672  0  0  0.066548  0  1.046971  0  0  0.069061  0  1.044752  0  0  0.09843  0.064727  0  1.048565  0
H  H3  1  0.92941829  0.06363086  0.06788593  1  0  0.060082  0  0.975769  0  0  0.066734  0  1.046947  0  0  0.06916  0  1.044815  0  0  0.098484  0.064939  0  1.048491  0
H  H4  1  0.68719484  0.09901666  0.57510734  1  0  0.104462  0  0.958046  0  0  0.113047  0  1.023095  0  0  0.116616  0  1.021806  0  0  0.09687  0.110489  0  1.024171  0
H  H5  1  0.31259784  0.90108103  0.07518066  1  0  0.10428  0  0.95878  0  0  0.11288  0  1.023795  0  0  0.116454  0  1.022489  0  0  0.096713  0.110294  0  1.024903  0
H  H6  1  0.31358349  0.90095463  0.42513206  1  0  0.104345  0  0.957469  0  0  0.112997  0  1.022538  0  0  0.116561  0  1.02123  0  0  0.096828  0.110457  0  1.023604  0
H  H7  1  0.68780526  0.09902187  0.92473278  1  0  0.104292  0  0.958355  0  0  0.112787  0  1.023469  0  0  0.116406  0  1.022106  0  0  0.096716  0.110209  0  1.024584  0
H  H8  1  0.13828127  0.44847121  0.57005203  1  0  0.100291  0  0.972528  0  0  0.107177  0  1.040836  0  0  0.110543  0  1.040041  0  0  0.094913  0.104779  0  1.041549  0
H  H9  1  0.86231656  0.55149647  0.07004550  1  0  0.10032  0  0.972484  0  0  0.107222  0  1.040763  0  0  0.110586  0  1.039967  0  0  0.094959  0.104827  0  1.041471  0
H  H10  1  0.86212696  0.55155224  0.42993799  1  0  0.100218  0  0.972256  0  0  0.107068  0  1.040636  0  0  0.110443  0  1.039811  0  0  0.094857  0.104668  0  1.041366  0
H  H11  1  0.13812221  0.44859947  0.92995565  1  0  0.100307  0  0.972544  0  0  0.106909  0  1.04124  0  0  0.11027  0  1.040429  0  0  0.094608  0.10451  0  1.041954  0
H  H12  1  0.36509202  0.39819409  0.42705710  1  0  0.063173  0  0.958864  0  0  0.069771  0  1.030262  0  0  0.072634  0  1.027372  0  0  0.099911  0.06768  0  1.032368  0
H  H13  1  0.63509196  0.60175825  0.92712404  1  0  0.063081  0  0.958694  0  0  0.069408  0  1.030383  0  0  0.072258  0  1.027511  0  0  0.099878  0.067324  0  1.032483  0
H  H14  1  0.63433862  0.60184707  0.57276339  1  0  0.062962  0  0.958857  0  0  0.069525  0  1.030232  0  0  0.072399  0  1.027334  0  0  0.099943  0.067377  0  1.032391  0
H  H15  1  0.36557299  0.39823479  0.07284372  1  0  0.063217  0  0.958894  0  0  0.069726  0  1.030283  0  0  0.072586  0  1.027395  0  0  0.099913  0.067637  0  1.032387  0
H  H16  1  0.51537220  0.25549119  0.66897061  1  0  0.080069  0  0.949718  0  0  0.096507  0  1.013848  0  0  0.097507  0  1.014449  0  0  0.08736  0.095759  0  1.01354  0
H  H17  1  0.48488378  0.74449880  0.16900695  1  0  0.080267  0  0.950107  0  0  0.096626  0  1.014166  0  0  0.097641  0  1.014772  0  0  0.087263  0.09585  0  1.013859  0
H  H18  1  0.48501053  0.74451128  0.33105476  1  0  0.080215  0  0.949742  0  0  0.096571  0  1.013952  0  0  0.097595  0  1.014546  0  0  0.087357  0.095805  0  1.013635  0
H  H19  1  0.51543041  0.25559357  0.83101580  1  0  0.080151  0  0.94957  0  0  0.096448  0  1.013823  0  0  0.097451  0  1.014376  0  0  0.087252  0.095693  0  1.013536  0
H  H20  1  0.70287418  0.39911736  0.66854088  1  0  0.074742  0  0.950008  0  0  0.087487  0  1.021699  0  0  0.089091  0  1.020743  0  0  0.082057  0.086292  0  1.02247  0
H  H21  1  0.29730391  0.60089526  0.16855431  1  0  0.074932  0  0.950051  0  0  0.087715  0  1.021559  0  0  0.089348  0  1.020588  0  0  0.082056  0.086495  0  1.022336  0
H  H22  1  0.29744480  0.60090254  0.33151002  1  0  0.074671  0  0.950065  0  0  0.087458  0  1.021698  0  0  0.089089  0  1.020726  0  0  0.082019  0.086234  0  1.022482  0
H  H23  1  0.70308685  0.39919454  0.83141345  1  0  0.074878  0  0.950256  0  0  0.08752  0  1.021959  0  0  0.089123  0  1.020967  0  0  0.082135  0.086321  0  1.022743  0
H  H24  1  0.94099998  0.18387760  0.74999804  1  0  0.063411  0  0.970496  0  0  0.077184  0  1.043677  0  0  0.078772  0  1.043204  0  0  0.069459  0.075954  0  1.044176  0
H  H25  1  0.05917727  0.81611601  0.25005089  1  0  0.063788  0  0.970211  0  0  0.07758  0  1.043602  0  0  0.079173  0  1.043108  0  0  0.069617  0.076332  0  1.044134  0
H  H26  1  0.12616023  0.32781397  0.74996844  1  0  0.063794  0  0.965817  0  0  0.08315  0  1.029328  0  0  0.083904  0  1.030082  0  0  0.078114  0.082528  0  1.028916  0
H  H27  1  0.87421817  0.67213960  0.25005561  1  0  0.063793  0  0.965787  0  0  0.083456  0  1.029036  0  0  0.084162  0  1.029888  0  0  0.078269  0.082869  0  1.028588  0
Pb  Pb28  1  0.20436958  0.20843264  0.24988569  1  0  0.879302  0  1.856005  0  0  0.69734  0  2.308673  0  0  0.753121  0  2.277651  0  0  0.356139  0.658663  0  2.329458  0
Pb  Pb29  1  0.79270680  0.79121061  0.75011023  1  0  0.879621  0  1.854813  0  0  0.697507  0  2.307316  0  0  0.753395  0  2.276155  0  0  0.356518  0.659198  0  2.327382  0
C  C30  1  0.97337522  0.14747923  0.46539293  1  0  0.119857  0  3.756155  0  0  0.091943  0  4.005768  0  0  0.099038  0  4.025101  0  0  0.036636  0.087464  0  3.992489  0
C  C31  1  0.02624686  0.85258140  0.96551383  1  0  0.119262  0  3.756122  0  0  0.091339  0  4.005622  0  0  0.098463  0  4.02497  0  0  0.036479  0.086791  0  3.992374  0
C  C32  1  0.02655814  0.85251859  0.53465600  1  0  0.119566  0  3.755157  0  0  0.091718  0  4.004735  0  0  0.098755  0  4.024055  0  0  0.036429  0.087222  0  3.991526  0
C  C33  1  0.97409602  0.14746994  0.03442251  1  0  0.119085  0  3.75625  0  0  0.091088  0  4.005814  0  0  0.098198  0  4.025147  0  0  0.03624  0.086603  0  3.992548  0
C  C34  1  0.83755952  0.16786854  0.54472793  1  0  -0.168861  0  3.698997  0  0  -0.185889  0  3.942854  0  0  -0.193954  0  3.963813  0  0  -0.089479  -0.180739  0  3.928808  0
C  C35  1  0.16229146  0.83219627  0.04481202  1  0  -0.168278  0  3.697721  0  0  -0.185278  0  3.941673  0  0  -0.193356  0  3.962577  0  0  -0.089441  -0.180086  0  3.927684  0
C  C36  1  0.16285271  0.83212872  0.45539496  1  0  -0.168595  0  3.697251  0  0  -0.185862  0  3.941496  0  0  -0.193907  0  3.962449  0  0  -0.089488  -0.180733  0  3.927455  0
C  C37  1  0.83811240  0.16788481  0.95512760  1  0  -0.167938  0  3.698015  0  0  -0.184922  0  3.942088  0  0  -0.193014  0  3.962999  0  0  -0.089035  -0.179753  0  3.928084  0
C  C38  1  0.88884259  0.27817659  0.58403187  1  0  0.167347  0  3.702028  0  0  0.185325  0  3.932962  0  0  0.190848  0  3.954932  0  0  0.016229  0.18187  0  3.917872  0
C  C39  1  0.11130146  0.72186700  0.08408812  1  0  0.167641  0  3.701264  0  0  0.18535  0  3.932415  0  0  0.190973  0  3.954279  0  0  0.016032  0.18181  0  3.917391  0
C  C40  1  0.11152549  0.72186168  0.41601641  1  0  0.167044  0  3.702243  0  0  0.185152  0  3.933075  0  0  0.190689  0  3.95506  0  0  0.016148  0.181685  0  3.917966  0
C  C41  1  0.88910771  0.27824203  0.91589797  1  0  0.166953  0  3.701923  0  0  0.184835  0  3.932893  0  0  0.190325  0  3.954879  0  0  0.015857  0.181339  0  3.91786  0
C  C42  1  0.08737936  0.36164546  0.54166172  1  0  -0.177437  0  3.703582  0  0  -0.189675  0  3.942934  0  0  -0.198359  0  3.964702  0  0  -0.090545  -0.184089  0  3.928262  0
C  C43  1  0.91293642  0.63835215  0.04169836  1  0  -0.177721  0  3.703493  0  0  -0.189919  0  3.942853  0  0  -0.198629  0  3.964597  0  0  -0.090665  -0.18431  0  3.928204  0
C  C44  1  0.91281649  0.63839270  0.45832241  1  0  -0.177458  0  3.70413  0  0  -0.189741  0  3.943401  0  0  -0.198419  0  3.965185  0  0  -0.090343  -0.184152  0  3.928695  0
C  C45  1  0.08754369  0.36173333  0.95828970  1  0  -0.177129  0  3.703789  0  0  -0.189218  0  3.943166  0  0  -0.197886  0  3.964923  0  0  -0.090107  -0.183615  0  3.928507  0
C  C46  1  0.21457268  0.33409191  0.46248943  1  0  0.124957  0  3.756844  0  0  0.095  0  4.009266  0  0  0.102465  0  4.028361  0  0  0.037689  0.090227  0  3.996157  0
C  C47  1  0.78548970  0.66590066  0.96256541  1  0  0.125309  0  3.756659  0  0  0.095544  0  4.009071  0  0  0.103011  0  4.028192  0  0  0.037888  0.090757  0  3.995983  0
C  C48  1  0.78512977  0.66595030  0.53742467  1  0  0.125301  0  3.757864  0  0  0.095457  0  4.01011  0  0  0.102901  0  4.029225  0  0  0.037744  0.090724  0  3.997035  0
C  C49  1  0.21502977  0.33413421  0.03740890  1  0  0.124691  0  3.757227  0  0  0.094999  0  4.009376  0  0  0.102466  0  4.028482  0  0  0.037438  0.090222  0  3.996257  0
C  C50  1  0.73562252  0.30581017  0.66735441  1  0  -0.165553  0  3.703718  0  0  -0.206142  0  3.948042  0  0  -0.208035  0  3.960212  0  0  -0.165874  -0.204688  0  3.939409  0
C  C51  1  0.26458985  0.69420762  0.16739870  1  0  -0.16639  0  3.704328  0  0  -0.206506  0  3.948428  0  0  -0.208492  0  3.960676  0  0  -0.1658  -0.204945  0  3.939707  0
C  C52  1  0.26472239  0.69421586  0.33268405  1  0  -0.165382  0  3.703731  0  0  -0.205749  0  3.948141  0  0  -0.207713  0  3.960418  0  0  -0.165841  -0.204218  0  3.939397  0
C  C53  1  0.73572490  0.30587864  0.83260638  1  0  -0.165979  0  3.704304  0  0  -0.2061  0  3.948071  0  0  -0.207919  0  3.960157  0  0  -0.166016  -0.204641  0  3.939447  0
C  C54  1  0.90656116  0.27696539  0.74997616  1  0  -0.094422  0  3.658267  0  0  -0.132935  0  3.911932  0  0  -0.134522  0  3.925032  0  0  -0.170966  -0.131606  0  3.902707  0
C  C55  1  0.09374546  0.72304140  0.25005444  1  0  -0.094839  0  3.65811  0  0  -0.134082  0  3.912714  0  0  -0.135604  0  3.925884  0  0  -0.171395  -0.132814  0  3.903448  0
I  I56  1  0.63539235  0.00700133  0.24972394  1  0  -0.498446  0  1.034995  0  0  -0.426103  0  1.350625  0  0  -0.449871  0  1.332275  0  0  -0.157074  -0.409315  0  1.363223  0
I  I57  1  0.36220847  0.99268766  0.75021896  1  0  -0.498389  0  1.034511  0  0  -0.426095  0  1.349995  0  0  -0.449908  0  1.331681  0  0  -0.15734  -0.409445  0  1.362464  0
I  I58  1  0.74003892  0.40843566  0.24990546  1  0  -0.484687  0  1.041986  0  0  -0.413867  0  1.362266  0  0  -0.436923  0  1.344406  0  0  -0.151848  -0.39759  0  1.374564  0
I  I59  1  0.25740341  0.59117289  0.75016573  1  0  -0.485155  0  1.043304  0  0  -0.414014  0  1.363143  0  0  -0.437123  0  1.345281  0  0  -0.151858  -0.397851  0  1.375292  0
N  N60  1  0.15718298  0.22909119  0.42397262  1  0  -0.347305  0  3.247732  0  0  -0.273339  0  3.500227  0  0  -0.294519  0  3.523986  0  0  -0.315821  -0.258936  0  3.483711  0
N  N61  1  0.84250147  0.77093484  0.92409281  1  0  -0.347111  0  3.247916  0  0  -0.273039  0  3.500183  0  0  -0.294238  0  3.523937  0  0  -0.315778  -0.258673  0  3.483739  0
N  N62  1  0.84229948  0.77094565  0.57596308  1  0  -0.347364  0  3.247143  0  0  -0.273482  0  3.499594  0  0  -0.294665  0  3.523388  0  0  -0.315841  -0.259118  0  3.483113  0
N  N63  1  0.15788388  0.22909383  0.07586055  1  0  -0.347126  0  3.248048  0  0  -0.273199  0  3.500413  0  0  -0.294376  0  3.524169  0  0  -0.31577  -0.258794  0  3.483906  0
