# generated using pymatgen
data_CoH18C27SNClO6
_symmetry_space_group_name_H-M   'P 1'
_cell_length_a   9.39995191
_cell_length_b   11.30428755
_cell_length_c   12.79322412
_cell_angle_alpha   102.60118526
_cell_angle_beta   107.60136286
_cell_angle_gamma   107.24536944
_symmetry_Int_Tables_number   1
_chemical_formula_structural   CoH18C27SNClO6
_chemical_formula_sum   'Co2 H36 C54 S2 N2 Cl2 O12'
_cell_volume   1164.61911171
_cell_formula_units_Z   2
loop_
 _symmetry_equiv_pos_site_id
 _symmetry_equiv_pos_as_xyz
  1  'x, y, z'
loop_
 _atom_site_type_symbol
 _atom_site_label
 _atom_site_symmetry_multiplicity
 _atom_site_fract_x
 _atom_site_fract_y
 _atom_site_fract_z
 _atom_site_occupancy
 _atom_site_pbe_bader_spin_density
 _atom_site_pbe_cm5_charge
 _atom_site_pbe_ddec_charge
 _atom_site_pbe_ddec_spin_density
 _atom_site_pbe_ddec_sum_bond_order
 _atom_site_pbe_magmom
Co  Co0  1  0.11962538  0.59301525  0.54659331  1  0  0.564451  0.562097  0  3.232801  0
Co  Co1  1  0.88036669  0.40698221  0.45340456  1  0  0.564375  0.562054  0  3.232644  0
H  H2  1  0.38425144  0.75395301  0.48726018  1  0  0.110981  0.083644  0  1.015787  0
H  H3  1  0.61574340  0.24603164  0.51273664  1  0  0.110893  0.083645  0  1.015851  0
H  H4  1  0.60190188  0.97875884  0.57144075  1  0  0.09712  0.103954  0  1.039072  0
H  H5  1  0.39808881  0.02122878  0.42855806  1  0  0.097129  0.103988  0  1.038968  0
H  H6  1  0.48625594  0.03064927  0.87680594  1  0  0.105203  0.116448  0  1.038152  0
H  H7  1  0.51373861  0.96933244  0.12319415  1  0  0.105185  0.116366  0  1.03817  0
H  H8  1  0.27671528  0.80626941  0.78025499  1  0  0.119409  0.098058  0  1.00621  0
H  H9  1  0.72327222  0.19371624  0.21974039  1  0  0.119397  0.098012  0  1.006282  0
H  H10  1  0.73529644  0.19484097  0.71970306  1  0  0.097418  0.095922  0  1.031945  0
H  H11  1  0.26470416  0.80514172  0.28029777  1  0  0.097452  0.096115  0  1.031946  0
H  H12  1  0.69858874  0.20533268  0.95256641  1  0  0.103764  0.112214  0  1.020939  0
H  H13  1  0.30139652  0.79465988  0.04743293  1  0  0.103742  0.112202  0  1.021054  0
H  H14  1  0.89134695  0.39877871  0.78445277  1  0  0.098778  0.10172  0  1.018278  0
H  H15  1  0.10864946  0.60120691  0.21553988  1  0  0.098815  0.101782  0  1.018439  0
H  H16  1  0.88262402  0.38467792  0.11697250  1  0  0.102815  0.111509  0  1.002154  0
H  H17  1  0.11737286  0.61531560  0.88302646  1  0  0.102817  0.111567  0  1.002145  0
H  H18  1  0.94717159  0.19904493  0.18034697  1  0  0.110182  0.117735  0  1.021152  0
H  H19  1  0.05283589  0.80096136  0.81965364  1  0  0.110169  0.117724  0  1.021154  0
H  H20  1  0.02873626  0.10179146  0.02898913  1  0  0.106801  0.108396  0  1.034664  0
H  H21  1  0.97127105  0.89821681  0.97101182  1  0  0.10689  0.108621  0  1.034676  0
H  H22  1  0.52871500  0.36416849  0.24092130  1  0  0.111019  0.122013  0  1.046668  0
H  H23  1  0.47129088  0.63584372  0.75908322  1  0  0.111032  0.121951  0  1.046797  0
H  H24  1  0.44202095  0.47033670  0.38809611  1  0  0.106049  0.113537  0  1.003995  0
H  H25  1  0.55798124  0.52967945  0.61190679  1  0  0.106105  0.113614  0  1.004084  0
H  H26  1  0.02527403  0.07396989  0.81844952  1  0  0.109972  0.116624  0  0.995743  0
H  H27  1  0.97474132  0.92602952  0.18155933  1  0  0.109958  0.116585  0  0.995776  0
H  H28  1  0.93416427  0.17469326  0.66843664  1  0  0.106566  0.107657  0  1.016842  0
H  H29  1  0.06583568  0.82529733  0.33157025  1  0  0.106559  0.107697  0  1.016861  0
H  H30  1  0.40343267  0.49065901  0.81990566  1  0  0.104696  0.103616  0  1.046053  0
H  H31  1  0.59655776  0.50935126  0.18009351  1  0  0.104653  0.103512  0  1.04615  0
H  H32  1  0.50023155  0.38608194  0.96477277  1  0  0.1088  0.114503  0  1.020371  0
H  H33  1  0.49977687  0.61392631  0.03522530  1  0  0.108827  0.114527  0  1.020359  0
H  H34  1  0.96959221  0.15306589  0.38928979  1  0  0.106888  0.126903  0  1.03823  0
H  H35  1  0.03041526  0.84694040  0.61071004  1  0  0.106849  0.126815  0  1.038353  0
H  H36  1  0.72677057  0.96750602  0.36559075  1  0  0.09835  0.106692  0  1.048906  0
H  H37  1  0.27323597  0.03249831  0.63441162  1  0  0.098354  0.106672  0  1.048946  0
C  C38  1  0.41062385  0.81944491  0.57314223  1  0  0.038252  0.08009  0  3.9585  0
C  C39  1  0.58936575  0.18054273  0.42685947  1  0  0.038256  0.080104  0  3.958518  0
C  C40  1  0.53171569  0.94509766  0.62085107  1  0  -0.095314  -0.200104  0  3.973618  0
C  C41  1  0.46827565  0.05488898  0.37914691  1  0  -0.095314  -0.200232  0  3.973696  0
C  C42  1  0.56388192  0.02809748  0.73211119  1  0  0.000323  0.145664  0  4.036069  0
C  C43  1  0.43610862  0.97188520  0.26788273  1  0  0.00031  0.145788  0  4.035863  0
C  C44  1  0.46923897  0.97457790  0.79013237  1  0  -0.088806  -0.180691  0  3.929185  0
C  C45  1  0.53075348  0.02540874  0.20986664  1  0  -0.088788  -0.180738  0  3.929134  0
C  C46  1  0.35069052  0.84823470  0.73640026  1  0  0.044471  0.091757  0  3.931207  0
C  C47  1  0.64930239  0.15175291  0.26359591  1  0  0.044488  0.091919  0  3.931065  0
C  C48  1  0.68700170  0.16104354  0.78036870  1  0  -0.097638  -0.148175  0  3.97953  0
C  C49  1  0.31299765  0.83894115  0.21964006  1  0  -0.097621  -0.148362  0  3.979162  0
C  C50  1  0.74535008  0.24167194  0.89222948  1  0  -0.080257  -0.102398  0  3.953323  0
C  C51  1  0.25464330  0.75831665  0.10776620  1  0  -0.080249  -0.102358  0  3.95284  0
C  C52  1  0.87136441  0.37339214  0.94363366  1  0  -0.012623  0.103602  0  4.030522  0
C  C53  1  0.12862373  0.62659251  0.05636011  1  0  -0.012506  0.103824  0  4.03046  0
C  C54  1  0.93897935  0.44190145  0.87904309  1  0  -0.090104  -0.118577  0  3.961829  0
C  C55  1  0.06101915  0.55808616  0.12095744  1  0  -0.090364  -0.119082  0  3.962011  0
C  C56  1  0.93462895  0.43552371  0.06571983  1  0  -0.088734  -0.124781  0  3.961763  0
C  C57  1  0.06536205  0.56446686  0.93427805  1  0  -0.088982  -0.12531  0  3.962391  0
C  C58  1  0.12892587  0.40584291  0.37656513  1  0  0.217233  0.529694  0  4.144965  0
C  C59  1  0.87106980  0.59416437  0.62343072  1  0  0.217277  0.529754  0  4.144483  0
C  C60  1  0.18811710  0.34380292  0.29261792  1  0  -0.010229  -0.027789  0  3.97913  0
C  C61  1  0.81188730  0.65621321  0.70738077  1  0  -0.010203  -0.027926  0  3.979252  0
C  C62  1  0.07382547  0.23709553  0.19272055  1  0  -0.076225  -0.080578  0  3.940304  0
C  C63  1  0.92617738  0.76291273  0.80727864  1  0  -0.076253  -0.080495  0  3.940634  0
C  C64  1  0.12031494  0.18106963  0.10778450  1  0  -0.081903  -0.09049  0  3.978673  0
C  C65  1  0.87969952  0.81893960  0.89221509  1  0  -0.081967  -0.090669  0  3.979146  0
C  C66  1  0.28370184  0.22952826  0.12466347  1  0  -0.017531  -0.072138  0  3.967534  0
C  C67  1  0.71630462  0.77049676  0.87534362  1  0  -0.01748  -0.072299  0  3.967637  0
C  C68  1  0.40073596  0.33164077  0.22599121  1  0  -0.079061  -0.08829  0  3.944227  0
C  C69  1  0.59926158  0.66837735  0.77400712  1  0  -0.079153  -0.088231  0  3.94382  0
C  C70  1  0.35197685  0.38976516  0.30937505  1  0  -0.074053  -0.074755  0  3.916371  0
C  C71  1  0.64802359  0.61024508  0.69062163  1  0  -0.073992  -0.07466  0  3.916153  0
C  C72  1  0.26638986  0.22773010  0.90214502  1  0  -0.017824  -0.072576  0  3.96869  0
C  C73  1  0.73362716  0.77227518  0.09785360  1  0  -0.017794  -0.072608  0  3.968782  0
C  C74  1  0.10683076  0.16616005  0.81945184  1  0  -0.076615  -0.081275  0  3.957315  0
C  C75  1  0.89318149  0.83384228  0.18054438  1  0  -0.076601  -0.081175  0  3.957567  0
C  C76  1  0.05581099  0.22273147  0.73642770  1  0  -0.072641  -0.077574  0  3.946323  0
C  C77  1  0.94418745  0.77726993  0.26357467  1  0  -0.072648  -0.077623  0  3.946334  0
C  C78  1  0.16114743  0.34125751  0.73782943  1  0  -0.007757  -0.024525  0  3.966882  0
C  C79  1  0.83885231  0.65874193  0.26217677  1  0  -0.007703  -0.024626  0  3.96665  0
C  C80  1  0.32119492  0.40032985  0.82058451  1  0  -0.077088  -0.080313  0  3.948252  0
C  C81  1  0.67879726  0.59967252  0.17940885  1  0  -0.077116  -0.08015  0  3.948134  0
C  C82  1  0.37496854  0.34312065  0.90206614  1  0  -0.080718  -0.089196  0  3.968724  0
C  C83  1  0.62503844  0.65688464  0.09793026  1  0  -0.080784  -0.089296  0  3.968851  0
C  C84  1  0.10336819  0.40295424  0.65072150  1  0  0.216783  0.528914  0  4.134795  0
C  C85  1  0.89662277  0.59704323  0.34927848  1  0  0.216768  0.529024  0  4.135019  0
C  C86  1  0.13525104  0.10210943  0.51214017  1  0  0.006006  0.126702  0  4.057697  0
C  C87  1  0.86475884  0.89789489  0.48786138  1  0  0.006076  0.126844  0  4.057531  0
C  C88  1  0.98272175  0.08549286  0.43686218  1  0  -0.094392  -0.127522  0  3.968401  0
C  C89  1  0.01729499  0.91451639  0.56314573  1  0  -0.094352  -0.127507  0  3.968635  0
C  C90  1  0.84634211  0.98261429  0.42501795  1  0  -0.097397  -0.138026  0  3.995554  0
C  C91  1  0.15366983  0.01739199  0.57498208  1  0  -0.097489  -0.138037  0  3.995756  0
S  S92  1  0.33842008  0.16084177  0.01108385  1  0  0.476711  0.952847  0  5.742398  0
S  S93  1  0.66157993  0.83916060  0.98891436  1  0  0.47669  0.952763  0  5.742546  0
N  N94  1  0.31935017  0.77052983  0.62905125  1  0  -0.325691  -0.179674  0  3.51011  0
N  N95  1  0.68063794  0.22946172  0.37094540  1  0  -0.325629  -0.179792  0  3.509884  0
Cl  Cl96  1  0.30544131  0.23392160  0.53204173  1  0  0.014999  -0.064779  0  1.592285  0
Cl  Cl97  1  0.69456905  0.76608371  0.46796168  1  0  0.01497  -0.06482  0  1.592252  0
O  O98  1  0.22047868  0.51860364  0.45420951  1  0  -0.28324  -0.447478  0  2.425112  0
O  O99  1  0.77950748  0.48139085  0.54578101  1  0  -0.283267  -0.447481  0  2.424744  0
O  O100  1  0.98341912  0.34043570  0.36272015  1  0  -0.283948  -0.464728  0  2.552261  0
O  O101  1  0.01658278  0.65957059  0.63727766  1  0  -0.283968  -0.464744  0  2.552287  0
O  O102  1  0.51393489  0.21367942  0.05212048  1  0  -0.300901  -0.513841  0  2.22236  0
O  O103  1  0.48608338  0.78634461  0.94789216  1  0  -0.300863  -0.513723  0  2.22282  0
O  O104  1  0.24690257  0.01933266  0.96529694  1  0  -0.307609  -0.514046  0  2.190448  0
O  O105  1  0.75312371  0.98068250  0.03471655  1  0  -0.307682  -0.514036  0  2.189787  0
O  O106  1  0.19791573  0.51642576  0.66030706  1  0  -0.281675  -0.443749  0  2.443537  0
O  O107  1  0.80207234  0.48357268  0.33968620  1  0  -0.281662  -0.443786  0  2.443483  0
O  O108  1  0.96065911  0.33813444  0.57124337  1  0  -0.283846  -0.454048  0  2.497209  0
O  O109  1  0.03932596  0.66186008  0.42875317  1  0  -0.283826  -0.454099  0  2.497345  0
