# generated using pymatgen
data_NaZnP2H5(CO3)2
_symmetry_space_group_name_H-M   'P 1'
_cell_length_a   5.28987564
_cell_length_b   8.57316339
_cell_length_c   16.11433956
_cell_angle_alpha   89.99996411
_cell_angle_beta   89.99989042
_cell_angle_gamma   90.97302072
_symmetry_Int_Tables_number   1
_chemical_formula_structural   NaZnP2H5(CO3)2
_chemical_formula_sum   'Na4 Zn4 P8 H20 C8 O24'
_cell_volume   730.69552063
_cell_formula_units_Z   4
loop_
 _symmetry_equiv_pos_site_id
 _symmetry_equiv_pos_as_xyz
  1  'x, y, z'
loop_
 _atom_site_type_symbol
 _atom_site_label
 _atom_site_symmetry_multiplicity
 _atom_site_fract_x
 _atom_site_fract_y
 _atom_site_fract_z
 _atom_site_occupancy
 _atom_site_hle17_bader_spin_density
 _atom_site_hle17_ddec_charge
 _atom_site_hle17_ddec_spin_density
 _atom_site_hle17_ddec_sum_bond_order
 _atom_site_hle17_magmom
 _atom_site_hse06_10hf_bader_spin_density
 _atom_site_hse06_10hf_ddec_charge
 _atom_site_hse06_10hf_ddec_spin_density
 _atom_site_hse06_10hf_ddec_sum_bond_order
 _atom_site_hse06_10hf_magmom
 _atom_site_hse06_bader_spin_density
 _atom_site_hse06_ddec_charge
 _atom_site_hse06_ddec_spin_density
 _atom_site_hse06_ddec_sum_bond_order
 _atom_site_hse06_magmom
 _atom_site_pbe_bader_spin_density
 _atom_site_pbe_cm5_charge
 _atom_site_pbe_ddec_charge
 _atom_site_pbe_ddec_spin_density
 _atom_site_pbe_ddec_sum_bond_order
 _atom_site_pbe_magmom
Na  Na0  1  0.42144079  0.67567624  0.85108523  1  0  0.922562  0  0.364338  0  0  0.891395  0  0.496658  0  0  0.898826  0  0.478798  0  0  0.710106  0.8856  0  0.509792  0
Na  Na1  1  0.07856103  0.82432753  0.35108651  1  0  0.922562  0  0.364335  0  0  0.891399  0  0.496627  0  0  0.898839  0  0.478769  0  0  0.710094  0.885603  0  0.509759  0
Na  Na2  1  0.57855993  0.32431972  0.14891251  1  0  0.922552  0  0.364367  0  0  0.891368  0  0.49671  0  0  0.898804  0  0.478845  0  0  0.710102  0.885565  0  0.509841  0
Na  Na3  1  0.92143814  0.17568242  0.64891185  1  0  0.922552  0  0.364383  0  0  0.891367  0  0.496727  0  0  0.898803  0  0.478863  0  0  0.71011  0.885574  0  0.509863  0
Zn  Zn4  1  0.91346220  0.89003220  0.81209868  1  0  1.212285  0  1.829689  0  0  1.054162  0  2.313963  0  0  1.098272  0  2.247563  0  0  0.725627  1.022816  0  2.360018  0
Zn  Zn5  1  0.58653471  0.60996777  0.31210004  1  0  1.212227  0  1.82973  0  0  1.054113  0  2.313988  0  0  1.098223  0  2.247594  0  0  0.725601  1.022767  0  2.360039  0
Zn  Zn6  1  0.08653872  0.10997192  0.18789782  1  0  1.212253  0  1.829684  0  0  1.054192  0  2.313903  0  0  1.098301  0  2.247503  0  0  0.72567  1.022846  0  2.359954  0
Zn  Zn7  1  0.41346034  0.39002818  0.68790081  1  0  1.212274  0  1.8296  0  0  1.054184  0  2.313797  0  0  1.098294  0  2.247399  0  0  0.725711  1.02284  0  2.359859  0
P  P8  1  0.88863511  0.71941523  0.97975809  1  0  1.509742  0  4.764673  0  0  1.360793  0  5.264214  0  0  1.408295  0  5.226655  0  0  0.340067  1.327658  0  5.289687  0
P  P9  1  0.61136445  0.78058805  0.47976061  1  0  1.50972  0  4.764889  0  0  1.360778  0  5.264412  0  0  1.408282  0  5.226858  0  0  0.340049  1.327634  0  5.289907  0
P  P10  1  0.11139394  0.28057959  0.02024338  1  0  1.50987  0  4.764744  0  0  1.360955  0  5.264258  0  0  1.408458  0  5.226699  0  0  0.340099  1.327825  0  5.28971  0
P  P11  1  0.38860261  0.21942303  0.52024458  1  0  1.509681  0  4.764761  0  0  1.360728  0  5.264289  0  0  1.408228  0  5.226733  0  0  0.340062  1.327606  0  5.289732  0
P  P12  1  0.57685605  0.92399392  0.20952550  1  0  1.535385  0  4.820384  0  0  1.390239  0  5.311809  0  0  1.438033  0  5.275511  0  0  0.336219  1.356768  0  5.336428  0
P  P13  1  0.92314344  0.57600384  0.70952363  1  0  1.53529  0  4.820377  0  0  1.390141  0  5.311823  0  0  1.437939  0  5.275522  0  0  0.33614  1.356678  0  5.336429  0
P  P14  1  0.42313739  0.07601369  0.79047162  1  0  1.535386  0  4.820528  0  0  1.390277  0  5.31178  0  0  1.438093  0  5.275423  0  0  0.336137  1.356763  0  5.336549  0
P  P15  1  0.07686089  0.42398512  0.29047411  1  0  1.535486  0  4.820217  0  0  1.390387  0  5.311482  0  0  1.438206  0  5.27513  0  0  0.336205  1.356869  0  5.336256  0
H  H16  1  0.74752224  0.47467776  0.98721301  1  0  0.439386  0  0.867282  0  0  0.407731  0  0.932332  0  0  0.418875  0  0.916389  0  0  0.308668  0.399918  0  0.943487  0
H  H17  1  0.75247900  0.02532166  0.48721618  1  0  0.439406  0  0.86727  0  0  0.407755  0  0.932313  0  0  0.418898  0  0.916374  0  0  0.308699  0.399944  0  0.943461  0
H  H18  1  0.25248808  0.52532404  0.01278535  1  0  0.439424  0  0.867241  0  0  0.407821  0  0.932205  0  0  0.418963  0  0.916267  0  0  0.308735  0.400006  0  0.94336  0
H  H19  1  0.24751989  0.97467663  0.51278528  1  0  0.439452  0  0.867189  0  0  0.407811  0  0.932214  0  0  0.418955  0  0.916274  0  0  0.308737  0.399999  0  0.943365  0
H  H20  1  0.88651644  0.66794451  0.12575288  1  0  0.132493  0  0.930517  0  0  0.148232  0  0.984221  0  0  0.150869  0  0.983571  0  0  0.115104  0.146279  0  0.984849  0
H  H21  1  0.61349113  0.83204985  0.62575603  1  0  0.132513  0  0.9305  0  0  0.148274  0  0.984166  0  0  0.150914  0  0.983516  0  0  0.115135  0.146321  0  0.984799  0
H  H22  1  0.11348250  0.33205611  0.87424610  1  0  0.132497  0  0.930511  0  0  0.148224  0  0.984211  0  0  0.150862  0  0.983564  0  0  0.115106  0.146271  0  0.984849  0
H  H23  1  0.38651162  0.16795194  0.37424730  1  0  0.132515  0  0.930528  0  0  0.148275  0  0.984177  0  0  0.150911  0  0.983531  0  0  0.115136  0.14632  0  0.984807  0
H  H24  1  0.99309585  0.85748935  0.09998819  1  0  0.116775  0  0.963829  0  0  0.132993  0  1.025007  0  0  0.135025  0  1.024476  0  0  0.108831  0.131442  0  1.025588  0
H  H25  1  0.50690633  0.64250854  0.59998588  1  0  0.11683  0  0.963943  0  0  0.133044  0  1.025102  0  0  0.135079  0  1.024572  0  0  0.108867  0.131491  0  1.025687  0
H  H26  1  0.00690310  0.14251126  0.90001328  1  0  0.116793  0  0.963839  0  0  0.132988  0  1.025034  0  0  0.135024  0  1.024504  0  0  0.108837  0.131439  0  1.025613  0
H  H27  1  0.49309268  0.35749442  0.40001559  1  0  0.116846  0  0.963893  0  0  0.133033  0  1.02509  0  0  0.135067  0  1.024559  0  0  0.108833  0.131484  0  1.025666  0
H  H28  1  0.52355405  0.92243069  0.06265136  1  0  0.145335  0  0.934  0  0  0.160192  0  0.988442  0  0  0.162885  0  0.987937  0  0  0.114133  0.158201  0  0.988966  0
H  H29  1  0.97643493  0.57755790  0.56264760  1  0  0.145298  0  0.933873  0  0  0.160127  0  0.988387  0  0  0.162819  0  0.987879  0  0  0.114115  0.158143  0  0.988913  0
H  H30  1  0.47644492  0.07757110  0.93734825  1  0  0.145355  0  0.933975  0  0  0.160214  0  0.988408  0  0  0.162907  0  0.987903  0  0  0.114152  0.158225  0  0.988927  0
H  H31  1  0.02354488  0.42243337  0.43735262  1  0  0.145401  0  0.933864  0  0  0.160236  0  0.988349  0  0  0.16293  0  0.987843  0  0  0.114171  0.158249  0  0.988868  0
H  H32  1  0.43586509  0.74040798  0.10581173  1  0  0.136445  0  0.93099  0  0  0.154083  0  0.981257  0  0  0.156089  0  0.981714  0  0  0.113107  0.15259  0  0.981108  0
H  H33  1  0.06414192  0.75958091  0.60580438  1  0  0.136522  0  0.931016  0  0  0.154151  0  0.981281  0  0  0.156154  0  0.981743  0  0  0.113145  0.15266  0  0.981129  0
H  H34  1  0.56413386  0.25959264  0.89418788  1  0  0.136468  0  0.931074  0  0  0.154096  0  0.981341  0  0  0.156099  0  0.981801  0  0  0.113129  0.152607  0  0.981186  0
H  H35  1  0.93586247  0.24041038  0.39419088  1  0  0.136493  0  0.931031  0  0  0.15413  0  0.981294  0  0  0.156134  0  0.981755  0  0  0.113105  0.15264  0  0.981136  0
C  C36  1  0.84291175  0.77026066  0.08741621  1  0  -0.387453  0  3.69091  0  0  -0.406676  0  3.934219  0  0  -0.415171  0  3.944388  0  0  -0.157019  -0.400706  0  3.92734  0
C  C37  1  0.65709226  0.72973141  0.58741566  1  0  -0.387588  0  3.691247  0  0  -0.406797  0  3.934513  0  0  -0.415299  0  3.944689  0  0  -0.157096  -0.400824  0  3.927654  0
C  C38  1  0.15709281  0.22973763  0.91258216  1  0  -0.387575  0  3.69103  0  0  -0.406775  0  3.934322  0  0  -0.41528  0  3.944503  0  0  -0.15707  -0.400805  0  3.92746  0
C  C39  1  0.34290858  0.27026921  0.41258457  1  0  -0.387551  0  3.691143  0  0  -0.406778  0  3.934503  0  0  -0.415272  0  3.944668  0  0  -0.157106  -0.400809  0  3.927631  0
C  C40  1  0.58063265  0.83368859  0.10782107  1  0  -0.406225  0  3.678965  0  0  -0.425046  0  3.921132  0  0  -0.434051  0  3.931475  0  0  -0.162567  -0.418762  0  3.914173  0
C  C41  1  0.91936174  0.66630229  0.60781731  1  0  -0.406227  0  3.679002  0  0  -0.425046  0  3.921176  0  0  -0.434049  0  3.93152  0  0  -0.162554  -0.418764  0  3.914206  0
C  C42  1  0.41936819  0.16631203  0.89217854  1  0  -0.406165  0  3.679093  0  0  -0.424972  0  3.92117  0  0  -0.433977  0  3.931524  0  0  -0.16256  -0.418687  0  3.914213  0
C  C43  1  0.08062953  0.33369366  0.39218354  1  0  -0.406335  0  3.679072  0  0  -0.425185  0  3.921238  0  0  -0.434197  0  3.931581  0  0  -0.162571  -0.418907  0  3.914287  0
O  O44  1  0.80017112  0.85756359  0.92729983  1  0  -0.877785  0  1.985544  0  0  -0.786487  0  2.274188  0  0  -0.813729  0  2.249347  0  0  -0.384182  -0.767212  0  2.290806  0
O  O45  1  0.69983069  0.64243859  0.42729988  1  0  -0.877753  0  1.985582  0  0  -0.786474  0  2.274218  0  0  -0.813716  0  2.249376  0  0  -0.38418  -0.767202  0  2.290849  0
O  O46  1  0.19985632  0.14244289  0.07269729  1  0  -0.877741  0  1.985689  0  0  -0.786523  0  2.274344  0  0  -0.81376  0  2.249498  0  0  -0.384198  -0.76725  0  2.290954  0
O  O47  1  0.30016241  0.35755502  0.57269848  1  0  -0.877746  0  1.985908  0  0  -0.786427  0  2.274511  0  0  -0.813666  0  2.249669  0  0  -0.384189  -0.767164  0  2.291136  0
O  O48  1  0.16153946  0.67120686  0.96663641  1  0  -0.903293  0  1.936226  0  0  -0.834827  0  2.191015  0  0  -0.858053  0  2.169967  0  0  -0.439928  -0.818331  0  2.205147  0
O  O49  1  0.33846906  0.82879562  0.46663757  1  0  -0.903268  0  1.936354  0  0  -0.834803  0  2.191168  0  0  -0.858029  0  2.170122  0  0  -0.439949  -0.818303  0  2.2053  0
O  O50  1  0.83846693  0.32878910  0.03336630  1  0  -0.903349  0  1.936002  0  0  -0.834845  0  2.190757  0  0  -0.85807  0  2.169706  0  0  -0.439915  -0.818358  0  2.204895  0
O  O51  1  0.66154132  0.17120851  0.53336514  1  0  -0.903279  0  1.935853  0  0  -0.83479  0  2.190651  0  0  -0.858018  0  2.169605  0  0  -0.439934  -0.818304  0  2.204781  0
O  O52  1  0.70057148  0.57768544  0.95815318  1  0  -0.798417  0  2.034283  0  0  -0.72995  0  2.267337  0  0  -0.749788  0  2.241831  0  0  -0.434465  -0.715956  0  2.284743  0
O  O53  1  0.79943011  0.92231671  0.45815618  1  0  -0.798451  0  2.034311  0  0  -0.72996  0  2.267299  0  0  -0.749814  0  2.241822  0  0  -0.434473  -0.715964  0  2.2847  0
O  O54  1  0.29944634  0.42231404  0.04184333  1  0  -0.798526  0  2.034378  0  0  -0.730061  0  2.267353  0  0  -0.74993  0  2.241902  0  0  -0.43454  -0.71606  0  2.284748  0
O  O55  1  0.20056323  0.07768624  0.54184467  1  0  -0.798499  0  2.034336  0  0  -0.73  0  2.26734  0  0  -0.749848  0  2.241851  0  0  -0.434509  -0.716004  0  2.284732  0
O  O56  1  0.72447385  0.08153876  0.20352972  1  0  -0.923321  0  1.997624  0  0  -0.835093  0  2.304174  0  0  -0.861439  0  2.275007  0  0  -0.429765  -0.816389  0  2.323893  0
O  O57  1  0.77551996  0.41845982  0.70353338  1  0  -0.923201  0  1.99747  0  0  -0.835007  0  2.304052  0  0  -0.861353  0  2.274885  0  0  -0.429721  -0.816301  0  2.323773  0
O  O58  1  0.27553444  0.91845721  0.79647175  1  0  -0.923339  0  1.99747  0  0  -0.835088  0  2.303946  0  0  -0.861436  0  2.274779  0  0  -0.429788  -0.816384  0  2.323679  0
O  O59  1  0.22446772  0.58154429  0.29646871  1  0  -0.923319  0  1.997356  0  0  -0.835049  0  2.303807  0  0  -0.861401  0  2.274643  0  0  -0.429738  -0.816346  0  2.323542  0
O  O60  1  0.30013809  0.95067057  0.23701599  1  0  -0.918077  0  1.987435  0  0  -0.832482  0  2.293214  0  0  -0.859141  0  2.264995  0  0  -0.425386  -0.813518  0  2.312239  0
O  O61  1  0.19985308  0.54932749  0.73701796  1  0  -0.918047  0  1.987514  0  0  -0.832418  0  2.293267  0  0  -0.859073  0  2.265036  0  0  -0.425303  -0.81345  0  2.312288  0
O  O62  1  0.69986089  0.04933122  0.76298238  1  0  -0.918165  0  1.987466  0  0  -0.832534  0  2.293189  0  0  -0.859213  0  2.265003  0  0  -0.42536  -0.813563  0  2.312218  0
O  O63  1  0.80013255  0.45066962  0.26298227  1  0  -0.918181  0  1.987367  0  0  -0.832572  0  2.29312  0  0  -0.859236  0  2.264895  0  0  -0.425425  -0.813598  0  2.312148  0
O  O64  1  0.70860540  0.81394169  0.27046314  1  0  -0.935825  0  2.058402  0  0  -0.849337  0  2.364465  0  0  -0.875871  0  2.336775  0  0  -0.438581  -0.830459  0  2.383111  0
O  O65  1  0.79139007  0.68606416  0.77045819  1  0  -0.935821  0  2.058354  0  0  -0.849334  0  2.364413  0  0  -0.875867  0  2.336716  0  0  -0.438601  -0.830462  0  2.383069  0
O  O66  1  0.29139143  0.18604959  0.72953895  1  0  -0.935777  0  2.05869  0  0  -0.849283  0  2.364712  0  0  -0.875812  0  2.337008  0  0  -0.438532  -0.830407  0  2.383381  0
O  O67  1  0.20860512  0.31393762  0.22954328  1  0  -0.935773  0  2.05851  0  0  -0.849267  0  2.364517  0  0  -0.875798  0  2.33681  0  0  -0.438538  -0.830392  0  2.383186  0
