# generated using pymatgen
data_Zn2H25C37N8
_symmetry_space_group_name_H-M   'P 1'
_cell_length_a   19.96505992
_cell_length_b   19.87069295
_cell_length_c   19.83683517
_cell_angle_alpha   105.03976308
_cell_angle_beta   110.52538285
_cell_angle_gamma   113.24625973
_symmetry_Int_Tables_number   1
_chemical_formula_structural   Zn2H25C37N8
_chemical_formula_sum   'Zn4 H50 C74 N16'
_cell_volume   6004.37625382
_cell_formula_units_Z   2
loop_
 _symmetry_equiv_pos_site_id
 _symmetry_equiv_pos_as_xyz
  1  'x, y, z'
loop_
 _atom_site_type_symbol
 _atom_site_label
 _atom_site_symmetry_multiplicity
 _atom_site_fract_x
 _atom_site_fract_y
 _atom_site_fract_z
 _atom_site_occupancy
 _atom_site_pbe_bader_charge
 _atom_site_pbe_bader_spin_density
 _atom_site_pbe_cm5_charge
 _atom_site_pbe_ddec_charge
 _atom_site_pbe_ddec_spin_density
 _atom_site_pbe_ddec_sum_bond_order
 _atom_site_pbe_magmom
Zn  Zn0  1  0.89452324  0.89187001  0.50185098  1  1.182606  0  0.745625  0.61113  0  2.490648  0
Zn  Zn1  1  0.12208181  0.11760838  0.50120254  1  1.197524  0  0.743321  0.658189  0  2.305857  0
Zn  Zn2  1  0.10293275  0.01032395  0.60249764  1  1.188774  0  0.740265  0.603812  0  2.472284  0
Zn  Zn3  1  0.91429215  0.99884378  0.40134031  1  1.189176  0  0.740176  0.605883  0  2.46457  0
H  H4  1  0.13859211  0.63076285  0.45009148  1  0.062152  0  0.101158  0.108286  0  1.00001  0
H  H5  1  0.72463093  0.87603092  0.23678048  1  0.08949  0  0.123186  0.114571  0  0.986945  0
H  H6  1  0.86451405  0.99526158  0.62854586  1  0.094526  0  0.121608  0.11322  0  0.986925  0
H  H7  1  0.31088245  0.14861878  0.52103219  1  0.091201  0  0.117761  0.10457  0  1.004364  0
H  H8  1  0.86296344  0.11913030  0.33321016  1  0.120303  0  0.122216  0.112556  0  0.988457  0
H  H9  1  0.14235867  0.89236434  0.50075436  1  0.092433  0  0.121579  0.113011  0  1.004234  0
H  H10  1  0.14325303  0.98252483  0.76571473  1  0.119488  0  0.123181  0.113923  0  0.985977  0
H  H11  1  0.88237408  0.85101653  0.25118294  1  0.106354  0  0.121636  0.113259  0  0.992998  0
H  H12  1  0.72703940  0.15980906  0.75003586  1  0.081581  0  0.098801  0.086064  0  0.993819  0
H  H13  1  0.50289467  0.05082835  0.47130248  1  0.054288  0  0.097416  0.083695  0  0.995046  0
H  H14  1  0.83861664  0.72664577  0.60093880  1  0.06375  0  0.102962  0.145137  0  0.972099  0
H  H15  1  0.85874150  0.36945420  0.30719873  1  0.043059  0  0.100423  0.107111  0  1.000162  0
H  H16  1  0.83115121  0.79857017  0.66747416  1  0.076138  0  0.103213  0.146887  0  0.978515  0
H  H17  1  0.80245562  0.78716495  0.56754727  1  0.027774  0  0.090367  0.118855  0  1.032843  0
H  H18  1  0.20923805  0.02759523  0.36598441  1  0.064616  0  0.101322  0.143476  0  0.980999  0
H  H19  1  0.15966755  0.05313606  0.29216219  1  0.070582  0  0.101759  0.146036  0  0.981402  0
H  H20  1  0.20039121  0.11483436  0.39646308  1  0.028795  0  0.091486  0.121716  0  1.010967  0
H  H21  1  0.64710532  0.24092303  0.69509971  1  0.050823  0  0.098541  0.085496  0  0.993353  0
H  H22  1  0.58303913  0.96988242  0.52613084  1  0.069508  0  0.097823  0.084894  0  0.992776  0
H  H23  1  0.56555069  0.01056224  0.66500452  1  0.047698  0  0.09732  0.084103  0  0.996035  0
H  H24  1  0.66441740  0.20015142  0.55619287  1  0.06672  0  0.097805  0.08481  0  0.99573  0
H  H25  1  0.15953615  0.45963330  0.42528137  1  0.042612  0  0.091658  0.127479  0  0.993548  0
H  H26  1  0.88347428  0.75390420  0.85406486  1  0.066855  0  0.102593  0.105317  0  0.993085  0
H  H27  1  0.21062376  0.56612997  0.49323452  1  0.011319  0  0.089889  0.123102  0  1.000852  0
H  H28  1  0.15359373  0.48719839  0.51400640  1  0.026147  0  0.091009  0.126882  0  0.993726  0
H  H29  1  0.84008417  0.51094638  0.24332713  1  0.052068  0  0.094243  0.131001  0  0.987307  0
H  H30  1  0.78647223  0.43516239  0.26893422  1  0.026972  0  0.090142  0.122869  0  1.000843  0
H  H31  1  0.84024922  0.54273422  0.33508147  1  0.043067  0  0.09065  0.12576  0  0.997675  0
H  H32  1  0.42368092  0.56978028  0.21302588  1  0.02479  0  0.092008  0.127984  0  0.99161  0
H  H33  1  0.38264933  0.46215628  0.16162375  1  0.023827  0  0.090928  0.125238  0  0.998323  0
H  H34  1  0.48897526  0.53750156  0.19490136  1  0.034495  0  0.089202  0.121553  0  1.00401  0
H  H35  1  0.24299083  0.50937742  0.82679524  1  0.037428  0  0.094404  0.132044  0  0.988432  0
H  H36  1  0.34586708  0.59662717  0.86708570  1  0.016387  0  0.090727  0.124706  0  0.999851  0
H  H37  1  0.14891139  0.94696445  0.12273890  1  0.070784  0  0.103169  0.105993  0  0.992997  0
H  H38  1  0.32096932  0.49440982  0.81654587  1  0.043749  0  0.088851  0.121007  0  1.013597  0
H  H39  1  0.29543284  0.39631279  0.01763437  1  0.075915  0  0.10142  0.108826  0  0.999031  0
H  H40  1  0.43989739  0.65869263  0.00826234  1  0.055989  0  0.100198  0.10678  0  1.002147  0
H  H41  1  0.89222770  0.13808374  0.49687941  1  0.116418  0  0.120033  0.111532  0  1.002051  0
H  H42  1  0.28843935  0.02221731  0.66703470  1  0.099511  0  0.121861  0.113374  0  0.987075  0
H  H43  1  0.16220380  0.33879588  0.63023821  1  0.052908  0  0.100973  0.143059  0  0.979795  0
H  H44  1  0.26212076  0.36693755  0.70653242  1  0.056711  0  0.099254  0.140547  0  0.998539  0
H  H45  1  0.22155192  0.30136196  0.60339493  1  0.021045  0  0.091499  0.121462  0  1.012164  0
H  H46  1  0.62799571  0.73788768  0.39965210  1  0.073375  0  0.102885  0.144712  0  0.974194  0
H  H47  1  0.63309129  0.66224584  0.33488229  1  0.072161  0  0.10087  0.143554  0  0.988702  0
H  H48  1  0.88149647  0.76039029  0.97995315  1  0.06816  0  0.105001  0.108161  0  0.990247  0
H  H49  1  0.72089668  0.73397717  0.43536944  1  0.026172  0  0.090356  0.119215  0  1.031857  0
H  H50  1  0.15076212  0.94071364  0.99683996  1  0.077408  0  0.103691  0.106602  0  0.990434  0
H  H51  1  0.13550123  0.28703361  0.47556532  1  0.092446  0  0.119439  0.106698  0  1.002415  0
H  H52  1  0.86791509  0.73489548  0.37067386  1  0.091128  0  0.122053  0.113229  0  0.986347  0
H  H53  1  0.10680809  0.13097004  0.75160664  1  0.093182  0  0.121781  0.113549  0  0.992275  0
C  C54  1  0.93620540  0.85320604  0.65031575  1  0.517091  0  0.099182  0.214157  0  3.979348  0
C  C55  1  0.59620802  0.02980967  0.56372764  1  -0.042311  0  -0.073761  -0.078435  0  3.636504  0
C  C56  1  0.67667094  0.13552327  0.68811372  1  -0.039288  0  -0.07338  -0.079679  0  3.636507  0
C  C57  1  0.55355000  0.07524224  0.53313925  1  -0.025886  0  -0.073722  -0.07822  0  3.638566  0
C  C58  1  0.81140673  0.10781165  0.59738721  1  -0.198615  0  -0.067038  -0.119175  0  4.211518  0
C  C59  1  0.40578114  0.08716002  0.60577095  1  -0.211118  0  -0.070447  -0.123403  0  4.230954  0
C  C60  1  0.64187644  0.15803879  0.58040036  1  -0.023106  0  -0.074695  -0.081853  0  3.641806  0
C  C61  1  0.58823276  0.05273554  0.64089215  1  -0.026304  0  -0.075317  -0.082709  0  3.644641  0
C  C62  1  0.68674286  0.11291606  0.61096478  1  0.12257  0  0.004245  0.135928  0  3.799653  0
C  C63  1  0.54337278  0.09786003  0.61027214  1  0.107301  0  0.002645  0.13422  0  3.806806  0
C  C64  1  0.75766090  0.11585738  0.60778781  1  -0.178547  0  -0.064964  -0.140415  0  4.145956  0
C  C65  1  0.08347995  0.99843848  0.33820747  1  0.508587  0  0.103073  0.225258  0  3.946988  0
C  C66  1  0.46934822  0.09091148  0.60862884  1  -0.136458  0  -0.065076  -0.140558  0  4.15968  0
C  C67  1  0.07738992  0.57272219  0.41821953  1  -0.018537  0  -0.091348  -0.195314  0  3.96026  0
C  C68  1  0.91997938  0.42724913  0.33798227  1  -0.042109  0  -0.092411  -0.196364  0  3.962985  0
C  C69  1  0.07061645  0.23480106  0.44320249  1  0.390473  0  0.013523  -0.050131  0  3.977515  0
C  C70  1  0.93412581  0.78500409  0.40801846  1  0.43456  0  0.01799  -0.04516  0  3.937425  0
C  C71  1  0.00327985  0.57254201  0.37797827  1  0.10324  0  -0.008229  0.076241  0  4.106307  0
C  C72  1  0.99399563  0.42780171  0.37930657  1  0.101468  0  -0.00948  0.075792  0  4.113954  0
C  C73  1  0.92270322  0.49780660  0.33643350  1  0.000828  0  -0.007204  0.125189  0  3.960769  0
C  C74  1  0.07463221  0.50230249  0.42021934  1  0.030677  0  -0.008049  0.124479  0  3.96214  0
C  C75  1  0.00840681  0.64706335  0.38381039  1  -0.50335  0  -0.051646  -0.10512  0  4.153078  0
C  C76  1  0.99550497  0.23122880  0.39850952  1  0.176616  0  -0.032297  0.041473  0  4.218193  0
C  C77  1  0.98910799  0.35571536  0.38186182  1  -0.049888  0  -0.052203  -0.105998  0  4.167081  0
C  C78  1  0.98952101  0.29610846  0.38762530  1  -0.340115  0  -0.059789  -0.118405  0  4.185802  0
C  C79  1  0.00982685  0.71127197  0.39557011  1  0.115714  0  -0.055424  -0.112544  0  4.161357  0
C  C80  1  0.32739636  0.45460684  0.01646286  1  -0.031228  0  -0.092224  -0.196735  0  3.956688  0
C  C81  1  0.40727875  0.60060198  0.00954008  1  -0.047647  0  -0.092035  -0.195239  0  3.962725  0
C  C82  1  0.30116400  0.45474265  0.94050152  1  0.109998  0  -0.007171  0.080213  0  4.105914  0
C  C83  1  0.43716975  0.59909514  0.08463992  1  0.084554  0  -0.009915  0.074262  0  4.114641  0
C  C84  1  0.34010059  0.53033464  0.93746230  1  0.07996  0  -0.008123  0.12494  0  3.960117  0
C  C85  1  0.39423636  0.52500837  0.08858575  1  -0.009861  0  -0.008512  0.125203  0  3.960208  0
C  C86  1  0.24187692  0.37953393  0.86785672  1  -0.263669  0  -0.054001  -0.11825  0  4.149273  0
C  C87  1  0.00709258  0.78274985  0.42013958  1  0.163923  0  -0.027098  0.047672  0  4.184572  0
C  C88  1  0.51283340  0.66869281  0.15410986  1  -0.115972  0  -0.052799  -0.111109  0  4.162254  0
C  C89  1  0.58300284  0.72426049  0.21216870  1  -0.330275  0  -0.058943  -0.105083  0  4.192984  0
C  C90  1  0.19960002  0.31426343  0.80537876  1  -0.150697  0  -0.052899  -0.092523  0  4.173356  0
C  C91  1  0.94045930  0.79940264  0.98336225  1  -0.056516  0  -0.087737  -0.127572  0  3.97529  0
C  C92  1  0.09205327  0.90100291  0.99344843  1  -0.028197  0  -0.087124  -0.125795  0  3.976592  0
C  C93  1  0.12146534  0.15937739  0.71461032  1  0.431138  0  0.016471  -0.040547  0  3.953977  0
C  C94  1  0.72880468  0.85346883  0.28151263  1  0.456985  0  0.014386  -0.052564  0  3.997813  0
C  C95  1  0.01451954  0.85587614  0.06044448  1  0.131024  0  -0.004312  0.138798  0  4.125153  0
C  C96  1  0.01669230  0.84870085  0.91674517  1  0.114331  0  -0.006891  0.134605  0  4.130615  0
C  C97  1  0.09097931  0.90444190  0.06369414  1  -0.041758  0  -0.088231  -0.129773  0  3.979874  0
C  C98  1  0.16110810  0.24330034  0.73258832  1  0.114657  0  -0.031333  -0.025858  0  4.169996  0
C  C99  1  0.94157153  0.79587750  0.91305719  1  -0.035051  0  -0.088427  -0.129653  0  3.981749  0
C  C100  1  0.01185336  0.86934104  0.13276696  1  0.10725  0  -0.057482  -0.137161  0  4.144718  0
C  C101  1  0.01551661  0.85427069  0.84681614  1  0.075627  0  -0.056342  -0.131274  0  4.156374  0
C  C102  1  0.01423840  0.86713837  0.78949759  1  -0.471753  0  -0.058369  -0.09535  0  4.200262  0
C  C103  1  0.00920429  0.88975544  0.19505511  1  -0.518335  0  -0.052927  -0.083096  0  4.184253  0
C  C104  1  0.89197110  0.09713360  0.52404209  1  0.400315  0  0.016116  -0.04076  0  3.908586  0
C  C105  1  0.28118696  0.05306994  0.62957985  1  0.436197  0  0.010181  -0.063736  0  3.975364  0
C  C106  1  0.16405932  0.24333732  0.66210822  1  0.477337  0  0.101991  0.224996  0  3.944963  0
C  C107  1  0.70703810  0.78468292  0.35203015  1  0.438405  0  0.098432  0.212132  0  3.983191  0
C  C108  1  0.87789962  0.02396209  0.59131126  1  0.422049  0  0.014629  -0.047802  0  3.945128  0
C  C109  1  0.66584992  0.78408598  0.27714389  1  0.150877  0  -0.034457  -0.026502  0  4.194583  0
C  C110  1  0.29214666  0.11759145  0.55479420  1  0.418347  0  0.011915  -0.049915  0  3.979554  0
C  C111  1  0.93117956  0.14928808  0.37031953  1  0.373524  0  0.013141  -0.058445  0  3.971045  0
C  C112  1  0.07458440  0.86544243  0.47455902  1  0.404079  0  0.019599  -0.035329  0  3.90608  0
C  C113  1  0.07591723  0.94325203  0.72100021  1  0.410966  0  0.01635  -0.048855  0  3.993103  0
C  C114  1  0.94773684  0.90291442  0.28750639  1  0.462243  0  0.017092  -0.039267  0  3.956039  0
C  C115  1  0.01004619  0.88544661  0.72497981  1  0.109488  0  -0.032975  -0.025819  0  4.190278  0
C  C116  1  0.01224741  0.92450078  0.26821012  1  0.079374  0  -0.031159  -0.027571  0  4.171079  0
C  C117  1  0.84743074  0.78817068  0.61988499  1  -0.08244  0  -0.228424  -0.420626  0  3.987754  0
C  C118  1  0.16785155  0.05127286  0.34925976  1  -0.076352  0  -0.228445  -0.420834  0  3.982341  0
C  C119  1  0.15410642  0.50441102  0.46563303  1  -0.027105  0  -0.236463  -0.400148  0  3.995819  0
C  C120  1  0.86141041  0.08298806  0.57636207  1  0.123357  0  -0.028042  0.049466  0  4.186741  0
C  C121  1  0.84287268  0.49610479  0.29359697  1  -0.060565  0  -0.237217  -0.400722  0  3.992603  0
C  C122  1  0.42342858  0.52300654  0.16848896  1  -0.035709  0  -0.236272  -0.400899  0  3.99445  0
C  C123  1  0.31123326  0.53327451  0.85805161  1  -0.049908  0  -0.235563  -0.400888  0  3.993693  0
C  C124  1  0.20408380  0.31613095  0.64940287  1  -0.037621  0  -0.228163  -0.41862  0  3.980225  0
C  C125  1  0.67066015  0.72670274  0.38213824  1  -0.072829  0  -0.228668  -0.419694  0  3.988944  0
C  C126  1  0.33229503  0.08561974  0.59813022  1  0.080114  0  -0.034134  0.041942  0  4.217827  0
C  C127  1  0.63376626  0.18090618  0.65754750  1  -0.02397  0  -0.073862  -0.079373  0  3.635563  0
N  N128  1  0.95786812  0.89013667  0.60682154  1  -0.801244  0  -0.268345  -0.235484  0  3.492674  0
N  N129  1  0.78791919  0.84933536  0.39603327  1  -0.779857  0  -0.267216  -0.234558  0  3.491683  0
N  N130  1  0.91311936  0.00368534  0.54945126  1  -0.811114  0  -0.288414  -0.19671  0  3.663519  0
N  N131  1  0.22338399  0.10500123  0.55997374  1  -0.790975  0  -0.2663  -0.191206  0  3.536459  0
N  N132  1  0.96568322  0.10834340  0.39612679  1  -0.787014  0  -0.268463  -0.171841  0  3.544385  0
N  N133  1  0.04340805  0.91157262  0.49426802  1  -0.812982  0  -0.280315  -0.185357  0  3.617557  0
N  N134  1  0.04440427  0.94570744  0.65041301  1  -0.814525  0  -0.272849  -0.174021  0  3.574543  0
N  N135  1  0.97808285  0.95960274  0.36253992  1  -0.805469  0  -0.284566  -0.183768  0  3.658128  0
N  N136  1  0.06124059  0.01728259  0.39363595  1  -0.795273  0  -0.276266  -0.245021  0  3.56679  0
N  N137  1  0.05239915  0.16166925  0.44165413  1  -0.790697  0  -0.264438  -0.189959  0  3.525669  0
N  N138  1  0.95732559  0.86207079  0.45336526  1  -0.784432  0  -0.286211  -0.192895  0  3.663272  0
N  N139  1  0.10301656  0.11361055  0.63997392  1  -0.783593  0  -0.284767  -0.182535  0  3.658082  0
N  N140  1  0.80132479  0.89208034  0.35250573  1  -0.811854  0  -0.273913  -0.175609  0  3.57857  0
N  N141  1  0.92181366  0.04843270  0.50803736  1  -0.778821  0  -0.280776  -0.184863  0  3.614082  0
N  N142  1  0.21657767  0.06502901  0.60668114  1  -0.796286  0  -0.270584  -0.173718  0  3.54985  0
N  N143  1  0.12837658  0.16495979  0.60777746  1  -0.790398  0  -0.276062  -0.245474  0  3.566517  0
