# generated using pymatgen
data_ErH30C30(SO3)3
_symmetry_space_group_name_H-M   'P 1'
_cell_length_a   11.77315435
_cell_length_b   11.77304004
_cell_length_c   11.77300788
_cell_angle_alpha   79.76699170
_cell_angle_beta   79.76728583
_cell_angle_gamma   79.76673399
_symmetry_Int_Tables_number   1
_chemical_formula_structural   ErH30C30(SO3)3
_chemical_formula_sum   'Er2 H60 C60 S6 O18'
_cell_volume   1562.22289300
_cell_formula_units_Z   2
loop_
 _symmetry_equiv_pos_site_id
 _symmetry_equiv_pos_as_xyz
  1  'x, y, z'
loop_
 _atom_site_type_symbol
 _atom_site_label
 _atom_site_symmetry_multiplicity
 _atom_site_fract_x
 _atom_site_fract_y
 _atom_site_fract_z
 _atom_site_occupancy
 _atom_site_hle17_bader_spin_density
 _atom_site_hle17_ddec_charge
 _atom_site_hle17_ddec_spin_density
 _atom_site_hle17_ddec_sum_bond_order
 _atom_site_hle17_magmom
 _atom_site_hse06_10hf_bader_spin_density
 _atom_site_hse06_10hf_ddec_charge
 _atom_site_hse06_10hf_ddec_spin_density
 _atom_site_hse06_10hf_ddec_sum_bond_order
 _atom_site_hse06_10hf_magmom
 _atom_site_hse06_bader_spin_density
 _atom_site_hse06_ddec_charge
 _atom_site_hse06_ddec_spin_density
 _atom_site_hse06_ddec_sum_bond_order
 _atom_site_hse06_magmom
 _atom_site_pbe_bader_spin_density
 _atom_site_pbe_cm5_charge
 _atom_site_pbe_ddec_charge
 _atom_site_pbe_ddec_spin_density
 _atom_site_pbe_ddec_sum_bond_order
 _atom_site_pbe_magmom
Er  Er0  1  0.17373266  0.17374492  0.17374384  1  0  2.209302  0  1.67363  0  0  2.072505  0  2.141293  0  0  2.124277  0  2.095127  0  0  1.466614  2.031102  0  2.181059  0
Er  Er1  1  0.82626520  0.82625601  0.82625298  1  0  2.209341  0  1.673619  0  0  2.07242  0  2.141433  0  0  2.124206  0  2.09526  0  0  1.466604  2.031127  0  2.181004  0
H  H2  1  0.23682427  0.27640577  0.44274888  1  0  0.116167  0  0.976062  0  0  0.124249  0  1.03908  0  0  0.128291  0  1.036848  0  0  0.105199  0.121246  0  1.040836  0
H  H3  1  0.44275407  0.23682693  0.27640200  1  0  0.11611  0  0.976057  0  0  0.124232  0  1.039021  0  0  0.128284  0  1.036757  0  0  0.105207  0.121224  0  1.040781  0
H  H4  1  0.27640373  0.44275425  0.23682316  1  0  0.116185  0  0.976032  0  0  0.124233  0  1.039083  0  0  0.128292  0  1.036827  0  0  0.105218  0.121231  0  1.040843  0
H  H5  1  0.76317684  0.72359080  0.55725069  1  0  0.116177  0  0.976012  0  0  0.124248  0  1.039045  0  0  0.128284  0  1.036841  0  0  0.105201  0.121247  0  1.040801  0
H  H6  1  0.55724950  0.76318187  0.72359494  1  0  0.116137  0  0.976106  0  0  0.124212  0  1.039118  0  0  0.128267  0  1.036855  0  0  0.105211  0.121204  0  1.040871  0
H  H7  1  0.72358882  0.55724756  0.76317785  1  0  0.116216  0  0.976024  0  0  0.124279  0  1.039066  0  0  0.12831  0  1.036866  0  0  0.10522  0.121284  0  1.040808  0
H  H8  1  0.37462337  0.29283839  0.57140652  1  0  0.086828  0  0.964435  0  0  0.097484  0  1.025638  0  0  0.099499  0  1.026362  0  0  0.097246  0.096044  0  1.025211  0
H  H9  1  0.57140744  0.37463025  0.29282935  1  0  0.086759  0  0.964436  0  0  0.097512  0  1.025535  0  0  0.099518  0  1.026285  0  0  0.097264  0.096057  0  1.025122  0
H  H10  1  0.29283059  0.57140913  0.37462705  1  0  0.086705  0  0.964504  0  0  0.097448  0  1.02562  0  0  0.099466  0  1.026331  0  0  0.097229  0.096004  0  1.02521  0
H  H11  1  0.62537622  0.70716255  0.42859339  1  0  0.086812  0  0.964367  0  0  0.097498  0  1.025542  0  0  0.099514  0  1.026258  0  0  0.097242  0.09606  0  1.025122  0
H  H12  1  0.42859912  0.62537593  0.70716667  1  0  0.086786  0  0.964426  0  0  0.097465  0  1.025609  0  0  0.099474  0  1.026351  0  0  0.097241  0.096026  0  1.025188  0
H  H13  1  0.70716508  0.42858919  0.62537658  1  0  0.086739  0  0.964497  0  0  0.097469  0  1.025626  0  0  0.099491  0  1.026327  0  0  0.097223  0.096027  0  1.025201  0
H  H14  1  0.32444976  0.44096557  0.70810485  1  0  0.085244  0  0.974794  0  0  0.095464  0  1.037902  0  0  0.097958  0  1.037512  0  0  0.095012  0.093682  0  1.038239  0
H  H15  1  0.70810201  0.32445785  0.44096104  1  0  0.085246  0  0.974793  0  0  0.095474  0  1.037871  0  0  0.097965  0  1.037484  0  0  0.095012  0.093685  0  1.038209  0
H  H16  1  0.44096069  0.70810309  0.32445761  1  0  0.085223  0  0.974831  0  0  0.09545  0  1.03791  0  0  0.097943  0  1.03752  0  0  0.095022  0.093663  0  1.03825  0
H  H17  1  0.67555096  0.55903362  0.29189602  1  0  0.08524  0  0.974821  0  0  0.095459  0  1.037924  0  0  0.097953  0  1.037535  0  0  0.095014  0.093675  0  1.038261  0
H  H18  1  0.29190654  0.67554659  0.55903409  1  0  0.085229  0  0.974789  0  0  0.095427  0  1.037908  0  0  0.097915  0  1.037523  0  0  0.094992  0.093645  0  1.038251  0
H  H19  1  0.55903697  0.29189348  0.67554512  1  0  0.085246  0  0.974746  0  0  0.095464  0  1.037857  0  0  0.097957  0  1.037468  0  0  0.095016  0.093673  0  1.038197  0
H  H20  1  0.13888081  0.57743999  0.70903997  1  0  0.086428  0  0.979353  0  0  0.096297  0  1.04498  0  0  0.099114  0  1.044074  0  0  0.097706  0.094272  0  1.045738  0
H  H21  1  0.70903465  0.13888955  0.57743823  1  0  0.086402  0  0.979454  0  0  0.096313  0  1.045024  0  0  0.09913  0  1.044119  0  0  0.097734  0.094283  0  1.045773  0
H  H22  1  0.57743219  0.70903798  0.13888934  1  0  0.086461  0  0.979408  0  0  0.096313  0  1.045054  0  0  0.099125  0  1.044143  0  0  0.097758  0.094285  0  1.045806  0
H  H23  1  0.86111818  0.42255920  0.29096121  1  0  0.086453  0  0.979325  0  0  0.096324  0  1.04495  0  0  0.099142  0  1.044044  0  0  0.097707  0.094292  0  1.045707  0
H  H24  1  0.29097057  0.86111401  0.42255680  1  0  0.086447  0  0.979405  0  0  0.096346  0  1.044979  0  0  0.099162  0  1.044069  0  0  0.097735  0.094313  0  1.045737  0
H  H25  1  0.42256088  0.29096034  0.86111390  1  0  0.086448  0  0.979352  0  0  0.096313  0  1.044972  0  0  0.099133  0  1.044065  0  0  0.097724  0.094278  0  1.045733  0
H  H26  1  0.06383184  0.38169379  0.86927614  1  0  0.156876  0  0.942017  0  0  0.172335  0  1.003296  0  0  0.174151  0  1.003552  0  0  0.106903  0.170964  0  1.003246  0
H  H27  1  0.86927413  0.06383136  0.38169752  1  0  0.15687  0  0.942017  0  0  0.172348  0  1.003285  0  0  0.174166  0  1.003541  0  0  0.106924  0.170975  0  1.003223  0
H  H28  1  0.38170297  0.86927545  0.06383022  1  0  0.156868  0  0.942019  0  0  0.172308  0  1.003331  0  0  0.174124  0  1.003592  0  0  0.106912  0.170929  0  1.003281  0
H  H29  1  0.93617220  0.61830628  0.13072567  1  0  0.156883  0  0.942029  0  0  0.17235  0  1.003308  0  0  0.174169  0  1.003562  0  0  0.106914  0.170984  0  1.003248  0
H  H30  1  0.13072532  0.93617045  0.61829971  1  0  0.156887  0  0.942002  0  0  0.172353  0  1.003293  0  0  0.174167  0  1.003551  0  0  0.106928  0.170983  0  1.003233  0
H  H31  1  0.61830332  0.13072113  0.93617181  1  0  0.156802  0  0.94207  0  0  0.172287  0  1.003352  0  0  0.174114  0  1.003596  0  0  0.106892  0.17091  0  1.003291  0
H  H32  1  0.91819600  0.45985452  0.86533702  1  0  0.16993  0  0.948617  0  0  0.18201  0  1.015002  0  0  0.184178  0  1.015229  0  0  0.108202  0.180388  0  1.014948  0
H  H33  1  0.86533950  0.91819259  0.45985597  1  0  0.169933  0  0.948608  0  0  0.181979  0  1.015045  0  0  0.184151  0  1.015269  0  0  0.108169  0.180354  0  1.014991  0
H  H34  1  0.45985675  0.86535115  0.91819269  1  0  0.169987  0  0.948584  0  0  0.181988  0  1.015068  0  0  0.184159  0  1.0153  0  0  0.108178  0.180364  0  1.015013  0
H  H35  1  0.08180544  0.54014555  0.13466271  1  0  0.169935  0  0.948574  0  0  0.181992  0  1.014996  0  0  0.184167  0  1.015218  0  0  0.108208  0.180373  0  1.014949  0
H  H36  1  0.13465723  0.08181009  0.54014328  1  0  0.169917  0  0.948632  0  0  0.18195  0  1.015096  0  0  0.184121  0  1.015323  0  0  0.108155  0.180329  0  1.015036  0
H  H37  1  0.54014689  0.13465154  0.08180788  1  0  0.169953  0  0.948645  0  0  0.181935  0  1.015169  0  0  0.184104  0  1.015399  0  0  0.108151  0.180308  0  1.015114  0
H  H38  1  0.94522443  0.30178277  0.87196405  1  0  0.144909  0  0.936942  0  0  0.165508  0  0.989054  0  0  0.167639  0  0.988211  0  0  0.104879  0.16392  0  0.989783  0
H  H39  1  0.87196283  0.94522384  0.30178341  1  0  0.144862  0  0.936907  0  0  0.165466  0  0.989029  0  0  0.167596  0  0.988186  0  0  0.104852  0.163869  0  0.989765  0
H  H40  1  0.30179075  0.87195815  0.94522320  1  0  0.144808  0  0.936944  0  0  0.165421  0  0.989059  0  0  0.167553  0  0.988216  0  0  0.104847  0.163828  0  0.989788  0
H  H41  1  0.05477961  0.69821730  0.12803607  1  0  0.144874  0  0.936894  0  0  0.16548  0  0.989014  0  0  0.167607  0  0.988175  0  0  0.104884  0.163894  0  0.989743  0
H  H42  1  0.12803749  0.05477798  0.69821536  1  0  0.144857  0  0.93689  0  0  0.165479  0  0.988998  0  0  0.167605  0  0.98816  0  0  0.104851  0.163883  0  0.989735  0
H  H43  1  0.69821421  0.12803581  0.05477870  1  0  0.144855  0  0.936871  0  0  0.165473  0  0.988987  0  0  0.167599  0  0.988149  0  0  0.104859  0.163878  0  0.989719  0
H  H44  1  0.78158054  0.28288384  0.02896105  1  0  0.1458  0  0.935236  0  0  0.167167  0  0.985895  0  0  0.169301  0  0.985223  0  0  0.105874  0.165621  0  0.986439  0
H  H45  1  0.02896718  0.78157370  0.28288531  1  0  0.145913  0  0.9353  0  0  0.167242  0  0.985962  0  0  0.169375  0  0.985289  0  0  0.105928  0.165699  0  0.986508  0
H  H46  1  0.28287811  0.02896853  0.78157961  1  0  0.145859  0  0.935228  0  0  0.167194  0  0.985939  0  0  0.169326  0  0.985263  0  0  0.105888  0.165647  0  0.986481  0
H  H47  1  0.21842117  0.71711449  0.97103895  1  0  0.145838  0  0.935238  0  0  0.167169  0  0.985927  0  0  0.169299  0  0.985256  0  0  0.105892  0.165629  0  0.986468  0
H  H48  1  0.97103321  0.21842201  0.71711879  1  0  0.145818  0  0.9353  0  0  0.167159  0  0.985976  0  0  0.169287  0  0.985307  0  0  0.105883  0.165611  0  0.986526  0
H  H49  1  0.71712168  0.97102543  0.21842660  1  0  0.145874  0  0.935282  0  0  0.167236  0  0.985939  0  0  0.169364  0  0.985269  0  0  0.105894  0.165689  0  0.986488  0
H  H50  1  0.74836074  0.43191902  0.06002356  1  0  0.156821  0  0.974332  0  0  0.169442  0  1.039628  0  0  0.171104  0  1.040495  0  0  0.103008  0.168179  0  1.039133  0
H  H51  1  0.06002343  0.74835728  0.43192091  1  0  0.156915  0  0.974244  0  0  0.169523  0  1.039524  0  0  0.171186  0  1.040387  0  0  0.103009  0.168258  0  1.03904  0
H  H52  1  0.43190895  0.06002867  0.74836201  1  0  0.156854  0  0.974353  0  0  0.169497  0  1.03962  0  0  0.171161  0  1.04048  0  0  0.103034  0.168229  0  1.039125  0
H  H53  1  0.25164229  0.56808192  0.93997404  1  0  0.156875  0  0.974297  0  0  0.169482  0  1.039592  0  0  0.171145  0  1.040455  0  0  0.103026  0.168221  0  1.039103  0
H  H54  1  0.93997517  0.25164454  0.56808412  1  0  0.156888  0  0.974252  0  0  0.169501  0  1.039549  0  0  0.171166  0  1.040412  0  0  0.103013  0.168234  0  1.03905  0
H  H55  1  0.56809084  0.93996528  0.25164081  1  0  0.156911  0  0.974316  0  0  0.169541  0  1.039588  0  0  0.171208  0  1.040448  0  0  0.103027  0.168278  0  1.039094  0
H  H56  1  0.77700152  0.31184989  0.17516178  1  0  0.150461  0  0.933222  0  0  0.169676  0  0.988371  0  0  0.171244  0  0.98835  0  0  0.107564  0.168512  0  0.988474  0
H  H57  1  0.17516063  0.77699462  0.31185859  1  0  0.150534  0  0.933255  0  0  0.169756  0  0.988382  0  0  0.171302  0  0.988386  0  0  0.107584  0.168596  0  0.988485  0
H  H58  1  0.31184502  0.17516502  0.77700086  1  0  0.15048  0  0.933316  0  0  0.169737  0  0.988417  0  0  0.171283  0  0.988418  0  0  0.107575  0.168574  0  0.98852  0
H  H59  1  0.22299906  0.68815018  0.82483980  1  0  0.150477  0  0.933225  0  0  0.169705  0  0.988345  0  0  0.171262  0  0.988336  0  0  0.107575  0.168546  0  0.988447  0
H  H60  1  0.82483949  0.22300283  0.68814694  1  0  0.150461  0  0.933226  0  0  0.16969  0  0.988355  0  0  0.171242  0  0.988353  0  0  0.107554  0.168523  0  0.988456  0
H  H61  1  0.68815562  0.82482894  0.22300181  1  0  0.150477  0  0.933352  0  0  0.169725  0  0.988466  0  0  0.171271  0  0.988471  0  0  0.107601  0.16858  0  0.988556  0
C  C62  1  0.05348395  0.32443265  0.34339185  1  0  0.658485  0  3.950508  0  0  0.610334  0  4.252639  0  0  0.644066  0  4.242101  0  0  0.197636  0.587549  0  4.258659  0
C  C63  1  0.34339674  0.05348150  0.32442651  1  0  0.658472  0  3.950312  0  0  0.610351  0  4.252393  0  0  0.644077  0  4.241856  0  0  0.197635  0.587566  0  4.258402  0
C  C64  1  0.32440368  0.34341264  0.05346895  1  0  0.658638  0  3.950309  0  0  0.61061  0  4.252234  0  0  0.644325  0  4.241715  0  0  0.197729  0.587827  0  4.258267  0
C  C65  1  0.94651530  0.67556480  0.65660959  1  0  0.658367  0  3.950618  0  0  0.610162  0  4.252807  0  0  0.643904  0  4.242254  0  0  0.197592  0.587376  0  4.258843  0
C  C66  1  0.65660676  0.94652205  0.67556543  1  0  0.658393  0  3.950682  0  0  0.610392  0  4.252565  0  0  0.644124  0  4.242023  0  0  0.197713  0.5876  0  4.258579  0
C  C67  1  0.67558183  0.65659003  0.94653147  1  0  0.658758  0  3.950043  0  0  0.610736  0  4.251951  0  0  0.644468  0  4.241397  0  0  0.19781  0.587935  0  4.258014  0
C  C68  1  0.02658006  0.41419705  0.42484806  1  0  -0.125191  0  3.67805  0  0  -0.112349  0  3.913576  0  0  -0.116202  0  3.930779  0  0  -0.010029  -0.110136  0  3.902267  0
C  C69  1  0.42485500  0.02658067  0.41419000  1  0  -0.125037  0  3.678007  0  0  -0.112182  0  3.913498  0  0  -0.116027  0  3.930698  0  0  -0.009977  -0.109975  0  3.90217  0
C  C70  1  0.41418498  0.42485893  0.02657318  1  0  -0.125061  0  3.677893  0  0  -0.11232  0  3.91338  0  0  -0.116167  0  3.930583  0  0  -0.010018  -0.110118  0  3.902074  0
C  C71  1  0.97341919  0.58580039  0.57515168  1  0  -0.125264  0  3.678106  0  0  -0.112391  0  3.913602  0  0  -0.116246  0  3.930797  0  0  -0.010051  -0.110182  0  3.902307  0
C  C72  1  0.57515096  0.97342376  0.58580220  1  0  -0.125119  0  3.678147  0  0  -0.112367  0  3.913617  0  0  -0.116222  0  3.930821  0  0  -0.010051  -0.110151  0  3.902292  0
C  C73  1  0.58580285  0.57514549  0.97342480  1  0  -0.125152  0  3.678016  0  0  -0.112437  0  3.913493  0  0  -0.116285  0  3.930689  0  0  -0.010028  -0.110219  0  3.902189  0
C  C74  1  0.10687321  0.42030113  0.49853750  1  0  0.042356  0  3.766504  0  0  0.050208  0  3.998531  0  0  0.050393  0  4.022267  0  0  -0.006269  0.050098  0  3.982572  0
C  C75  1  0.49854096  0.10687620  0.42029643  1  0  0.042207  0  3.766682  0  0  0.050018  0  3.998751  0  0  0.050206  0  4.022482  0  0  -0.006346  0.049906  0  3.982768  0
C  C76  1  0.42029995  0.49854157  0.10687045  1  0  0.042141  0  3.766828  0  0  0.050152  0  3.998619  0  0  0.050348  0  4.02234  0  0  -0.006302  0.050037  0  3.982666  0
C  C77  1  0.89312677  0.57969719  0.50146365  1  0  0.042343  0  3.766557  0  0  0.05022  0  3.998535  0  0  0.050412  0  4.02226  0  0  -0.00629  0.050104  0  3.982589  0
C  C78  1  0.50146499  0.89312823  0.57969577  1  0  0.042306  0  3.76665  0  0  0.050257  0  3.998543  0  0  0.050446  0  4.022271  0  0  -0.006331  0.050125  0  3.982584  0
C  C79  1  0.57969345  0.50146023  0.89312871  1  0  0.042083  0  3.766902  0  0  0.050146  0  3.998665  0  0  0.050341  0  4.02238  0  0  -0.006341  0.050022  0  3.982709  0
C  C80  1  0.21498760  0.34264133  0.50047558  1  0  -0.109345  0  3.704273  0  0  -0.128389  0  3.952831  0  0  -0.130972  0  3.972922  0  0  -0.089631  -0.126539  0  3.939366  0
C  C81  1  0.50047855  0.21499051  0.34263358  1  0  -0.10915  0  3.704317  0  0  -0.128212  0  3.952892  0  0  -0.130795  0  3.972988  0  0  -0.089593  -0.126372  0  3.939415  0
C  C82  1  0.34263717  0.50047889  0.21498495  1  0  -0.109276  0  3.704067  0  0  -0.128361  0  3.952634  0  0  -0.130958  0  3.972711  0  0  -0.08964  -0.12651  0  3.93918  0
C  C83  1  0.78501251  0.65735611  0.49952486  1  0  -0.109329  0  3.704311  0  0  -0.128378  0  3.952888  0  0  -0.130974  0  3.972962  0  0  -0.089648  -0.126522  0  3.93943  0
C  C84  1  0.49952714  0.78501567  0.65736090  1  0  -0.109276  0  3.704213  0  0  -0.128331  0  3.952739  0  0  -0.130917  0  3.972825  0  0  -0.089623  -0.126472  0  3.939265  0
C  C85  1  0.65735697  0.49952379  0.78501562  1  0  -0.10928  0  3.704008  0  0  -0.128385  0  3.952556  0  0  -0.130974  0  3.972635  0  0  -0.089665  -0.126541  0  3.939089  0
C  C86  1  0.29135018  0.35104838  0.57336526  1  0  -0.080255  0  3.787805  0  0  -0.092096  0  4.037094  0  0  -0.094078  0  4.058676  0  0  -0.096604  -0.090706  0  4.022366  0
C  C87  1  0.57336478  0.29135468  0.35104224  1  0  -0.080303  0  3.787889  0  0  -0.092229  0  4.037201  0  0  -0.094214  0  4.058786  0  0  -0.096691  -0.090833  0  4.022467  0
C  C88  1  0.35104565  0.57336521  0.29135289  1  0  -0.080247  0  3.787762  0  0  -0.092167  0  4.037066  0  0  -0.094149  0  4.058656  0  0  -0.096643  -0.09078  0  4.022354  0
C  C89  1  0.70865239  0.64894995  0.42663713  1  0  -0.080334  0  3.787853  0  0  -0.092203  0  4.037146  0  0  -0.094176  0  4.05872  0  0  -0.096638  -0.090819  0  4.022431  0
C  C90  1  0.42664018  0.70865062  0.64895253  1  0  -0.080344  0  3.78781  0  0  -0.092203  0  4.037097  0  0  -0.094187  0  4.058679  0  0  -0.096679  -0.090822  0  4.02238  0
C  C91  1  0.64895001  0.42663311  0.70864989  1  0  -0.080307  0  3.787785  0  0  -0.092207  0  4.037078  0  0  -0.094187  0  4.058663  0  0  -0.096625  -0.090825  0  4.022349  0
C  C92  1  0.26352494  0.43607104  0.64999389  1  0  -0.073725  0  3.785905  0  0  -0.086813  0  4.032133  0  0  -0.087338  0  4.051386  0  0  -0.096534  -0.086356  0  4.019025  0
C  C93  1  0.64999268  0.26353211  0.43606454  1  0  -0.073758  0  3.785809  0  0  -0.086838  0  4.032056  0  0  -0.08736  0  4.051316  0  0  -0.096584  -0.086375  0  4.01892  0
C  C94  1  0.43606335  0.64999384  0.26353115  1  0  -0.073719  0  3.785791  0  0  -0.086791  0  4.032045  0  0  -0.087308  0  4.051293  0  0  -0.096583  -0.086318  0  4.018916  0
C  C95  1  0.73647305  0.56392902  0.35000646  1  0  -0.073631  0  3.785906  0  0  -0.086712  0  4.032132  0  0  -0.087242  0  4.051387  0  0  -0.096489  -0.086253  0  4.019015  0
C  C96  1  0.35001414  0.73647233  0.56393005  1  0  -0.07363  0  3.785781  0  0  -0.086683  0  4.031996  0  0  -0.087206  0  4.051251  0  0  -0.09648  -0.08624  0  4.018901  0
C  C97  1  0.56393206  0.35000623  0.73647136  1  0  -0.073666  0  3.785947  0  0  -0.086755  0  4.032185  0  0  -0.087273  0  4.051436  0  0  -0.096541  -0.086288  0  4.019045  0
C  C98  1  0.16041143  0.51193804  0.65066521  1  0  -0.12336  0  3.767164  0  0  -0.139104  0  4.015126  0  0  -0.141794  0  4.035353  0  0  -0.095592  -0.137323  0  4.001561  0
C  C99  1  0.65066384  0.16041600  0.51193815  1  0  -0.123275  0  3.767269  0  0  -0.139064  0  4.015211  0  0  -0.141758  0  4.035438  0  0  -0.09555  -0.137282  0  4.001611  0
C  C100  1  0.51193719  0.65066483  0.16041164  1  0  -0.123321  0  3.76716  0  0  -0.139093  0  4.015157  0  0  -0.141777  0  4.035375  0  0  -0.095569  -0.13731  0  4.00158  0
C  C101  1  0.83959141  0.48805854  0.34933490  1  0  -0.123416  0  3.767155  0  0  -0.139181  0  4.015145  0  0  -0.141872  0  4.03537  0  0  -0.095596  -0.13739  0  4.001559  0
C  C102  1  0.34934325  0.83958669  0.48805501  1  0  -0.123282  0  3.767165  0  0  -0.139067  0  4.015147  0  0  -0.141754  0  4.03537  0  0  -0.095562  -0.137274  0  4.001557  0
C  C103  1  0.48805549  0.34933611  0.83959035  1  0  -0.123348  0  3.767106  0  0  -0.139093  0  4.015093  0  0  -0.141792  0  4.035319  0  0  -0.095566  -0.137307  0  4.001489  0
C  C104  1  0.07914894  0.50786109  0.57523062  1  0  0.034805  0  3.785593  0  0  0.041626  0  4.017324  0  0  0.04176  0  4.041294  0  0  -0.010251  0.041574  0  4.001221  0
C  C105  1  0.57522970  0.07915479  0.50785922  1  0  0.034732  0  3.785597  0  0  0.04157  0  4.017334  0  0  0.04171  0  4.0413  0  0  -0.010284  0.041527  0  4.001191  0
C  C106  1  0.50785734  0.57522860  0.07915351  1  0  0.034818  0  3.78579  0  0  0.041636  0  4.017458  0  0  0.04177  0  4.041424  0  0  -0.010294  0.041585  0  4.001349  0
C  C107  1  0.92084859  0.49213635  0.42477113  1  0  0.034793  0  3.78557  0  0  0.041608  0  4.017321  0  0  0.041746  0  4.041286  0  0  -0.010276  0.041555  0  4.001215  0
C  C108  1  0.42477612  0.92085052  0.49213454  1  0  0.034569  0  3.785745  0  0  0.041359  0  4.017471  0  0  0.041493  0  4.041441  0  0  -0.010323  0.041316  0  4.001336  0
C  C109  1  0.49213322  0.42477495  0.92084755  1  0  0.0348  0  3.785785  0  0  0.041552  0  4.017506  0  0  0.041686  0  4.041475  0  0  -0.01027  0.041518  0  4.001371  0
C  C110  1  0.97063801  0.37750823  0.89801760  1  0  -0.441531  0  3.559428  0  0  -0.513025  0  3.808047  0  0  -0.517345  0  3.813586  0  0  -0.228631  -0.509837  0  3.804429  0
C  C111  1  0.89802108  0.97063586  0.37750834  1  0  -0.44146  0  3.559397  0  0  -0.51294  0  3.808006  0  0  -0.517258  0  3.813545  0  0  -0.228584  -0.50975  0  3.804373  0
C  C112  1  0.37750906  0.89802452  0.97063822  1  0  -0.441408  0  3.559249  0  0  -0.512846  0  3.807943  0  0  -0.51717  0  3.813489  0  0  -0.228603  -0.509654  0  3.804313  0
C  C113  1  0.02936529  0.62249097  0.10198281  1  0  -0.441465  0  3.55937  0  0  -0.512952  0  3.808008  0  0  -0.517285  0  3.813544  0  0  -0.228645  -0.509775  0  3.804398  0
C  C114  1  0.10197777  0.02936420  0.62249101  1  0  -0.441456  0  3.55938  0  0  -0.512941  0  3.808011  0  0  -0.51726  0  3.813553  0  0  -0.228581  -0.509754  0  3.804384  0
C  C115  1  0.62249265  0.10197381  0.02936518  1  0  -0.441359  0  3.559133  0  0  -0.512861  0  3.807836  0  0  -0.517189  0  3.813368  0  0  -0.228567  -0.509665  0  3.804203  0
C  C116  1  0.79748100  0.34464219  0.08183455  1  0  -0.42876  0  3.552964  0  0  -0.497125  0  3.795074  0  0  -0.501027  0  3.800245  0  0  -0.228987  -0.494257  0  3.791616  0
C  C117  1  0.08183655  0.79747377  0.34464640  1  0  -0.429075  0  3.553044  0  0  -0.497405  0  3.795153  0  0  -0.501272  0  3.800332  0  0  -0.229087  -0.494544  0  3.79171  0
C  C118  1  0.34463739  0.08183997  0.79747983  1  0  -0.428913  0  3.553181  0  0  -0.49732  0  3.795305  0  0  -0.501195  0  3.800496  0  0  -0.229094  -0.494455  0  3.791842  0
C  C119  1  0.20252058  0.65535700  0.91816447  1  0  -0.428831  0  3.552954  0  0  -0.497165  0  3.795076  0  0  -0.501044  0  3.800245  0  0  -0.229006  -0.494309  0  3.791638  0
C  C120  1  0.91816357  0.20252368  0.65535743  1  0  -0.428841  0  3.553023  0  0  -0.497182  0  3.795095  0  0  -0.501056  0  3.800274  0  0  -0.229005  -0.494314  0  3.791645  0
C  C121  1  0.65536399  0.91815486  0.20252170  1  0  -0.429026  0  3.553281  0  0  -0.497429  0  3.79538  0  0  -0.501313  0  3.800567  0  0  -0.229104  -0.494583  0  3.791927  0
S  S122  1  0.94924409  0.35888313  0.05434602  1  0  0.750198  0  3.602736  0  0  0.726764  0  4.051731  0  0  0.743176  0  4.047361  0  0  0.316965  0.715052  0  4.054361  0
S  S123  1  0.05434693  0.94924516  0.35888033  1  0  0.750166  0  3.602835  0  0  0.726747  0  4.051819  0  0  0.743156  0  4.047433  0  0  0.316967  0.715033  0  4.054428  0
S  S124  1  0.35886984  0.05435525  0.94924939  1  0  0.750154  0  3.60281  0  0  0.726753  0  4.051777  0  0  0.743164  0  4.047398  0  0  0.317  0.71504  0  4.054391  0
S  S125  1  0.05075874  0.64111345  0.94565324  1  0  0.750179  0  3.602825  0  0  0.726714  0  4.051821  0  0  0.743138  0  4.047433  0  0  0.316954  0.715005  0  4.054468  0
S  S126  1  0.94565411  0.05075752  0.64111731  1  0  0.750158  0  3.603049  0  0  0.726737  0  4.052046  0  0  0.743141  0  4.047672  0  0  0.316958  0.715011  0  4.054672  0
S  S127  1  0.64112915  0.94564395  0.05075348  1  0  0.750271  0  3.60271  0  0  0.72688  0  4.051692  0  0  0.7433  0  4.047308  0  0  0.317041  0.715147  0  4.05434  0
O  O128  1  0.12373722  0.34820160  0.24857594  1  0  -0.733243  0  2.062286  0  0  -0.68319  0  2.316423  0  0  -0.710094  0  2.30891  0  0  -0.398077  -0.663739  0  2.320806  0
O  O129  1  0.24858311  0.12373979  0.34819460  1  0  -0.733213  0  2.062194  0  0  -0.683194  0  2.316347  0  0  -0.710099  0  2.308825  0  0  -0.398062  -0.663739  0  2.320727  0
O  O130  1  0.34818343  0.24858304  0.12373367  1  0  -0.733498  0  2.06152  0  0  -0.68351  0  2.315626  0  0  -0.710416  0  2.308112  0  0  -0.398117  -0.664041  0  2.32001  0
O  O131  1  0.87625672  0.65179671  0.75142375  1  0  -0.733152  0  2.062134  0  0  -0.6831  0  2.316364  0  0  -0.710015  0  2.308843  0  0  -0.398093  -0.66366  0  2.320739  0
O  O132  1  0.75141621  0.87626289  0.65180250  1  0  -0.733157  0  2.062452  0  0  -0.683134  0  2.316521  0  0  -0.710035  0  2.308994  0  0  -0.398052  -0.663692  0  2.32089  0
O  O133  1  0.65182200  0.75141354  0.87627022  1  0  -0.73349  0  2.06177  0  0  -0.683542  0  2.316029  0  0  -0.710449  0  2.308497  0  0  -0.398189  -0.664089  0  2.320415  0
O  O134  1  0.00798009  0.23212635  0.36881067  1  0  -0.657234  0  1.905802  0  0  -0.613377  0  2.13646  0  0  -0.636307  0  2.128094  0  0  -0.327924  -0.596832  0  2.141514  0
O  O135  1  0.36881953  0.00797219  0.23212305  1  0  -0.657257  0  1.905699  0  0  -0.613341  0  2.136204  0  0  -0.636265  0  2.127839  0  0  -0.327898  -0.596801  0  2.141255  0
O  O136  1  0.23211845  0.36882992  0.00798311  1  0  -0.657141  0  1.906717  0  0  -0.613252  0  2.137177  0  0  -0.636171  0  2.128816  0  0  -0.327929  -0.59672  0  2.142249  0
O  O137  1  0.99202069  0.76786673  0.63119297  1  0  -0.657158  0  1.905988  0  0  -0.613271  0  2.136674  0  0  -0.636193  0  2.128295  0  0  -0.32786  -0.596732  0  2.141733  0
O  O138  1  0.63118198  0.99203311  0.76787319  1  0  -0.65727  0  1.90573  0  0  -0.613391  0  2.136174  0  0  -0.636317  0  2.12781  0  0  -0.327989  -0.596855  0  2.141222  0
O  O139  1  0.76787039  0.63116229  0.99203896  1  0  -0.657248  0  1.906115  0  0  -0.613331  0  2.136534  0  0  -0.636255  0  2.12816  0  0  -0.32796  -0.596801  0  2.141609  0
O  O140  1  0.01007275  0.23526582  0.09203506  1  0  -0.749034  0  1.99499  0  0  -0.693903  0  2.271776  0  0  -0.714802  0  2.260395  0  0  -0.446486  -0.678356  0  2.278969  0
O  O141  1  0.09203576  0.01007026  0.23526511  1  0  -0.748981  0  1.995062  0  0  -0.693856  0  2.271853  0  0  -0.71475  0  2.260459  0  0  -0.446481  -0.678307  0  2.279033  0
O  O142  1  0.23525633  0.09204281  0.01006637  1  0  -0.74899  0  1.995127  0  0  -0.693857  0  2.271911  0  0  -0.714752  0  2.260528  0  0  -0.446466  -0.678316  0  2.279103  0
O  O143  1  0.98992776  0.76472901  0.90796322  1  0  -0.749102  0  1.995078  0  0  -0.693903  0  2.27185  0  0  -0.714797  0  2.260457  0  0  -0.446474  -0.678363  0  2.279024  0
O  O144  1  0.90796456  0.98993156  0.76473197  1  0  -0.749032  0  1.9952  0  0  -0.693874  0  2.271994  0  0  -0.714769  0  2.260606  0  0  -0.446463  -0.678342  0  2.279169  0
O  O145  1  0.76474086  0.90796249  0.98992979  1  0  -0.749065  0  1.995074  0  0  -0.693915  0  2.271869  0  0  -0.714813  0  2.260485  0  0  -0.44652  -0.678378  0  2.27905  0
