# generated using pymatgen
data_AgH25C13BrN6
_symmetry_space_group_name_H-M   'P 1'
_cell_length_a   9.71497902
_cell_length_b   10.80046688
_cell_length_c   11.83248391
_cell_angle_alpha   96.35274022
_cell_angle_beta   109.03330513
_cell_angle_gamma   108.10507896
_symmetry_Int_Tables_number   1
_chemical_formula_structural   AgH25C13BrN6
_chemical_formula_sum   'Ag2 H50 C26 Br2 N12'
_cell_volume   1084.05924010
_cell_formula_units_Z   2
loop_
 _symmetry_equiv_pos_site_id
 _symmetry_equiv_pos_as_xyz
  1  'x, y, z'
loop_
 _atom_site_type_symbol
 _atom_site_label
 _atom_site_symmetry_multiplicity
 _atom_site_fract_x
 _atom_site_fract_y
 _atom_site_fract_z
 _atom_site_occupancy
 _atom_site_hle17_bader_spin_density
 _atom_site_hle17_ddec_charge
 _atom_site_hle17_ddec_spin_density
 _atom_site_hle17_ddec_sum_bond_order
 _atom_site_hle17_magmom
 _atom_site_hse06_10hf_bader_spin_density
 _atom_site_hse06_10hf_ddec_charge
 _atom_site_hse06_10hf_ddec_spin_density
 _atom_site_hse06_10hf_ddec_sum_bond_order
 _atom_site_hse06_10hf_magmom
 _atom_site_hse06_bader_spin_density
 _atom_site_hse06_ddec_charge
 _atom_site_hse06_ddec_spin_density
 _atom_site_hse06_ddec_sum_bond_order
 _atom_site_hse06_magmom
 _atom_site_pbe_bader_spin_density
 _atom_site_pbe_cm5_charge
 _atom_site_pbe_ddec_charge
 _atom_site_pbe_ddec_spin_density
 _atom_site_pbe_ddec_sum_bond_order
 _atom_site_pbe_magmom
Ag  Ag0  1  0.84591037  0.36153593  0.49702662  1  0  0.45915  0  1.654971  0  0  0.331677  0  2.143342  0  0  0.359787  0  2.095321  0  0  0.317462  0.313598  0  2.175744  0
Ag  Ag1  1  0.15409734  0.63845328  0.50297089  1  0  0.459087  0  1.65502  0  0  0.331631  0  2.143422  0  0  0.359732  0  2.095398  0  0  0.31742  0.313551  0  2.175822  0
H  H2  1  0.31521977  0.01323163  0.30585789  1  0  0.098681  0  0.972397  0  0  0.109936  0  1.034978  0  0  0.112475  0  1.033942  0  0  0.101258  0.108128  0  1.035566  0
H  H3  1  0.68477634  0.98678045  0.69415344  1  0  0.098657  0  0.972608  0  0  0.109895  0  1.035238  0  0  0.112435  0  1.0342  0  0  0.101261  0.10809  0  1.035824  0
H  H4  1  0.05645035  0.05822033  0.84532059  1  0  0.088889  0  0.95674  0  0  0.107615  0  1.020911  0  0  0.108577  0  1.020894  0  0  0.101099  0.106517  0  1.021401  0
H  H5  1  0.94354440  0.94176913  0.15467600  1  0  0.08885  0  0.956861  0  0  0.107552  0  1.021073  0  0  0.108507  0  1.021051  0  0  0.101097  0.106455  0  1.021559  0
H  H6  1  0.07479352  0.92413800  0.75424588  1  0  0.091663  0  0.945618  0  0  0.112216  0  1.009073  0  0  0.1134  0  1.008741  0  0  0.093366  0.111146  0  1.009468  0
H  H7  1  0.92519605  0.07585936  0.24574400  1  0  0.091532  0  0.945686  0  0  0.112106  0  1.009147  0  0  0.113288  0  1.008816  0  0  0.093334  0.111035  0  1.009541  0
H  H8  1  0.89657185  0.90015238  0.77481921  1  0  0.084363  0  0.925496  0  0  0.104784  0  0.988416  0  0  0.106162  0  0.987398  0  0  0.093044  0.104045  0  0.9884  0
H  H9  1  0.10342206  0.09984496  0.22517268  1  0  0.084342  0  0.925576  0  0  0.104773  0  0.988483  0  0  0.106149  0  0.987468  0  0  0.093054  0.104037  0  0.988467  0
H  H10  1  0.73785693  0.85467076  0.53817247  1  0  0.088322  0  0.940575  0  0  0.109127  0  1.002294  0  0  0.109867  0  1.002457  0  0  0.093044  0.108575  0  1.002227  0
H  H11  1  0.26213970  0.14533753  0.46181842  1  0  0.088323  0  0.940452  0  0  0.109083  0  1.002256  0  0  0.109822  0  1.002421  0  0  0.093023  0.108531  0  1.00219  0
H  H12  1  0.91970836  0.86304191  0.52960708  1  0  0.100571  0  0.954425  0  0  0.11886  0  1.020789  0  0  0.119879  0  1.020667  0  0  0.091538  0.118119  0  1.02098  0
H  H13  1  0.08027360  0.13695548  0.47037906  1  0  0.100495  0  0.954461  0  0  0.118886  0  1.020703  0  0  0.119913  0  1.020588  0  0  0.091546  0.118145  0  1.020895  0
H  H14  1  0.82650382  0.97238696  0.46404365  1  0  0.093352  0  0.958402  0  0  0.11325  0  1.024046  0  0  0.113531  0  1.024986  0  0  0.103801  0.112719  0  1.024146  0
H  H15  1  0.17349051  0.02762838  0.53594630  1  0  0.093267  0  0.958531  0  0  0.113241  0  1.024095  0  0  0.113526  0  1.02504  0  0  0.103842  0.112705  0  1.024205  0
H  H16  1  0.21598365  0.16543351  0.72398031  1  0  0.096681  0  0.977996  0  0  0.117046  0  1.04077  0  0  0.117784  0  1.041724  0  0  0.107299  0.11622  0  1.040732  0
H  H17  1  0.78402513  0.83455565  0.27601665  1  0  0.096769  0  0.97801  0  0  0.117096  0  1.040816  0  0  0.117836  0  1.041767  0  0  0.107339  0.116265  0  1.040783  0
H  H18  1  0.29933764  0.29899396  0.85791211  1  0  0.071394  0  0.963471  0  0  0.089948  0  1.032197  0  0  0.090958  0  1.031416  0  0  0.089598  0.088864  0  1.03321  0
H  H19  1  0.70067323  0.70100236  0.14208932  1  0  0.071421  0  0.963499  0  0  0.089974  0  1.032231  0  0  0.090988  0  1.031449  0  0  0.089621  0.088888  0  1.033244  0
H  H20  1  0.26113130  0.33417945  0.70894659  1  0  0.089844  0  0.943054  0  0  0.113477  0  1.002901  0  0  0.113807  0  1.003707  0  0  0.098018  0.113151  0  1.002523  0
H  H21  1  0.73887763  0.66580760  0.29104771  1  0  0.089856  0  0.943206  0  0  0.113516  0  1.002995  0  0  0.113847  0  1.003802  0  0  0.098076  0.113192  0  1.002611  0
H  H22  1  0.07297020  0.45009002  0.73297707  1  0  0.082827  0  0.978403  0  0  0.097142  0  1.057674  0  0  0.098666  0  1.055819  0  0  0.082485  0.095783  0  1.059439  0
H  H23  1  0.92705381  0.54991620  0.26702862  1  0  0.08283  0  0.978257  0  0  0.097159  0  1.057575  0  0  0.098687  0  1.055714  0  0  0.082453  0.095796  0  1.059338  0
H  H24  1  0.13226232  0.42588501  0.88679038  1  0  0.077999  0  0.936037  0  0  0.098451  0  0.997797  0  0  0.099472  0  0.997105  0  0  0.091842  0.097465  0  0.998704  0
H  H25  1  0.86775731  0.57410896  0.11320730  1  0  0.077995  0  0.935998  0  0  0.098499  0  0.997744  0  0  0.099527  0  0.997052  0  0  0.09191  0.097509  0  0.998652  0
H  H26  1  0.92932508  0.36227799  0.78640014  1  0  0.105938  0  0.934429  0  0  0.125712  0  0.992878  0  0  0.127089  0  0.992256  0  0  0.10503  0.124322  0  0.99404  0
H  H27  1  0.07067517  0.63772869  0.21360344  1  0  0.106016  0  0.934685  0  0  0.125851  0  0.993055  0  0  0.127232  0  0.992437  0  0  0.105072  0.124459  0  0.994219  0
H  H28  1  0.68396532  0.01428730  0.28677346  1  0  0.102705  0  0.948459  0  0  0.121728  0  1.013444  0  0  0.12279  0  1.013199  0  0  0.108211  0.120798  0  1.014133  0
H  H29  1  0.31603575  0.98571634  0.71323011  1  0  0.102725  0  0.948567  0  0  0.121739  0  1.013552  0  0  0.1228  0  1.013306  0  0  0.108221  0.120809  0  1.014242  0
H  H30  1  0.58053769  0.90709636  0.13615811  1  0  0.074338  0  0.970162  0  0  0.093636  0  1.040338  0  0  0.093792  0  1.041316  0  0  0.093949  0.093295  0  1.040011  0
H  H31  1  0.41946102  0.09290445  0.86384885  1  0  0.074308  0  0.970143  0  0  0.093557  0  1.04038  0  0  0.093707  0  1.04136  0  0  0.093923  0.093219  0  1.040052  0
H  H32  1  0.49745417  0.88647157  0.25070641  1  0  0.088413  0  0.938271  0  0  0.108707  0  0.998548  0  0  0.1096  0  0.998909  0  0  0.095093  0.107793  0  0.999008  0
H  H33  1  0.50256149  0.11353306  0.74930538  1  0  0.088302  0  0.93804  0  0  0.108613  0  0.998334  0  0  0.109511  0  0.998683  0  0  0.095038  0.1077  0  0.998794  0
H  H34  1  0.26229042  0.92067053  0.09421956  1  0  0.085226  0  0.922363  0  0  0.106896  0  0.982596  0  0  0.108375  0  0.981587  0  0  0.096014  0.106321  0  0.982694  0
H  H35  1  0.73771433  0.07932916  0.90578809  1  0  0.085247  0  0.922351  0  0  0.106846  0  0.982639  0  0  0.108322  0  0.981635  0  0  0.095984  0.10627  0  0.982736  0
H  H36  1  0.35588242  0.95654092  0.98818280  1  0  0.086558  0  0.965247  0  0  0.106493  0  1.029941  0  0  0.107869  0  1.029428  0  0  0.097797  0.10569  0  1.030022  0
H  H37  1  0.64411551  0.04346302  0.01182672  1  0  0.086633  0  0.965141  0  0  0.106592  0  1.02979  0  0  0.107959  0  1.029278  0  0  0.097867  0.105787  0  1.029867  0
H  H38  1  0.29864004  0.07923540  0.05423080  1  0  0.097221  0  0.948392  0  0  0.117073  0  1.010588  0  0  0.118326  0  1.010287  0  0  0.106778  0.116073  0  1.011073  0
H  H39  1  0.70135287  0.92077681  0.94578221  1  0  0.097311  0  0.948425  0  0  0.117106  0  1.010661  0  0  0.118366  0  1.010345  0  0  0.106827  0.116105  0  1.011143  0
H  H40  1  0.46206198  0.36565785  0.34237529  1  0  0.113419  0  0.925435  0  0  0.132931  0  0.984016  0  0  0.134431  0  0.983313  0  0  0.109389  0.131659  0  0.984873  0
H  H41  1  0.53792446  0.63433250  0.65761323  1  0  0.113436  0  0.925439  0  0  0.132979  0  0.983969  0  0  0.134481  0  0.983267  0  0  0.109429  0.131709  0  0.984824  0
H  H42  1  0.46289102  0.45069832  0.22114627  1  0  0.08599  0  0.927872  0  0  0.108973  0  0.98457  0  0  0.109769  0  0.984468  0  0  0.098051  0.107785  0  0.985859  0
H  H43  1  0.53709327  0.54929209  0.77884251  1  0  0.085986  0  0.92787  0  0  0.108914  0  0.98463  0  0  0.109712  0  0.984526  0  0  0.098038  0.107727  0  0.985919  0
H  H44  1  0.64373873  0.46757562  0.34007717  1  0  0.081516  0  0.972875  0  0  0.095134  0  1.053598  0  0  0.096981  0  1.051246  0  0  0.08502  0.093863  0  1.055183  0
H  H45  1  0.35623514  0.53242317  0.65991452  1  0  0.081487  0  0.972733  0  0  0.095153  0  1.053426  0  0  0.097002  0  1.051075  0  0  0.085008  0.093879  0  1.055014  0
H  H46  1  0.58032499  0.21996874  0.05903450  1  0  0.094512  0  0.975273  0  0  0.110712  0  1.043757  0  0  0.112068  0  1.043297  0  0  0.103863  0.109706  0  1.044024  0
H  H47  1  0.41968349  0.78003686  0.94097205  1  0  0.09457  0  0.975157  0  0  0.110756  0  1.043646  0  0  0.112111  0  1.043187  0  0  0.103885  0.109751  0  1.04391  0
H  H48  1  0.67202052  0.39459931  0.12847398  1  0  0.088632  0  0.951797  0  0  0.112401  0  1.012558  0  0  0.112609  0  1.013418  0  0  0.099335  0.112177  0  1.012118  0
H  H49  1  0.32797383  0.60539416  0.87152196  1  0  0.088668  0  0.951743  0  0  0.112454  0  1.0125  0  0  0.112662  0  1.013359  0  0  0.099352  0.112231  0  1.012059  0
H  H50  1  0.46926724  0.32543058  0.02993186  1  0  0.073664  0  0.961753  0  0  0.092237  0  1.029808  0  0  0.093515  0  1.028618  0  0  0.090691  0.09126  0  1.030771  0
H  H51  1  0.53073606  0.67456098  0.97007225  1  0  0.073699  0  0.96166  0  0  0.092283  0  1.029714  0  0  0.093563  0  1.028523  0  0  0.090676  0.091302  0  1.030678  0
C  C52  1  0.65976598  0.08915792  0.54777729  1  0  0.159851  0  3.861834  0  0  0.154831  0  4.112935  0  0  0.160347  0  4.135573  0  0  0.070637  0.151395  0  4.097928  0
C  C53  1  0.34022841  0.91085031  0.45223751  1  0  0.159321  0  3.86251  0  0  0.154555  0  4.113377  0  0  0.160079  0  4.13601  0  0  0.070615  0.151124  0  4.098357  0
C  C54  1  0.55279890  0.09640335  0.43588071  1  0  0.161403  0  3.851894  0  0  0.156284  0  4.103056  0  0  0.161567  0  4.125664  0  0  0.073183  0.15213  0  4.087966  0
C  C55  1  0.44720118  0.90360786  0.56413669  1  0  0.161811  0  3.851876  0  0  0.156552  0  4.103064  0  0  0.161829  0  4.125675  0  0  0.073346  0.152398  0  4.087972  0
C  C56  1  0.39708778  0.00659535  0.39130790  1  0  -0.256766  0  3.778987  0  0  -0.281346  0  4.03293  0  0  -0.286066  0  4.053707  0  0  -0.116067  -0.278161  0  4.019033  0
C  C57  1  0.60291599  0.99342170  0.60870670  1  0  -0.256972  0  3.779064  0  0  -0.281467  0  4.033099  0  0  -0.286184  0  4.05388  0  0  -0.1161  -0.278283  0  4.01921  0
C  C58  1  0.93105039  0.15131728  0.66399704  1  0  0.44878  0  3.838418  0  0  0.384132  0  4.127436  0  0  0.414105  0  4.133821  0  0  0.330511  0.364079  0  4.12241  0
C  C59  1  0.06894750  0.84867922  0.33600177  1  0  0.448561  0  3.838168  0  0  0.383881  0  4.127293  0  0  0.41385  0  4.133682  0  0  0.330393  0.363836  0  4.122256  0
C  C60  1  0.99557579  0.97514343  0.76331776  1  0  -0.159153  0  3.703919  0  0  -0.256597  0  3.955088  0  0  -0.253019  0  3.964368  0  0  -0.139341  -0.258624  0  3.948497  0
C  C61  1  0.00441691  0.02484873  0.23666918  1  0  -0.158957  0  3.703965  0  0  -0.256423  0  3.955185  0  0  -0.252832  0  3.964462  0  0  -0.139323  -0.258454  0  3.948592  0
C  C62  1  0.85033893  0.92340010  0.54054017  1  0  -0.16333  0  3.689079  0  0  -0.262618  0  3.9408  0  0  -0.259648  0  3.951795  0  0  -0.145703  -0.264718  0  3.933891  0
C  C63  1  0.14965234  0.07660593  0.45944066  1  0  -0.163216  0  3.689336  0  0  -0.262578  0  3.940982  0  0  -0.259632  0  3.952002  0  0  -0.145701  -0.264675  0  3.934072  0
C  C64  1  0.21761678  0.26330652  0.76105404  1  0  -0.156634  0  3.694299  0  0  -0.252597  0  3.937479  0  0  -0.2496  0  3.94838  0  0  -0.136633  -0.254395  0  3.930255  0
C  C65  1  0.78239021  0.73669085  0.23894642  1  0  -0.156813  0  3.694638  0  0  -0.252767  0  3.937815  0  0  -0.249778  0  3.948712  0  0  -0.136789  -0.254566  0  3.9306  0
C  C66  1  0.04847008  0.37960069  0.79117480  1  0  -0.167686  0  3.727183  0  0  -0.265903  0  3.98053  0  0  -0.262337  0  3.989397  0  0  -0.146288  -0.26798  0  3.974365  0
C  C67  1  0.95155143  0.62040236  0.20882491  1  0  -0.1677  0  3.727019  0  0  -0.266053  0  3.980411  0  0  -0.262501  0  3.989276  0  0  -0.146342  -0.268121  0  3.974246  0
C  C68  1  0.54129558  0.17741864  0.25699846  1  0  0.442663  0  3.838336  0  0  0.379288  0  4.124551  0  0  0.409409  0  4.130859  0  0  0.329051  0.358437  0  4.120181  0
C  C69  1  0.45870579  0.82257590  0.74300367  1  0  0.442488  0  3.8382  0  0  0.379064  0  4.124412  0  0  0.409182  0  4.130724  0  0  0.329067  0.358215  0  4.120044  0
C  C70  1  0.56759117  0.96049949  0.21429785  1  0  -0.163091  0  3.717807  0  0  -0.261935  0  3.970651  0  0  -0.258901  0  3.981231  0  0  -0.138849  -0.263776  0  3.963558  0
C  C71  1  0.43241060  0.03948620  0.78570964  1  0  -0.162973  0  3.717743  0  0  -0.26175  0  3.97057  0  0  -0.258735  0  3.981196  0  0  -0.138692  -0.263592  0  3.963473  0
C  C72  1  0.34609876  0.00055654  0.07232180  1  0  -0.162666  0  3.70102  0  0  -0.260251  0  3.953364  0  0  -0.256835  0  3.961905  0  0  -0.135896  -0.262314  0  3.946512  0
C  C73  1  0.65388538  0.99943847  0.92768251  1  0  -0.162919  0  3.701412  0  0  -0.260396  0  3.95377  0  0  -0.256971  0  3.962296  0  0  -0.135974  -0.262461  0  3.946924  0
C  C74  1  0.52349726  0.39791348  0.28172391  1  0  -0.161721  0  3.700036  0  0  -0.261021  0  3.952624  0  0  -0.257602  0  3.96145  0  0  -0.13828  -0.263004  0  3.946816  0
C  C75  1  0.47649008  0.60209109  0.71826929  1  0  -0.161735  0  3.699968  0  0  -0.261101  0  3.952515  0  0  -0.257689  0  3.961341  0  0  -0.138282  -0.263078  0  3.946701  0
C  C76  1  0.56265230  0.30665162  0.09998154  1  0  -0.158166  0  3.706813  0  0  -0.255467  0  3.953382  0  0  -0.252092  0  3.963283  0  0  -0.13592  -0.257403  0  3.946382  0
C  C77  1  0.43734984  0.69335198  0.90002147  1  0  -0.158388  0  3.70675  0  0  -0.25574  0  3.953273  0  0  -0.252373  0  3.963184  0  0  -0.135947  -0.257671  0  3.946272  0
Br  Br78  1  0.07472862  0.38132356  0.40236074  1  0  -0.628647  0  1.058068  0  0  -0.550483  0  1.388396  0  0  -0.572928  0  1.35726  0  0  -0.349633  -0.53507  0  1.410176  0
Br  Br79  1  0.92526714  0.61867785  0.59760658  1  0  -0.628627  0  1.058044  0  0  -0.550441  0  1.388346  0  0  -0.572893  0  1.357217  0  0  -0.349615  -0.535027  0  1.410124  0
N  N80  1  0.81417921  0.18059648  0.59529487  1  0  -0.498816  0  3.252254  0  0  -0.437678  0  3.552814  0  0  -0.461387  0  3.562016  0  0  -0.374057  -0.422216  0  3.54653  0
N  N81  1  0.18583269  0.81940703  0.40471160  1  0  -0.498497  0  3.252192  0  0  -0.437469  0  3.55275  0  0  -0.461174  0  3.56195  0  0  -0.374016  -0.422011  0  3.546455  0
N  N82  1  0.93859507  0.02505883  0.65498597  1  0  -0.18982  0  3.463294  0  0  -0.090429  0  3.707604  0  0  -0.110244  0  3.730324  0  0  -0.305337  -0.076892  0  3.692063  0
N  N83  1  0.06141054  0.97494765  0.34501565  1  0  -0.18973  0  3.463295  0  0  -0.090319  0  3.707619  0  0  -0.110132  0  3.730349  0  0  -0.305286  -0.076783  0  3.692071  0
N  N84  1  0.06109785  0.25302574  0.75124327  1  0  -0.182737  0  3.443726  0  0  -0.085422  0  3.689941  0  0  -0.104923  0  3.711604  0  0  -0.306323  -0.071598  0  3.673997  0
N  N85  1  0.93890814  0.74697425  0.24874613  1  0  -0.182735  0  3.443674  0  0  -0.085403  0  3.689914  0  0  -0.104902  0  3.71159  0  0  -0.306339  -0.071587  0  3.67397  0
N  N86  1  0.60126551  0.19740011  0.37723619  1  0  -0.495161  0  3.266628  0  0  -0.433137  0  3.56783  0  0  -0.456782  0  3.576713  0  0  -0.377423  -0.416682  0  3.56158  0
N  N87  1  0.39873193  0.80260273  0.62277058  1  0  -0.495133  0  3.266782  0  0  -0.43309  0  3.568045  0  0  -0.45673  0  3.576926  0  0  -0.377395  -0.416638  0  3.561799  0
N  N88  1  0.49774326  0.05675733  0.17438579  1  0  -0.198719  0  3.451151  0  0  -0.102235  0  3.699998  0  0  -0.12158  0  3.721692  0  0  -0.311502  -0.088411  0  3.683997  0
N  N89  1  0.50226111  0.94324152  0.82562592  1  0  -0.198706  0  3.451355  0  0  -0.102262  0  3.700299  0  0  -0.121606  0  3.721987  0  0  -0.311734  -0.088434  0  3.684283  0
N  N90  1  0.52203423  0.28180465  0.20540227  1  0  -0.171273  0  3.446565  0  0  -0.073495  0  3.691715  0  0  -0.092964  0  3.713732  0  0  -0.299216  -0.059782  0  3.675832  0
N  N91  1  0.47797078  0.71819806  0.79460567  1  0  -0.171075  0  3.446547  0  0  -0.073131  0  3.691531  0  0  -0.092596  0  3.713549  0  0  -0.299173  -0.059423  0  3.675648  0
