# generated using pymatgen
data_Zn2H19C20N7O9
_symmetry_space_group_name_H-M   'P 1'
_cell_length_a   9.77359430
_cell_length_b   11.20869800
_cell_length_c   11.01365310
_cell_angle_alpha   97.06115818
_cell_angle_beta   90.56903775
_cell_angle_gamma   91.75512084
_symmetry_Int_Tables_number   1
_chemical_formula_structural   Zn2H19C20N7O9
_chemical_formula_sum   'Zn2 H19 C20 N7 O9'
_cell_volume   1196.71080192
_cell_formula_units_Z   1
loop_
 _symmetry_equiv_pos_site_id
 _symmetry_equiv_pos_as_xyz
  1  'x, y, z'
loop_
 _atom_site_type_symbol
 _atom_site_label
 _atom_site_symmetry_multiplicity
 _atom_site_fract_x
 _atom_site_fract_y
 _atom_site_fract_z
 _atom_site_occupancy
 _atom_site_pbe_bader_charge
 _atom_site_pbe_bader_spin_density
 _atom_site_pbe_cm5_charge
 _atom_site_pbe_ddec_charge
 _atom_site_pbe_ddec_spin_density
 _atom_site_pbe_ddec_sum_bond_order
 _atom_site_pbe_magmom
Zn  Zn0  1  0.36337657  0.50620125  0.47343215  1  1.279452  0  0.661488  0.842633  0  2.443826  0
Zn  Zn1  1  0.64903421  0.50485757  0.46737556  1  1.291067  0  0.665037  0.872399  0  2.393952  0
H  H2  1  0.63448122  0.36776947  0.05705802  1  0.066691  0  0.100693  0.105642  0  0.999227  0
H  H3  1  0.28510859  0.15307106  0.44140790  1  0.460854  0  0.303378  0.304181  0  0.960403  0
H  H4  1  0.95059322  0.64476627  0.74553105  1  0.468111  0  0.33451  0.324784  0  0.908691  0
H  H5  1  0.78104990  0.60104492  0.69387895  1  0.565475  0  0.310371  0.341972  0  0.963215  0
H  H6  1  0.31917181  0.97695962  0.19699033  1  0.412358  0  0.29446  0.283474  0  0.955412  0
H  H7  1  0.25058342  0.87218209  0.27242154  1  0.415914  0  0.293329  0.287667  0  0.955597  0
H  H8  1  0.20593692  0.95283157  0.01319184  1  0.613388  0  0.317928  0.347236  0  0.922022  0
H  H9  1  0.37785149  0.70092205  0.70158303  1  0.476723  0  0.285539  0.287156  0  1.043861  0
H  H10  1  0.33216851  0.84123367  0.76333929  1  0.46822  0  0.300752  0.301395  0  0.957169  0
H  H11  1  0.79450084  0.94471247  0.36933700  1  0.440571  0  0.308147  0.299343  0  0.945477  0
H  H12  1  0.73401116  0.80422432  0.40559763  1  0.506384  0  0.296766  0.312961  0  0.980377  0
H  H13  1  0.14376466  0.64120234  0.62043388  1  0.137823  0  0.13942  0.110108  0  0.96406  0
H  H14  1  0.09480041  0.43993262  0.42832138  1  0.414933  0  0.318575  0.283951  0  0.914074  0
H  H15  1  0.90613897  0.49589971  0.39814557  1  0.412027  0  0.304794  0.290624  0  0.952331  0
H  H16  1  0.38279252  0.69700054  0.24435203  1  0.102059  0  0.096632  0.124634  0  1.049497  0
H  H17  1  0.63519050  0.39017470  0.83371703  1  0.056639  0  0.101294  0.107552  0  0.994239  0
H  H18  1  0.41962408  0.91222353  0.54300274  1  0.028702  0  0.095724  0.131909  0  1.046369  0
H  H19  1  0.70027270  0.12581832  0.47145733  1  0.086148  0  0.099269  0.124096  0  1.02673  0
H  H20  1  0.33849755  0.00400543  0.43624207  1  0.429507  0  0.295263  0.28192  0  0.999497  0
C  C21  1  0.49785464  0.27295980  0.47214930  1  1.597343  0  0.21909  0.562448  0  4.160364  0
C  C22  1  0.48795918  0.13750979  0.46704398  1  0.370263  0  0.094463  0.182521  0  4.073387  0
C  C23  1  0.08590449  0.57369163  0.55781750  1  0.721603  0  0.129574  0.125935  0  3.816358  0
C  C24  1  0.50505635  0.49590305  0.23494572  1  1.537578  0  0.216978  0.610694  0  4.151373  0
C  C25  1  0.93354478  0.56764740  0.56806409  1  1.214372  0  0.257677  0.463301  0  4.146806  0
C  C26  1  0.50275843  0.74112817  0.48304186  1  1.378206  0  0.185556  0.63846  0  4.207012  0
C  C27  1  0.50437111  0.53567609  0.71623168  1  1.527729  0  0.220046  0.608611  0  4.150614  0
C  C28  1  0.38059485  0.70618731  0.14724700  1  -0.031005  0  -0.130042  -0.283074  0  4.025477  0
C  C29  1  0.32427633  0.80637124  0.10796704  1  0.305236  0  0.055643  0.169201  0  4.173877  0
C  C30  1  0.32000180  0.81864707  0.98238479  1  0.506392  0  0.048791  0.090081  0  4.063884  0
C  C31  1  0.37778426  0.73552464  0.89421280  1  0.42399  0  0.078085  0.1543  0  4.106717  0
C  C32  1  0.43912123  0.61747408  0.06254579  1  0.007604  0  -0.008833  0.079098  0  3.996908  0
C  C33  1  0.44061786  0.63194738  0.93349559  1  0.057953  0  -0.015945  -0.049429  0  3.931025  0
C  C34  1  0.50721917  0.51789974  0.10343282  1  -0.03255  0  -0.017809  -0.072005  0  3.929673  0
C  C35  1  0.58024775  0.44051837  0.02265877  1  0.010552  0  -0.098439  -0.109602  0  4.049169  0
C  C36  1  0.58186141  0.45411478  0.89780438  1  -0.023993  0  -0.102763  -0.127414  0  4.040675  0
C  C37  1  0.51055395  0.54505091  0.85294606  1  -0.045192  0  -0.018238  -0.058409  0  3.954538  0
C  C38  1  0.61251443  0.94348633  0.46063236  1  0.444983  0  0.107449  0.391385  0  4.108221  0
C  C39  1  0.50553700  0.87056290  0.49487688  1  0.060484  0  -0.166016  -0.483166  0  3.929412  0
C  C40  1  0.60445568  0.07307931  0.46838897  1  0.026534  0  -0.13024  -0.337605  0  3.965511  0
N  N41  1  0.15341126  0.50342417  0.48260386  1  -1.18415  0  -0.438128  -0.369225  0  3.272672  0
N  N42  1  0.85495347  0.52022534  0.47709831  1  -1.229909  0  -0.517371  -0.610349  0  3.238026  0
N  N43  1  0.35601031  0.09336653  0.46016124  1  -1.236981  0  -0.592666  -0.57794  0  3.399683  0
N  N44  1  0.88493370  0.61273089  0.67674210  1  -1.285079  0  -0.536036  -0.572852  0  3.268741  0
N  N45  1  0.26181705  0.89840211  0.18759195  1  -1.184562  0  -0.616972  -0.646064  0  3.273269  0
N  N46  1  0.37814883  0.76389189  0.77598537  1  -1.265334  0  -0.60871  -0.61479  0  3.398835  0
N  N47  1  0.73298336  0.89606541  0.41936550  1  -1.271061  0  -0.585231  -0.602519  0  3.312694  0
O  O48  1  0.38424657  0.32304020  0.45709881  1  -1.168842  0  -0.321032  -0.546378  0  2.324081  0
O  O49  1  0.61400456  0.32578255  0.49051671  1  -1.168216  0  -0.312462  -0.532923  0  2.317848  0
O  O50  1  0.39135892  0.50687291  0.29062027  1  -1.163456  0  -0.323534  -0.556581  0  2.337947  0
O  O51  1  0.61725379  0.46695391  0.28210366  1  -1.16522  0  -0.328835  -0.561045  0  2.276823  0
O  O52  1  0.38829456  0.68804109  0.50739393  1  -1.184483  0  -0.34855  -0.599909  0  2.324096  0
O  O53  1  0.61021430  0.68242097  0.44811900  1  -1.188835  0  -0.327189  -0.576201  0  2.31087  0
O  O54  1  0.38830177  0.51128846  0.66465564  1  -1.165849  0  -0.314543  -0.546894  0  2.289229  0
O  O55  1  0.61680045  0.54610153  0.65905046  1  -1.187428  0  -0.305638  -0.564389  0  2.352554  0
O  O56  1  0.25814166  0.91655188  0.94322370  1  -1.141725  0  -0.371498  -0.442909  0  2.274517  0
