# generated using pymatgen
data_GdH11C5O8
_symmetry_space_group_name_H-M   'P 1'
_cell_length_a   6.57826936
_cell_length_b   7.79126113
_cell_length_c   9.92279903
_cell_angle_alpha   109.49594276
_cell_angle_beta   89.99922484
_cell_angle_gamma   89.99941205
_symmetry_Int_Tables_number   1
_chemical_formula_structural   GdH11C5O8
_chemical_formula_sum   'Gd2 H22 C10 O16'
_cell_volume   479.41437186
_cell_formula_units_Z   2
loop_
 _symmetry_equiv_pos_site_id
 _symmetry_equiv_pos_as_xyz
  1  'x, y, z'
loop_
 _atom_site_type_symbol
 _atom_site_label
 _atom_site_symmetry_multiplicity
 _atom_site_fract_x
 _atom_site_fract_y
 _atom_site_fract_z
 _atom_site_occupancy
 _atom_site_hle17_bader_spin_density
 _atom_site_hle17_ddec_charge
 _atom_site_hle17_ddec_spin_density
 _atom_site_hle17_ddec_sum_bond_order
 _atom_site_hle17_magmom
 _atom_site_hse06_10hf_bader_spin_density
 _atom_site_hse06_10hf_ddec_charge
 _atom_site_hse06_10hf_ddec_spin_density
 _atom_site_hse06_10hf_ddec_sum_bond_order
 _atom_site_hse06_10hf_magmom
 _atom_site_hse06_bader_spin_density
 _atom_site_hse06_ddec_charge
 _atom_site_hse06_ddec_spin_density
 _atom_site_hse06_ddec_sum_bond_order
 _atom_site_hse06_magmom
 _atom_site_pbe_bader_spin_density
 _atom_site_pbe_cm5_charge
 _atom_site_pbe_ddec_charge
 _atom_site_pbe_ddec_spin_density
 _atom_site_pbe_ddec_sum_bond_order
 _atom_site_pbe_magmom
Gd  Gd0  1  0.75000715  0.50506224  0.74884853  1  0  2.139588  0  1.802981  0  0  2.04572  0  2.16522  0  0  2.100193  0  2.108625  0  0  1.46426  2.002824  0  2.211241  0
Gd  Gd1  1  0.24999329  0.49493895  0.25115237  1  0  2.139529  0  1.803072  0  0  2.045702  0  2.165233  0  0  2.100139  0  2.108691  0  0  1.464275  2.002818  0  2.211252  0
H  H2  1  0.87296793  0.70435705  0.05408763  1  0  0.446817  0  0.848454  0  0  0.418099  0  0.907746  0  0  0.42886  0  0.892312  0  0  0.302696  0.410312  0  0.918915  0
H  H3  1  0.37297714  0.29564105  0.94591338  1  0  0.446936  0  0.848345  0  0  0.418238  0  0.907603  0  0  0.429002  0  0.892163  0  0  0.302763  0.410428  0  0.918794  0
H  H4  1  0.12703403  0.29564415  0.94591227  1  0  0.446803  0  0.848476  0  0  0.41813  0  0.907714  0  0  0.428893  0  0.892274  0  0  0.302698  0.410335  0  0.91889  0
H  H5  1  0.62702482  0.70435741  0.05408780  1  0  0.446934  0  0.84835  0  0  0.418237  0  0.907608  0  0  0.429001  0  0.892167  0  0  0.302766  0.410426  0  0.918798  0
H  H6  1  0.62698011  0.71263395  0.55296725  1  0  0.448748  0  0.845385  0  0  0.419795  0  0.904819  0  0  0.430789  0  0.888979  0  0  0.302018  0.411843  0  0.916266  0
H  H7  1  0.12697842  0.28736351  0.44703678  1  0  0.448714  0  0.845438  0  0  0.419753  0  0.904883  0  0  0.430749  0  0.889041  0  0  0.301979  0.411804  0  0.916327  0
H  H8  1  0.37301577  0.28736860  0.44703603  1  0  0.448745  0  0.845404  0  0  0.419815  0  0.904802  0  0  0.430812  0  0.888959  0  0  0.302013  0.411865  0  0.916246  0
H  H9  1  0.87301746  0.71263768  0.55296513  1  0  0.448774  0  0.845348  0  0  0.419799  0  0.904812  0  0  0.430795  0  0.888971  0  0  0.30201  0.411851  0  0.916254  0
H  H10  1  0.75000469  0.11345188  0.03855525  1  0  0.153979  0  0.958429  0  0  0.170464  0  1.021584  0  0  0.174001  0  1.019211  0  0  0.107808  0.167879  0  1.023547  0
H  H11  1  0.25000031  0.88654933  0.96144263  1  0  0.154003  0  0.958424  0  0  0.170473  0  1.021589  0  0  0.174012  0  1.019213  0  0  0.107809  0.167887  0  1.023554  0
H  H12  1  0.61351561  0.97796097  0.88517644  1  0  0.14494  0  0.947186  0  0  0.162596  0  1.008737  0  0  0.165081  0  1.007957  0  0  0.107678  0.160885  0  1.00922  0
H  H13  1  0.11350422  0.02203942  0.11482343  1  0  0.145019  0  0.94713  0  0  0.162599  0  1.00876  0  0  0.165083  0  1.007982  0  0  0.107695  0.160888  0  1.009247  0
H  H14  1  0.38649091  0.02203887  0.11482208  1  0  0.144933  0  0.947128  0  0  0.162575  0  1.008693  0  0  0.165061  0  1.007913  0  0  0.10766  0.160866  0  1.009174  0
H  H15  1  0.88650230  0.97796042  0.88517509  1  0  0.145037  0  0.947038  0  0  0.162612  0  1.008684  0  0  0.165096  0  1.007905  0  0  0.107711  0.160904  0  1.009166  0
H  H16  1  0.74999794  0.09770077  0.25992355  1  0  0.153865  0  0.951725  0  0  0.171229  0  1.014107  0  0  0.174697  0  1.011807  0  0  0.107774  0.168699  0  1.015975  0
H  H17  1  0.24999946  0.90229907  0.74007599  1  0  0.153856  0  0.951635  0  0  0.17118  0  1.014074  0  0  0.17465  0  1.01177  0  0  0.107738  0.168649  0  1.015942  0
H  H18  1  0.88684695  0.96413870  0.34394798  1  0  0.15235  0  0.941846  0  0  0.16875  0  1.001656  0  0  0.17189  0  1.000209  0  0  0.101951  0.16653  0  1.002693  0
H  H19  1  0.38684857  0.03585651  0.65604811  1  0  0.152325  0  0.941901  0  0  0.168731  0  1.001689  0  0  0.171872  0  1.000241  0  0  0.101945  0.166508  0  1.002729  0
H  H20  1  0.11315045  0.03585842  0.65605083  1  0  0.152324  0  0.941885  0  0  0.168733  0  1.001667  0  0  0.171873  0  1.00022  0  0  0.101951  0.166512  0  1.002705  0
H  H21  1  0.61314731  0.96414197  0.34395107  1  0  0.152359  0  0.94184  0  0  0.168766  0  1.001636  0  0  0.171906  0  1.00019  0  0  0.101971  0.166547  0  1.002672  0
H  H22  1  0.25001948  0.39031071  0.72155584  1  0  0.01319  0  0.920933  0  0  0.025079  0  0.986926  0  0  0.026048  0  0.981815  0  0  0.128504  0.02409  0  0.990891  0
H  H23  1  0.74998248  0.60969049  0.27844405  1  0  0.013217  0  0.920939  0  0  0.025131  0  0.986902  0  0  0.0261  0  0.98179  0  0  0.128521  0.024125  0  0.990882  0
C  C24  1  0.75000916  0.22027788  0.86976590  1  0  0.778059  0  3.786528  0  0  0.734199  0  4.084955  0  0  0.768311  0  4.075945  0  0  0.216984  0.710737  0  4.090485  0
C  C25  1  0.24999584  0.77972196  0.13023363  1  0  0.777941  0  3.786686  0  0  0.734112  0  4.08506  0  0  0.768224  0  4.076047  0  0  0.21697  0.710654  0  4.090581  0
C  C26  1  0.75000504  0.06073014  0.92106029  1  0  -0.467129  0  3.639847  0  0  -0.54293  0  3.87265  0  0  -0.5499  0  3.873227  0  0  -0.240126  -0.538003  0  3.872294  0
C  C27  1  0.24999844  0.93926835  0.07893586  1  0  -0.467066  0  3.639889  0  0  -0.542851  0  3.872642  0  0  -0.549821  0  3.873221  0  0  -0.24007  -0.53792  0  3.872283  0
C  C28  1  0.74999952  0.20858145  0.48415638  1  0  0.77678  0  3.792514  0  0  0.735958  0  4.088168  0  0  0.770066  0  4.079445  0  0  0.216458  0.712501  0  4.093459  0
C  C29  1  0.24999940  0.79141703  0.51584178  1  0  0.776815  0  3.792485  0  0  0.735978  0  4.088155  0  0  0.770084  0  4.079427  0  0  0.216493  0.712527  0  4.093437  0
C  C30  1  0.74999428  0.04660929  0.35068642  1  0  -0.460792  0  3.610427  0  0  -0.531847  0  3.836354  0  0  -0.539092  0  3.835875  0  0  -0.244039  -0.526761  0  3.836842  0
C  C31  1  0.24999856  0.95339191  0.64931348  1  0  -0.460699  0  3.61038  0  0  -0.531741  0  3.836339  0  0  -0.538986  0  3.83586  0  0  -0.243985  -0.526649  0  3.836826  0
C  C32  1  0.24999387  0.54118866  0.75789842  1  0  0.633667  0  3.861812  0  0  0.562498  0  4.176175  0  0  0.597481  0  4.164612  0  0  0.173713  0.538504  0  4.183601  0
C  C33  1  0.75000809  0.45881389  0.24210486  1  0  0.633617  0  3.861686  0  0  0.562427  0  4.176073  0  0  0.597408  0  4.16451  0  0  0.173693  0.538456  0  4.183484  0
O  O34  1  0.91770352  0.29052932  0.84707873  1  0  -0.727592  0  2.009905  0  0  -0.67446  0  2.242844  0  0  -0.701725  0  2.233931  0  0  -0.363899  -0.654891  0  2.248928  0
O  O35  1  0.41769820  0.70947495  0.15292553  1  0  -0.727507  0  2.009849  0  0  -0.674392  0  2.242794  0  0  -0.701652  0  2.233883  0  0  -0.363864  -0.654818  0  2.248869  0
O  O36  1  0.08229844  0.70947188  0.15292116  1  0  -0.727575  0  2.009952  0  0  -0.674431  0  2.242845  0  0  -0.701688  0  2.233933  0  0  -0.363903  -0.654868  0  2.248931  0
O  O37  1  0.58230224  0.29052488  0.84707400  1  0  -0.727553  0  2.009757  0  0  -0.674412  0  2.242714  0  0  -0.701679  0  2.233805  0  0  -0.363853  -0.654834  0  2.248789  0
O  O38  1  0.91767936  0.28013579  0.54287037  1  0  -0.727222  0  1.994599  0  0  -0.676141  0  2.225399  0  0  -0.703464  0  2.216054  0  0  -0.364176  -0.656505  0  2.231716  0
O  O39  1  0.41768132  0.71985489  0.45712526  1  0  -0.727254  0  1.994516  0  0  -0.676129  0  2.22528  0  0  -0.703451  0  2.215947  0  0  -0.364108  -0.656495  0  2.231593  0
O  O40  1  0.08231652  0.71986405  0.45712816  1  0  -0.727339  0  1.994614  0  0  -0.676194  0  2.225366  0  0  -0.70352  0  2.216038  0  0  -0.364207  -0.656559  0  2.231681  0
O  O41  1  0.58231608  0.28014631  0.54287363  1  0  -0.727285  0  1.994476  0  0  -0.676139  0  2.225215  0  0  -0.703463  0  2.21587  0  0  -0.364106  -0.656501  0  2.231529  0
O  O42  1  0.07997885  0.62243940  0.77757204  1  0  -0.673744  0  2.050164  0  0  -0.621966  0  2.305815  0  0  -0.649366  0  2.296489  0  0  -0.397528  -0.602239  0  2.312451  0
O  O43  1  0.57995494  0.37754380  0.22241552  1  0  -0.673827  0  2.049245  0  0  -0.622147  0  2.305055  0  0  -0.649551  0  2.295733  0  0  -0.397595  -0.602416  0  2.311682  0
O  O44  1  0.92002159  0.37756178  0.22243188  1  0  -0.673674  0  2.050077  0  0  -0.621934  0  2.305783  0  0  -0.649327  0  2.296461  0  0  -0.39756  -0.602211  0  2.312409  0
O  O45  1  0.42004246  0.62245737  0.77758940  1  0  -0.673828  0  2.049324  0  0  -0.62216  0  2.305161  0  0  -0.64957  0  2.295837  0  0  -0.397619  -0.602422  0  2.311794  0
O  O46  1  0.74999442  0.68779698  0.99184312  1  0  -0.920722  0  1.832728  0  0  -0.877514  0  2.02261  0  0  -0.898682  0  1.991378  0  0  -0.654312  -0.861766  0  2.045102  0
O  O47  1  0.25000602  0.31220285  0.00815742  1  0  -0.920699  0  1.832755  0  0  -0.877533  0  2.022537  0  0  -0.898693  0  1.991307  0  0  -0.654301  -0.861779  0  2.045058  0
O  O48  1  0.74999837  0.69259146  0.60499747  1  0  -0.929202  0  1.818128  0  0  -0.886228  0  2.003743  0  0  -0.907278  0  1.971343  0  0  -0.654644  -0.870608  0  2.02704  0
O  O49  1  0.24999599  0.30741381  0.39500653  1  0  -0.929156  0  1.818198  0  0  -0.886227  0  2.003777  0  0  -0.907271  0  1.971377  0  0  -0.654612  -0.870607  0  2.027074  0
