# generated using pymatgen
data_CuH6(C5N6)2
_symmetry_space_group_name_H-M   'P 1'
_cell_length_a   6.98305509
_cell_length_b   9.48831871
_cell_length_c   9.70440569
_cell_angle_alpha   94.52349624
_cell_angle_beta   89.99881550
_cell_angle_gamma   89.99974256
_symmetry_Int_Tables_number   1
_chemical_formula_structural   CuH6(C5N6)2
_chemical_formula_sum   'Cu2 H12 C20 N24'
_cell_volume   640.98633373
_cell_formula_units_Z   2
loop_
 _symmetry_equiv_pos_site_id
 _symmetry_equiv_pos_as_xyz
  1  'x, y, z'
loop_
 _atom_site_type_symbol
 _atom_site_label
 _atom_site_symmetry_multiplicity
 _atom_site_fract_x
 _atom_site_fract_y
 _atom_site_fract_z
 _atom_site_occupancy
 _atom_site_hle17_ddec_charge
 _atom_site_hle17_ddec_spin_density
 _atom_site_hle17_ddec_sum_bond_order
 _atom_site_hle17_magmom
 _atom_site_hse06_10hf_ddec_charge
 _atom_site_hse06_10hf_ddec_spin_density
 _atom_site_hse06_10hf_ddec_sum_bond_order
 _atom_site_hse06_10hf_magmom
 _atom_site_hse06_ddec_charge
 _atom_site_hse06_ddec_spin_density
 _atom_site_hse06_ddec_sum_bond_order
 _atom_site_hse06_magmom
 _atom_site_pbe_cm5_charge
 _atom_site_pbe_ddec_charge
 _atom_site_pbe_ddec_spin_density
 _atom_site_pbe_ddec_sum_bond_order
 _atom_site_pbe_magmom
Cu  Cu0  1  0.50001482  0.49998386  0.49998684  1  0.69035  0.722385  2.045356  0.503  0.625009  0.7998  2.462773  0.612  0.70948  0.880285  2.402574  0.698  0.794978  0.575559  0.735398  2.502649  0.549
Cu  Cu1  1  0.99999306  0.50000242  0.99999270  1  0.690313  -0.722381  2.045235  -0.503  0.625122  -0.799788  2.462408  -0.612  0.709444  -0.880276  2.402495  -0.698  0.794963  0.575701  -0.735392  2.502314  -0.549
H  H2  1  0.89891935  0.63834114  0.57277849  1  0.095642  0.001384  0.977242  0.002  0.091136  0.001015  1.058776  0.002  0.094034  0.000666  1.055977  0.001  0.121588  0.088626  0.001327  1.061909  0.002
H  H3  1  0.39895495  0.36167157  0.92722491  1  0.095483  -0.001389  0.976973  -0.002  0.091031  -0.001018  1.058517  -0.002  0.093915  -0.000668  1.055771  -0.001  0.121521  0.088523  -0.00133  1.061621  -0.002
H  H4  1  0.10110027  0.36164790  0.42720572  1  0.095595  0.001386  0.977158  0.002  0.091055  0.001016  1.058723  0.002  0.093956  0.000667  1.055927  0.001  0.121548  0.088539  0.001328  1.061858  0.002
H  H5  1  0.60104176  0.63832596  0.07276186  1  0.095442  -0.00139  0.977074  -0.002  0.091024  -0.001017  1.058579  -0.002  0.093907  -0.000668  1.055831  -0.001  0.121547  0.088509  -0.00133  1.061713  -0.002
H  H6  1  0.06455021  0.85704577  0.50103249  1  0.091035  0.001076  0.964172  0.001  0.08631  0.000712  1.045552  0.001  0.089754  0.000435  1.042809  0.001  0.114423  0.084061  0.001016  1.047353  0.001
H  H7  1  0.56459385  0.14295420  0.99902315  1  0.090902  -0.001077  0.963935  -0.001  0.086292  -0.000713  1.04523  -0.001  0.089726  -0.000435  1.042506  -0.001  0.114454  0.084057  -0.001016  1.047008  -0.001
H  H8  1  0.93543647  0.14295553  0.49898542  1  0.091099  0.001074  0.964228  0.001  0.086385  0.000712  1.045593  0.001  0.089821  0.000435  1.042867  0.001  0.114489  0.084146  0.001016  1.047368  0.001
H  H9  1  0.43539569  0.85704894  0.00098044  1  0.090876  -0.001077  0.963943  -0.001  0.086256  -0.000712  1.04525  -0.001  0.089692  -0.000435  1.042521  -0.001  0.114402  0.084019  -0.001016  1.047031  -0.001
H  H10  1  0.58891527  0.95211286  0.26505389  1  0.103943  0.001008  0.94356  0.001  0.101658  0.000724  1.019068  0.001  0.10535  0.000454  1.016454  0.001  0.118369  0.098804  0.000997  1.021904  0.001
H  H11  1  0.08890503  0.04790575  0.23493096  1  0.103977  -0.001005  0.943999  -0.001  0.101693  -0.000723  1.019468  -0.001  0.105385  -0.000454  1.016851  -0.001  0.1184  0.098839  -0.000996  1.022301  -0.001
H  H12  1  0.41110435  0.04788285  0.73494823  1  0.104137  0.001004  0.943701  0.001  0.101799  0.000724  1.019186  0.001  0.105491  0.000454  1.016574  0.001  0.118429  0.098947  0.000996  1.022018  0.001
H  H13  1  0.91109454  0.95210076  0.76508314  1  0.104026  -0.001005  0.943996  -0.001  0.101744  -0.000723  1.019437  -0.001  0.105436  -0.000454  1.016822  -0.001  0.118441  0.098893  -0.000995  1.022269  -0.001
C  C14  1  0.38609536  0.70335134  0.31982379  1  0.215303  0.000718  3.835961  0.003  0.194783  0.001347  4.104588  0.003  0.204438  0.000196  4.121417  0.001  0.20864  0.188635  0.002421  4.093039  0.004
C  C15  1  0.88610232  0.29663768  0.18020176  1  0.21551  -0.00072  3.835418  -0.003  0.195021  -0.001348  4.10401  -0.003  0.204679  -0.000193  4.120828  -0.001  0.208741  0.188866  -0.00242  4.092474  -0.004
C  C16  1  0.61393142  0.29663922  0.68018525  1  0.215481  0.000725  3.835838  0.003  0.194896  0.001351  4.104487  0.003  0.204551  0.000194  4.121323  0.001  0.208788  0.188748  0.002423  4.092944  0.004
C  C17  1  0.11389869  0.70337166  0.81979498  1  0.215727  -0.000717  3.834863  -0.003  0.195175  -0.001348  4.103512  -0.003  0.204833  -0.000191  4.120324  -0.001  0.208808  0.189019  -0.002419  4.091976  -0.004
C  C18  1  0.83192225  0.70796718  0.50270064  1  0.104489  -0.006205  3.631053  -0.006  0.074642  -0.000658  3.89145  -0.001  0.080774  -0.002046  3.908806  -0.003  0.060842  0.070331  0.000665  3.881969  0.0
C  C19  1  0.33192904  0.29203595  0.99733217  1  0.104735  0.006225  3.631626  0.006  0.07478  0.000657  3.892133  0.001  0.080893  0.002043  3.909452  0.003  0.061031  0.070498  -0.000666  3.882672  0.0
C  C20  1  0.16806730  0.29201597  0.49730693  1  0.104552  -0.006233  3.631628  -0.006  0.074756  -0.000657  3.89203  -0.001  0.080861  -0.002045  3.909376  -0.003  0.060955  0.070469  0.000666  3.882549  0.0
C  C21  1  0.66806910  0.70796802  0.00266013  1  0.104606  0.006223  3.63165  0.006  0.074648  0.000657  3.892198  0.001  0.08078  0.002043  3.909523  0.003  0.060933  0.070345  -0.000665  3.882731  0.0
C  C22  1  0.57011728  0.75778518  0.36858103  1  0.133724  -0.004629  3.747729  -0.005  0.13662  -0.000498  3.983577  -0.001  0.141415  -0.001664  4.003902  -0.003  0.133373  0.133837  0.000553  3.970521  0.0
C  C23  1  0.07010629  0.24224472  0.13143572  1  0.133443  0.004651  3.747994  0.005  0.136351  0.000498  3.983788  0.001  0.141126  0.001666  4.004101  0.003  0.133279  0.133619  -0.000552  3.970691  0.0
C  C24  1  0.42988372  0.24221686  0.63142044  1  0.13378  -0.00466  3.747345  -0.005  0.136676  -0.000498  3.983127  -0.001  0.141447  -0.001667  4.003445  -0.003  0.133313  0.133912  0.000551  3.970073  0.0
C  C25  1  0.92990187  0.75777333  0.86857493  1  0.133484  0.004647  3.747764  0.005  0.136413  0.000495  3.983564  0.001  0.141208  0.001666  4.003875  0.003  0.133267  0.133656  -0.000552  3.970482  0.0
C  C26  1  0.92201642  0.82939346  0.46164511  1  0.077213  0.009937  3.665345  0.011  0.051721  0.004556  3.927378  0.005  0.053239  0.003953  3.942642  0.005  0.053182  0.050825  0.005126  3.917423  0.006
C  C27  1  0.42200799  0.17063223  0.03837685  1  0.077339  -0.009952  3.665862  -0.011  0.05172  -0.004555  3.927943  -0.005  0.05324  -0.003949  3.943203  -0.005  0.053126  0.050808  -0.005122  3.918018  -0.006
C  C28  1  0.07797026  0.17060020  0.53835999  1  0.077111  0.009968  3.665605  0.011  0.051581  0.004555  3.927677  0.005  0.053095  0.003952  3.942941  0.005  0.053033  0.050688  0.005124  3.917718  0.006
C  C29  1  0.57798012  0.82936967  0.96161739  1  0.077418  -0.009948  3.665863  -0.011  0.051812  -0.004555  3.927934  -0.005  0.053337  -0.003948  3.943189  -0.005  0.053196  0.050898  -0.005122  3.918007  -0.006
C  C30  1  0.66100760  0.88104619  0.33180450  1  0.054805  0.008359  3.64666  0.009  0.028584  0.003584  3.896996  0.004  0.028916  0.003213  3.912883  0.004  0.061229  0.027903  0.003993  3.887706  0.004
C  C31  1  0.16099457  0.11896853  0.16822117  1  0.054906  -0.008389  3.646005  -0.009  0.028679  -0.003585  3.896333  -0.004  0.029012  -0.003214  3.912215  -0.004  0.061175  0.027996  -0.003994  3.887037  -0.004
C  C32  1  0.33899197  0.11895205  0.66821942  1  0.054408  0.008398  3.646417  0.009  0.028288  0.003584  3.896707  0.004  0.028616  0.003215  3.912598  0.004  0.061102  0.027607  0.003994  3.887418  0.004
C  C33  1  0.83900356  0.88103890  0.83178576  1  0.054756  -0.008386  3.646184  -0.009  0.02856  -0.003584  3.896439  -0.004  0.028892  -0.003215  3.912322  -0.004  0.061131  0.027878  -0.003994  3.887149  -0.004
N  N34  1  0.31817897  0.58720471  0.37604868  1  -0.27581  0.076167  3.2973  0.092  -0.245079  0.052996  3.622966  0.068  -0.273544  0.044149  3.642482  0.059  -0.257165  -0.228561  0.057299  3.611265  0.071
N  N35  1  0.81817273  0.41278652  0.12395958  1  -0.275761  -0.076187  3.296884  -0.092  -0.245125  -0.053006  3.622669  -0.068  -0.273551  -0.04416  3.642163  -0.059  -0.257143  -0.22861  -0.05731  3.610989  -0.071
N  N36  1  0.68182060  0.41278562  0.62394797  1  -0.275907  0.076138  3.297703  0.092  -0.24509  0.05298  3.62335  0.068  -0.273549  0.044144  3.642852  0.059  -0.257173  -0.228574  0.057282  3.611654  0.071
N  N37  1  0.18182684  0.58721731  0.87602550  1  -0.275961  -0.076185  3.29707  -0.092  -0.245236  -0.053009  3.622792  -0.068  -0.273661  -0.044158  3.642291  -0.059  -0.257176  -0.228725  -0.057313  3.61111  -0.071
N  N38  1  0.15909908  0.54944290  0.30765062  1  -0.071514  -0.000415  2.967074  -0.001  -0.057953  0.002663  3.270548  0.003  -0.055457  0.001358  3.286969  0.001  -0.09125  -0.058486  0.003719  3.259324  0.004
N  N39  1  0.65908814  0.45057025  0.19234716  1  -0.071302  0.000421  2.966835  0.001  -0.057745  -0.002664  3.270328  -0.003  -0.055242  -0.00136  3.286749  -0.001  -0.091169  -0.058277  -0.003721  3.259106  -0.004
N  N40  1  0.84089046  0.45055910  0.69234878  1  -0.071558  -0.000419  2.967163  -0.001  -0.058038  0.002662  3.270641  0.003  -0.055541  0.001356  3.28706  0.001  -0.091332  -0.058575  0.003718  3.25942  0.004
N  N41  1  0.34091000  0.54943884  0.80763617  1  -0.071652  0.000415  2.967391  0.001  -0.058126  -0.002663  3.270887  -0.003  -0.05563  -0.001361  3.287312  -0.001  -0.091287  -0.058657  -0.003722  3.259657  -0.004
N  N42  1  0.27194315  0.73863992  0.21717261  1  -0.264539  0.00067  2.890735  0.0  -0.242404  0.000622  3.176567  0.0  -0.249825  0.000362  3.189216  0.0  -0.210955  -0.237242  0.000708  3.167711  0.0
N  N43  1  0.77188744  0.26138258  0.28285476  1  -0.264706  -0.000673  2.890494  0.0  -0.242587  -0.000626  3.176304  0.0  -0.25001  -0.000363  3.188961  0.0  -0.211171  -0.237428  -0.000713  3.167455  0.0
N  N44  1  0.72806358  0.26134953  0.78283327  1  -0.264527  0.000664  2.890818  0.0  -0.24237  0.000622  3.176658  0.0  -0.249782  0.000362  3.189292  0.0  -0.210975  -0.23721  0.000707  3.167807  0.0
N  N45  1  0.22811786  0.73862891  0.71714417  1  -0.264791  -0.000675  2.890352  0.0  -0.242673  -0.000621  3.176223  0.0  -0.25009  -0.000367  3.188863  0.0  -0.211167  -0.237512  -0.000712  3.16737  0.0
N  N46  1  0.13137879  0.64053774  0.21210251  1  -0.113899  0.016219  3.016194  0.019  -0.110973  0.00841  3.349264  0.01  -0.11955  0.005531  3.363041  0.007  -0.106745  -0.104911  0.011651  3.339582  0.014
N  N47  1  0.63133988  0.35949269  0.28790706  1  -0.114036  -0.016208  3.016471  -0.019  -0.111066  -0.008403  3.349532  -0.01  -0.119667  -0.005526  3.36331  -0.007  -0.106697  -0.104997  -0.011644  3.339841  -0.014
N  N48  1  0.86861362  0.35946226  0.78790295  1  -0.113909  0.016223  3.016048  0.019  -0.110983  0.008409  3.349124  0.01  -0.119563  0.00553  3.362901  0.007  -0.106727  -0.104918  0.011651  3.339445  0.014
N  N49  1  0.36866255  0.64052495  0.71208193  1  -0.113613  -0.016205  3.016392  -0.019  -0.110633  -0.008406  3.349403  -0.01  -0.11923  -0.005524  3.363188  -0.007  -0.106544  -0.104566  -0.011646  3.339705  -0.014
N  N50  1  0.65800475  0.67277199  0.45510886  1  -0.259624  0.084776  3.296447  0.104  -0.219536  0.059882  3.582441  0.079  -0.246376  0.049555  3.604832  0.069  -0.31496  -0.204113  0.065237  3.569249  0.083
N  N51  1  0.15801723  0.32724550  0.04489538  1  -0.259666  -0.084778  3.296894  -0.104  -0.219547  -0.05987  3.582878  -0.079  -0.246309  -0.049548  3.605222  -0.069  -0.31505  -0.204191  -0.065224  3.569741  -0.083
N  N52  1  0.34198622  0.32721303  0.54488645  1  -0.259732  0.084802  3.296745  0.104  -0.21964  0.059881  3.582749  0.079  -0.246411  0.049554  3.605072  0.069  -0.315032  -0.204268  0.06524  3.569599  0.083
N  N53  1  0.84198664  0.67276288  0.95510646  1  -0.259603  -0.084774  3.296645  -0.104  -0.219555  -0.059868  3.582719  -0.079  -0.246366  -0.049549  3.605111  -0.069  -0.315081  -0.204149  -0.065222  3.569544  -0.083
N  N54  1  0.83723357  0.91554114  0.37740300  1  -0.235916  -0.003741  3.061014  -0.005  -0.202009  -0.001891  3.328371  -0.002  -0.207893  -0.002676  3.341822  -0.003  -0.288048  -0.197493  -0.000437  3.319067  -0.001
N  N55  1  0.33724900  0.08447847  0.12260455  1  -0.235926  0.003765  3.060359  0.005  -0.202003  0.001892  3.327769  0.002  -0.207883  0.002676  3.341211  0.003  -0.287981  -0.197487  0.000438  3.318483  0.001
N  N56  1  0.16275168  0.08445463  0.62260221  1  -0.235791  -0.003769  3.060594  -0.005  -0.201903  -0.001891  3.327925  -0.002  -0.207788  -0.002677  3.341376  -0.003  -0.287936  -0.197385  -0.000438  3.318623  -0.001
N  N57  1  0.66274198  0.91552670  0.87739504  1  -0.235865  0.003765  3.060358  0.005  -0.201944  0.001892  3.327721  0.002  -0.207827  0.002677  3.341164  0.003  -0.287933  -0.197425  0.000439  3.31843  0.001
