# generated using pymatgen
data_CuH11C15(N2O)2
_symmetry_space_group_name_H-M   'P 1'
_cell_length_a   7.74250161
_cell_length_b   13.17514031
_cell_length_c   16.64525733
_cell_angle_alpha   65.69411901
_cell_angle_beta   82.95818748
_cell_angle_gamma   72.87530415
_symmetry_Int_Tables_number   1
_chemical_formula_structural   CuH11C15(N2O)2
_chemical_formula_sum   'Cu4 H44 C60 N16 O8'
_cell_volume   1478.84680012
_cell_formula_units_Z   4
loop_
 _symmetry_equiv_pos_site_id
 _symmetry_equiv_pos_as_xyz
  1  'x, y, z'
loop_
 _atom_site_type_symbol
 _atom_site_label
 _atom_site_symmetry_multiplicity
 _atom_site_fract_x
 _atom_site_fract_y
 _atom_site_fract_z
 _atom_site_occupancy
 _atom_site_pbe_bader_charge
 _atom_site_pbe_bader_spin_density
 _atom_site_pbe_cm5_charge
 _atom_site_pbe_ddec_charge
 _atom_site_pbe_ddec_spin_density
 _atom_site_pbe_ddec_sum_bond_order
 _atom_site_pbe_magmom
Cu  Cu0  1  0.51715031  0.56402690  0.16064483  1  0.763927  0  0.576289  0.353598  0  2.463044  0
Cu  Cu1  1  0.48284659  0.43596781  0.83934871  1  0.763983  0  0.576291  0.353715  0  2.463042  0
Cu  Cu2  1  0.93354483  0.02812181  0.31597836  1  0.757193  0  0.579961  0.347087  0  2.461566  0
Cu  Cu3  1  0.06646062  0.97189743  0.68402028  1  0.757118  0  0.579942  0.347142  0  2.461334  0
H  H4  1  0.87225393  0.77621637  0.41270508  1  0.057822  0  0.115153  0.080581  0  1.001554  0
H  H5  1  0.12781692  0.22377294  0.58733473  1  0.058211  0  0.11511  0.080698  0  1.001378  0
H  H6  1  0.87671114  0.62497374  0.35691414  1  0.108957  0  0.123458  0.095441  0  0.962515  0
H  H7  1  0.12329814  0.37501598  0.64313321  1  0.108857  0  0.123493  0.09545  0  0.962742  0
H  H8  1  0.03978561  0.83030827  0.11010921  1  0.123502  0  0.118667  0.096474  0  1.006586  0
H  H9  1  0.96014348  0.16968386  0.88991224  1  0.122762  0  0.118696  0.096431  0  1.006717  0
H  H10  1  0.61847527  0.79553756  0.02148755  1  0.075362  0  0.11651  0.085917  0  0.999669  0
H  H11  1  0.38151011  0.20446426  0.97851848  1  0.075133  0  0.116497  0.085883  0  0.999621  0
H  H12  1  0.66933444  0.95980517  0.04399882  1  0.154654  0  0.118105  0.104363  0  1.012812  0
H  H13  1  0.33063536  0.04018586  0.95602288  1  0.156438  0  0.11817  0.1045  0  1.012979  0
H  H14  1  0.44567053  0.84489650  0.29575025  1  0.072725  0  0.110711  0.07954  0  1.03249  0
H  H15  1  0.55428086  0.15508772  0.70425783  1  0.07291  0  0.110561  0.079468  0  1.032188  0
H  H16  1  0.70630593  0.23593329  0.35461847  1  0.077472  0  0.113679  0.08239  0  0.999335  0
H  H17  1  0.29370773  0.76408587  0.64537258  1  0.077915  0  0.11353  0.082097  0  0.999379  0
H  H18  1  0.39764775  0.36201389  0.32177877  1  0.131682  0  0.111338  0.135124  0  1.017957  0
H  H19  1  0.60236291  0.63800049  0.67821007  1  0.1312  0  0.111335  0.135127  0  1.017906  0
H  H20  1  0.30615388  0.13686556  0.20898695  1  0.115053  0  0.110357  0.129744  0  1.023326  0
H  H21  1  0.69385935  0.86313185  0.79101958  1  0.114702  0  0.11035  0.129743  0  1.023477  0
H  H22  1  0.61981827  0.02676409  0.24047718  1  0.158827  0  0.107314  0.072721  0  1.071232  0
H  H23  1  0.38019117  0.97322901  0.75953851  1  0.158889  0  0.107349  0.072653  0  1.071311  0
H  H24  1  0.74794923  0.33718472  0.15654784  1  0.061269  0  0.110039  0.076589  0  1.014597  0
H  H25  1  0.25206845  0.66282548  0.84344059  1  0.061022  0  0.110048  0.076651  0  1.014452  0
H  H26  1  0.05361922  0.21760550  0.19486786  1  0.149064  0  0.106514  0.128845  0  1.101321  0
H  H27  1  0.94640211  0.78241246  0.80511050  1  0.149362  0  0.106495  0.128788  0  1.101517  0
H  H28  1  0.14024775  0.47341231  0.27631670  1  0.126556  0  0.110371  0.129146  0  1.022196  0
H  H29  1  0.85976479  0.52658762  0.72368196  1  0.126172  0  0.110376  0.129118  0  1.022103  0
H  H30  1  0.82838835  0.58295134  0.23264998  1  0.115007  0  0.10829  0.066958  0  1.08567  0
H  H31  1  0.17161967  0.41704588  0.76735865  1  0.115157  0  0.108305  0.066928  0  1.085743  0
H  H32  1  0.19116729  0.71059667  0.06338621  1  0.089325  0  0.11924  0.089196  0  1.009089  0
H  H33  1  0.80878950  0.28938967  0.93662527  1  0.089473  0  0.119149  0.08917  0  1.008985  0
H  H34  1  0.94212560  0.68977327  0.99976404  1  0.105709  0  0.112066  0.120341  0  1.007558  0
H  H35  1  0.05785983  0.31020846  0.00023411  1  0.110699  0  0.112064  0.120393  0  1.007529  0
H  H36  1  0.26677335  0.34319723  0.03769629  1  0.043502  0  0.108198  0.109646  0  1.022433  0
H  H37  1  0.73327007  0.65682191  0.96224639  1  0.04337  0  0.108169  0.109555  0  1.022548  0
H  H38  1  0.50163876  0.37979969  0.09881749  1  0.061249  0  0.112044  0.079799  0  1.010545  0
H  H39  1  0.49838251  0.62020740  0.90115294  1  0.061662  0  0.111945  0.079651  0  1.010694  0
H  H40  1  0.25172642  0.84467373  0.40307401  1  0.132353  0  0.118598  0.100367  0  1.011893  0
H  H41  1  0.74828081  0.15534690  0.59690369  1  0.132463  0  0.118574  0.100477  0  1.011768  0
H  H42  1  0.52300370  0.83162199  0.47257934  1  0.066409  0  0.111204  0.116659  0  1.001254  0
H  H43  1  0.47703595  0.16838169  0.52739055  1  0.065956  0  0.111083  0.116642  0  1.001289  0
H  H44  1  0.25350258  0.16696134  0.47884760  1  0.066212  0  0.10752  0.108114  0  1.021403  0
H  H45  1  0.74652877  0.83302411  0.52116009  1  0.066188  0  0.107586  0.108177  0  1.021333  0
H  H46  1  0.99433655  0.16697343  0.40837424  1  0.077135  0  0.11488  0.082385  0  0.998848  0
H  H47  1  0.00567172  0.83303201  0.59163579  1  0.076946  0  0.114893  0.082423  0  0.999027  0
C  C48  1  0.91106833  0.78752590  0.34494662  1  0.504878  0  0.049858  0.05402  0  3.944564  0
C  C49  1  0.08895684  0.21246764  0.65508752  1  0.50485  0  0.05003  0.053922  0  3.944143  0
C  C50  1  0.91325931  0.70425909  0.31353559  1  0.552732  0  0.05729  0.055876  0  3.955967  0
C  C51  1  0.08673835  0.29573740  0.68650385  1  0.551073  0  0.05726  0.056021  0  3.955916  0
C  C52  1  0.00572957  0.81462134  0.17901155  1  0.544451  0  0.059344  0.040631  0  3.94135  0
C  C53  1  0.99422384  0.18537077  0.82101663  1  0.546116  0  0.059284  0.040818  0  3.94146  0
C  C54  1  0.01056518  0.89737609  0.20983709  1  0.463935  0  0.111901  0.063727  0  3.916288  0
C  C55  1  0.98940842  0.10262441  0.79018189  1  0.463669  0  0.111648  0.063033  0  3.916512  0
C  C56  1  0.07465927  0.00354310  0.15275232  1  1.624554  0  0.185178  0.529009  0  4.289194  0
C  C57  1  0.92529443  0.99645311  0.84726089  1  1.62348  0  0.1854  0.529468  0  4.288757  0
C  C58  1  0.58150615  0.80536236  0.08379981  1  0.454623  0  0.047025  0.045077  0  3.926009  0
C  C59  1  0.41846895  0.19463555  0.91621195  1  0.454854  0  0.047118  0.045377  0  3.925822  0
C  C60  1  0.60663609  0.89844999  0.09614549  1  0.525948  0  0.054403  0.052221  0  3.946269  0
C  C61  1  0.39333005  0.10154442  0.90386823  1  0.523519  0  0.054244  0.051732  0  3.946894  0
C  C62  1  0.48667638  0.83446006  0.23395860  1  0.566463  0  0.052113  0.041574  0  3.948798  0
C  C63  1  0.51327451  0.16553377  0.76605356  1  0.565764  0  0.051985  0.041132  0  3.948948  0
C  C64  1  0.46321176  0.73920681  0.22385543  1  0.432815  0  0.101621  0.047914  0  3.925637  0
C  C65  1  0.53675995  0.26078196  0.77614809  1  0.433818  0  0.101639  0.048154  0  3.925379  0
C  C66  1  0.38516550  0.64817437  0.29687978  1  1.612209  0  0.178141  0.527802  0  4.292729  0
C  C67  1  0.61482230  0.35180424  0.70312392  1  1.613593  0  0.178031  0.527657  0  4.292891  0
C  C68  1  0.61344319  0.21677788  0.32217903  1  0.411255  0  0.033892  0.077917  0  3.98861  0
C  C69  1  0.38656853  0.78323326  0.67781666  1  0.411407  0  0.033973  0.078237  0  3.988584  0
C  C70  1  0.43768780  0.28715786  0.30411482  1  -0.010362  0  -0.084912  -0.18127  0  3.927691  0
C  C71  1  0.56231560  0.71285786  0.69587762  1  -0.010911  0  -0.084886  -0.181258  0  3.927744  0
C  C72  1  0.31797085  0.26113195  0.26295302  1  -0.072715  0  0.005233  0.092615  0  3.981683  0
C  C73  1  0.68204665  0.73888111  0.73704009  1  -0.071751  0  0.005194  0.092599  0  3.981691  0
C  C74  1  0.38819157  0.16442421  0.24074480  1  0.011657  0  -0.084442  -0.165007  0  3.902299  0
C  C75  1  0.61183455  0.83557704  0.75925650  1  0.010744  0  -0.084399  -0.165048  0  3.902384  0
C  C76  1  0.56629151  0.09995193  0.25976314  1  0.365808  0  0.031396  0.085899  0  3.935063  0
C  C77  1  0.43371803  0.90004827  0.74024101  1  0.367234  0  0.03141  0.086023  0  3.93486  0
C  C78  1  0.83692044  0.36423506  0.18475686  1  0.443401  0  0.031253  0.082152  0  3.999623  0
C  C79  1  0.16309892  0.63577435  0.81523111  1  0.443545  0  0.031238  0.082203  0  3.999688  0
C  C80  1  0.01165753  0.29610368  0.20754567  1  -0.027872  0  -0.097216  -0.200841  0  3.96198  0
C  C81  1  0.98836798  0.70390684  0.79243931  1  -0.030369  0  -0.097178  -0.200749  0  3.962313  0
C  C82  1  0.12906013  0.33105288  0.24262616  1  0.032339  0  0.000778  0.089867  0  3.986484  0
C  C83  1  0.87095330  0.66895839  0.75736038  1  0.034318  0  0.000748  0.08968  0  3.986585  0
C  C84  1  0.05823898  0.43608475  0.25320943  1  -0.050332  0  -0.084005  -0.167116  0  3.901822  0
C  C85  1  0.94176842  0.56392149  0.74678537  1  -0.04975  0  -0.084011  -0.166986  0  3.901613  0
C  C86  1  0.88066035  0.49919620  0.22834946  1  0.433521  0  0.034713  0.090335  0  3.937856  0
C  C87  1  0.11935334  0.50080705  0.77164946  1  0.433632  0  0.034679  0.090268  0  3.937611  0
C  C88  1  0.20134419  0.62977165  0.05755647  1  0.443981  0  0.038753  0.088189  0  3.930427  0
C  C89  1  0.79863797  0.37021798  0.94243851  1  0.443371  0  0.038746  0.088257  0  3.930152  0
C  C90  1  0.06095816  0.61634859  0.02210127  1  -0.022463  0  -0.076506  -0.15084  0  3.912469  0
C  C91  1  0.93903483  0.38364123  0.97788352  1  -0.028109  0  -0.076514  -0.151  0  3.912621  0
C  C92  1  0.07459763  0.51071362  0.01592152  1  -0.027676  0  0.007224  0.092869  0  3.966244  0
C  C93  1  0.92542605  0.48929134  0.98404514  1  0.012782  0  0.007164  0.092606  0  3.96639  0
C  C94  1  0.24107696  0.42662645  0.04186738  1  0.016908  0  -0.083227  -0.175114  0  3.976217  0
C  C95  1  0.75895428  0.57338646  0.95808717  1  0.01635  0  -0.08306  -0.174765  0  3.975868  0
C  C96  1  0.37488368  0.44644503  0.07704405  1  0.486023  0  0.033649  0.080684  0  3.989526  0
C  C97  1  0.62513291  0.55355808  0.92292464  1  0.485894  0  0.033798  0.080813  0  3.989301  0
C  C98  1  0.25798812  0.91538207  0.42003823  1  0.46845  0  0.037469  0.077432  0  3.924661  0
C  C99  1  0.74202794  0.08462986  0.57994198  1  0.468484  0  0.037533  0.077254  0  3.924404  0
C  C100  1  0.41067900  0.90900574  0.45942936  1  -0.063175  0  -0.08164  -0.163985  0  3.938532  0
C  C101  1  0.58934207  0.09100386  0.54054884  1  -0.062199  0  -0.081554  -0.163767  0  3.93854  0
C  C102  1  0.41904171  0.00047404  0.48080069  1  0.015951  0  0.007191  0.095933  0  3.970677  0
C  C103  1  0.58099005  0.99952800  0.51918507  1  -0.027582  0  0.007246  0.095639  0  3.971159  0
C  C104  1  0.26168698  0.09284445  0.46372526  1  -0.042371  0  -0.083761  -0.177252  0  3.982292  0
C  C105  1  0.73834675  0.90715473  0.53627142  1  -0.042645  0  -0.083809  -0.177338  0  3.982612  0
C  C106  1  0.11444328  0.09389541  0.42347782  1  0.505677  0  0.037128  0.085369  0  3.978667  0
C  C107  1  0.88558175  0.90610868  0.57652035  1  0.505402  0  0.037126  0.08544  0  3.979002  0
N  N108  1  0.95703379  0.88499820  0.29311811  1  -1.226808  0  -0.340689  -0.205972  0  3.627411  0
N  N109  1  0.04297321  0.11499656  0.70690569  1  -1.226309  0  -0.340574  -0.205751  0  3.627114  0
N  N110  1  0.95671378  0.71828626  0.22992639  1  -1.195591  0  -0.299037  -0.217917  0  3.342762  0
N  N111  1  0.04324812  0.28170312  0.77011117  1  -1.195187  0  -0.299219  -0.218137  0  3.342603  0
N  N112  1  0.51295257  0.72431880  0.14768013  1  -1.208645  0  -0.343379  -0.212585  0  3.63255  0
N  N113  1  0.48701585  0.27567727  0.85232581  1  -1.208628  0  -0.343454  -0.212804  0  3.632284  0
N  N114  1  0.55981129  0.91356130  0.17170571  1  -1.16555  0  -0.304315  -0.224364  0  3.307762  0
N  N115  1  0.44013860  0.08642538  0.82831082  1  -1.165249  0  -0.304014  -0.223809  0  3.308025  0
N  N116  1  0.68060382  0.12390552  0.30076841  1  -1.196554  0  -0.370722  -0.234153  0  3.689539  0
N  N117  1  0.31941005  0.87609978  0.69923478  1  -1.197136  0  -0.370715  -0.234169  0  3.689454  0
N  N118  1  0.76850930  0.46558365  0.19411221  1  -1.214573  0  -0.367896  -0.229429  0  3.672275  0
N  N119  1  0.23150274  0.53442093  0.80588222  1  -1.214813  0  -0.367888  -0.229486  0  3.672227  0
N  N120  1  0.35660058  0.54514368  0.08816071  1  -1.215835  0  -0.372097  -0.235209  0  3.701374  0
N  N121  1  0.64339453  0.45485594  0.91182617  1  -1.215423  0  -0.372189  -0.235375  0  3.701326  0
N  N122  1  0.11111720  0.00851838  0.39917813  1  -1.200092  0  -0.370528  -0.223987  0  3.695106  0
N  N123  1  0.88889934  0.99148831  0.60081190  1  -1.199805  0  -0.370604  -0.224108  0  3.695098  0
O  O124  1  0.05774732  0.07559731  0.18896721  1  -1.168036  0  -0.347051  -0.543241  0  2.35064  0
O  O125  1  0.94224362  0.92439860  0.81103111  1  -1.168127  0  -0.347196  -0.54354  0  2.350202  0
O  O126  1  0.13906819  0.01218752  0.07841076  1  -1.174956  0  -0.336159  -0.548285  0  2.104751  0
O  O127  1  0.86085604  0.98781013  0.92158292  1  -1.173952  0  -0.336026  -0.548102  0  2.105177  0
O  O128  1  0.39005767  0.55914057  0.28156552  1  -1.154917  0  -0.354351  -0.548828  0  2.29535  0
O  O129  1  0.60994968  0.44083855  0.71843232  1  -1.156505  0  -0.354236  -0.548761  0  2.295249  0
O  O130  1  0.32284685  0.66794581  0.36357045  1  -1.168031  0  -0.354072  -0.56253  0  2.080396  0
O  O131  1  0.67715044  0.33201602  0.63644092  1  -1.168031  0  -0.354029  -0.562473  0  2.080551  0
