# generated using pymatgen
data_LaH18C36Br6N4O7
_symmetry_space_group_name_H-M   'P 1'
_cell_length_a   8.63102668
_cell_length_b   13.67905323
_cell_length_c   33.96709050
_cell_angle_alpha   90.00023735
_cell_angle_beta   90.00017338
_cell_angle_gamma   96.31159819
_symmetry_Int_Tables_number   1
_chemical_formula_structural   LaH18C36Br6N4O7
_chemical_formula_sum   'La4 H72 C144 Br24 N16 O28'
_cell_volume   3985.99231389
_cell_formula_units_Z   4
loop_
 _symmetry_equiv_pos_site_id
 _symmetry_equiv_pos_as_xyz
  1  'x, y, z'
loop_
 _atom_site_type_symbol
 _atom_site_label
 _atom_site_symmetry_multiplicity
 _atom_site_fract_x
 _atom_site_fract_y
 _atom_site_fract_z
 _atom_site_occupancy
 _atom_site_pbe_bader_charge
 _atom_site_pbe_bader_spin_density
 _atom_site_pbe_cm5_charge
 _atom_site_pbe_ddec_charge
 _atom_site_pbe_ddec_spin_density
 _atom_site_pbe_ddec_sum_bond_order
 _atom_site_pbe_magmom
La  La0  1  0.46360594  0.71066805  0.36978340  1  2.22132  0  1.395795  1.736664  0  2.54047  0
La  La1  1  0.03639472  0.78933666  0.86978432  1  2.221464  0  1.395835  1.736658  0  2.540432  0
La  La2  1  0.53639740  0.28933611  0.63021486  1  2.221315  0  1.395787  1.736654  0  2.540491  0
La  La3  1  0.96360559  0.21066307  0.13021659  1  2.22121  0  1.39582  1.736641  0  2.540462  0
H  H4  1  0.89038144  0.33315910  0.36597603  1  0.089052  0  0.101523  0.100433  0  1.001824  0
H  H5  1  0.60962086  0.16683977  0.86597563  1  0.089149  0  0.10153  0.100406  0  1.001887  0
H  H6  1  0.10961399  0.66683914  0.63402340  1  0.089066  0  0.101526  0.100414  0  1.001865  0
H  H7  1  0.39038477  0.83315705  0.13402381  1  0.089024  0  0.101513  0.100424  0  1.001769  0
H  H8  1  0.41092277  0.20973365  0.42816476  1  0.107647  0  0.105704  0.119973  0  1.005168  0
H  H9  1  0.08908016  0.29026220  0.92816573  1  0.107756  0  0.105725  0.120031  0  1.005168  0
H  H10  1  0.58907614  0.79026461  0.57183438  1  0.107677  0  0.105716  0.120003  0  1.005196  0
H  H11  1  0.91092420  0.70973388  0.07183577  1  0.108112  0  0.105705  0.119997  0  1.005152  0
H  H12  1  0.35761811  0.84707097  0.45204486  1  0.131966  0  0.116358  0.080903  0  1.033875  0
H  H13  1  0.14238370  0.65293466  0.95204417  1  0.131832  0  0.116319  0.08086  0  1.033896  0
H  H14  1  0.64238708  0.15293026  0.54795576  1  0.132036  0  0.116332  0.080906  0  1.033796  0
H  H15  1  0.85760674  0.34706135  0.04795498  1  0.131814  0  0.1163  0.080821  0  1.033946  0
H  H16  1  0.14968152  0.66280620  0.33681486  1  0.657859  0  0.285652  0.370496  0  0.984052  0
H  H17  1  0.35031658  0.83719225  0.83681463  1  0.657869  0  0.285691  0.37057  0  0.983936  0
H  H18  1  0.85031623  0.33719205  0.66318664  1  0.658026  0  0.285681  0.370593  0  0.983914  0
H  H19  1  0.64968478  0.16280676  0.16318805  1  0.657805  0  0.285671  0.370536  0  0.983955  0
H  H20  1  0.10049555  0.75066511  0.36518031  1  0.659699  0  0.295601  0.404124  0  0.932215  0
H  H21  1  0.39950191  0.74933439  0.86518056  1  0.659713  0  0.295595  0.404104  0  0.932264  0
H  H22  1  0.89950164  0.24933682  0.63482031  1  0.659722  0  0.295567  0.40406  0  0.932313  0
H  H23  1  0.60049933  0.25066388  0.13482035  1  0.659728  0  0.295563  0.404067  0  0.932294  0
H  H24  1  0.12898435  0.58054642  0.40919396  1  0.117194  0  0.110608  0.079679  0  1.037243  0
H  H25  1  0.37101160  0.91944768  0.90919388  1  0.11712  0  0.110603  0.079693  0  1.03721  0
H  H26  1  0.87101352  0.41945257  0.59080578  1  0.117207  0  0.110602  0.079695  0  1.037274  0
H  H27  1  0.62899067  0.08054986  0.09080614  1  0.117197  0  0.110608  0.079688  0  1.03721  0
H  H28  1  0.16908951  0.28149156  0.44523743  1  0.107326  0  0.108719  0.113865  0  0.988253  0
H  H29  1  0.33091018  0.21850446  0.94523817  1  0.106734  0  0.108754  0.113894  0  0.988172  0
H  H30  1  0.83090512  0.71850888  0.55476230  1  0.106412  0  0.108742  0.113886  0  0.988187  0
H  H31  1  0.66909546  0.78149236  0.05476274  1  0.106442  0  0.108746  0.113884  0  0.988181  0
H  H32  1  0.82512216  0.63561344  0.34234398  1  0.096124  0  0.108718  0.070048  0  1.06282  0
H  H33  1  0.67487158  0.86438142  0.84234719  1  0.096034  0  0.108752  0.070041  0  1.062835  0
H  H34  1  0.17487199  0.36438405  0.65765458  1  0.096051  0  0.108743  0.070053  0  1.062803  0
H  H35  1  0.32513301  0.13561613  0.15765460  1  0.096066  0  0.108755  0.07006  0  1.062764  0
H  H36  1  0.67515804  0.22822679  0.39808488  1  0.085807  0  0.08767  0.090898  0  1.056797  0
H  H37  1  0.82484691  0.27177172  0.89808482  1  0.085879  0  0.087676  0.090879  0  1.056827  0
H  H38  1  0.32483879  0.77177293  0.60191367  1  0.085746  0  0.087663  0.090884  0  1.056783  0
H  H39  1  0.17516001  0.72822584  0.10191520  1  0.085721  0  0.08768  0.090873  0  1.056761  0
H  H40  1  0.52749757  0.77803247  0.27220521  1  0.111823  0  0.114981  0.080209  0  1.008966  0
H  H41  1  0.97250184  0.72196679  0.77220341  1  0.112871  0  0.11496  0.080169  0  1.008983  0
H  H42  1  0.47249903  0.22196578  0.72779511  1  0.112905  0  0.114964  0.080235  0  1.008934  0
H  H43  1  0.02750255  0.27803664  0.22779426  1  0.11171  0  0.11492  0.08014  0  1.009042  0
H  H44  1  0.99284645  0.49945966  0.33847930  1  0.142028  0  0.107325  0.124035  0  1.026469  0
H  H45  1  0.50714944  0.00053740  0.83848002  1  0.14201  0  0.107312  0.124051  0  1.026508  0
H  H46  1  0.00714631  0.50053636  0.66152013  1  0.141986  0  0.107309  0.124027  0  1.026483  0
H  H47  1  0.49285748  0.99946016  0.16152030  1  0.141942  0  0.107302  0.123993  0  1.02648  0
H  H48  1  0.01130339  0.42596222  0.44160928  1  0.112569  0  0.081461  0.077662  0  1.110949  0
H  H49  1  0.48869613  0.07403302  0.94161078  1  0.112542  0  0.081446  0.077644  0  1.110963  0
H  H50  1  0.98869100  0.57403675  0.55838869  1  0.112598  0  0.081428  0.077621  0  1.110991  0
H  H51  1  0.51131067  0.92596381  0.05838866  1  0.112614  0  0.081445  0.077611  0  1.111013  0
H  H52  1  0.47254481  0.89322096  0.21825218  1  0.067765  0  0.098981  0.102952  0  1.028845  0
H  H53  1  0.02745129  0.60677394  0.71825161  1  0.067697  0  0.09897  0.102994  0  1.02882  0
H  H54  1  0.52745003  0.10677360  0.78174785  1  0.067745  0  0.098978  0.102994  0  1.028761  0
H  H55  1  0.97255322  0.39323022  0.28174576  1  0.067805  0  0.098992  0.102981  0  1.028773  0
H  H56  1  0.31918121  0.03383485  0.23369017  1  0.086698  0  0.102644  0.106574  0  1.012372  0
H  H57  1  0.18081486  0.46616173  0.73369062  1  0.086656  0  0.102646  0.106568  0  1.012479  0
H  H58  1  0.68081758  0.96616267  0.76630986  1  0.086712  0  0.102625  0.106549  0  1.012363  0
H  H59  1  0.81917814  0.53383576  0.26630823  1  0.086685  0  0.102624  0.106578  0  1.012366  0
H  H60  1  0.12495163  0.10236318  0.42423458  1  0.06518  0  0.107098  0.09989  0  0.998302  0
H  H61  1  0.37504304  0.39763919  0.92423507  1  0.064779  0  0.107112  0.099929  0  0.998298  0
H  H62  1  0.87504996  0.89763729  0.57576456  1  0.065181  0  0.107078  0.099876  0  0.998294  0
H  H63  1  0.62495252  0.60235978  0.07576143  1  0.065123  0  0.107092  0.099965  0  0.998118  0
H  H64  1  0.12096444  0.15566834  0.35408172  1  0.054708  0  0.096217  0.096956  0  1.014216  0
H  H65  1  0.37903749  0.34433402  0.85408212  1  0.054691  0  0.096246  0.09699  0  1.014206  0
H  H66  1  0.87904399  0.84433144  0.64591889  1  0.054605  0  0.096264  0.097014  0  1.014136  0
H  H67  1  0.62096038  0.65566496  0.14591614  1  0.054608  0  0.096266  0.097018  0  1.014163  0
H  H68  1  0.21168463  0.98583294  0.47466976  1  0.096621  0  0.11522  0.12316  0  0.97255  0
H  H69  1  0.28831657  0.51417441  0.97466924  1  0.096653  0  0.115209  0.123084  0  0.972653  0
H  H70  1  0.78831836  0.01416901  0.52533056  1  0.09664  0  0.115195  0.123078  0  0.972665  0
H  H71  1  0.71167607  0.48582088  0.02532843  1  0.09655  0  0.11529  0.123222  0  0.972483  0
H  H72  1  0.19041952  0.13000921  0.28422500  1  0.09565  0  0.096781  0.099311  0  1.02266  0
H  H73  1  0.30958504  0.36999312  0.78422509  1  0.095654  0  0.096776  0.099286  0  1.022741  0
H  H74  1  0.80959031  0.86999204  0.71577503  1  0.095152  0  0.096795  0.099325  0  1.022625  0
H  H75  1  0.69040448  0.63000435  0.21577199  1  0.09516  0  0.096796  0.099345  0  1.022702  0
C  C76  1  0.30934971  0.94783226  0.36580027  1  0.487035  0  0.124144  0.133254  0  3.974016  0
C  C77  1  0.19065274  0.55216948  0.86579974  1  0.48697  0  0.124184  0.133279  0  3.974073  0
C  C78  1  0.69065779  0.05216898  0.63420005  1  0.487217  0  0.124169  0.133374  0  3.973851  0
C  C79  1  0.80933886  0.44782654  0.13419793  1  0.487406  0  0.124203  0.133391  0  3.974087  0
C  C80  1  0.42522220  0.45184903  0.39876887  1  0.469078  0  0.114782  0.122571  0  3.978529  0
C  C81  1  0.07478044  0.04814722  0.89876913  1  0.469173  0  0.114789  0.122588  0  3.978582  0
C  C82  1  0.57477544  0.54814848  0.60123115  1  0.469402  0  0.114778  0.122529  0  3.97853  0
C  C83  1  0.92522787  0.95185182  0.10123208  1  0.469341  0  0.114823  0.122642  0  3.978445  0
C  C84  1  0.58164404  0.46406920  0.38310731  1  0.459321  0  0.114622  0.118607  0  4.000995  0
C  C85  1  0.91835571  0.03592691  0.88310752  1  0.45937  0  0.114613  0.118594  0  4.001157  0
C  C86  1  0.41834908  0.53592903  0.61689242  1  0.458479  0  0.114671  0.118776  0  4.000984  0
C  C87  1  0.08164993  0.96406991  0.11689369  1  0.458989  0  0.114615  0.118496  0  4.001314  0
C  C88  1  0.82058430  0.39499970  0.36649450  1  -0.019233  0  -0.0711  -0.073834  0  3.950064  0
C  C89  1  0.67941765  0.10499698  0.86649523  1  -0.019216  0  -0.071114  -0.07367  0  3.950226  0
C  C90  1  0.17941345  0.60499855  0.63350435  1  -0.019195  0  -0.071063  -0.073736  0  3.950084  0
C  C91  1  0.32058451  0.89499983  0.13350509  1  -0.019217  0  -0.07108  -0.073821  0  3.950059  0
C  C92  1  0.36583424  0.35917203  0.41492441  1  -0.001563  0  -0.005891  0.047868  0  3.986814  0
C  C93  1  0.13416759  0.14082513  0.91492487  1  -0.00207  0  -0.005906  0.04777  0  3.986884  0
C  C94  1  0.63416376  0.64082769  0.58507562  1  -0.001675  0  -0.00593  0.04783  0  3.986784  0
C  C95  1  0.86583573  0.85917168  0.08507604  1  -0.001782  0  -0.005894  0.047882  0  3.986484  0
C  C96  1  0.79779831  0.00040066  0.32134605  1  -0.032014  0  -0.02126  0.03783  0  3.957506  0
C  C97  1  0.70222137  0.49960148  0.82134716  1  -0.031826  0  -0.021237  0.037824  0  3.957588  0
C  C98  1  0.20221280  0.99960133  0.67865545  1  -0.032018  0  -0.021274  0.037782  0  3.957367  0
C  C99  1  0.29778195  0.50039533  0.17865610  1  -0.03205  0  -0.021197  0.038002  0  3.957237  0
C  C100  1  0.22719744  0.02916066  0.37573762  1  0.032087  0  -0.000167  0.048923  0  4.002849  0
C  C101  1  0.27280478  0.47084194  0.87573756  1  0.032076  0  -0.000197  0.048936  0  4.002974  0
C  C102  1  0.77281087  0.97083838  0.62426182  1  0.031606  0  -0.000192  0.048865  0  4.002881  0
C  C103  1  0.72719077  0.52915703  0.12426070  1  0.031698  0  -0.000141  0.048929  0  4.00305  0
C  C104  1  0.64395988  0.53546453  0.48398121  1  -0.065174  0  -0.022562  0.029017  0  3.957878  0
C  C105  1  0.85603380  0.96454809  0.98398150  1  -0.0651  0  -0.022676  0.0288  0  3.957859  0
C  C106  1  0.35603549  0.46454767  0.51601793  1  -0.065086  0  -0.022658  0.028833  0  3.958014  0
C  C107  1  0.14396270  0.03545677  0.01601912  1  -0.065364  0  -0.022718  0.028816  0  3.958121  0
C  C108  1  0.52742218  0.59867366  0.48695704  1  0.041499  0  -0.021408  -0.104775  0  3.96434  0
C  C109  1  0.97257363  0.90133753  0.98695731  1  0.041213  0  -0.021283  -0.104752  0  3.964957  0
C  C110  1  0.47257634  0.40134370  0.51304240  1  0.040353  0  -0.021264  -0.104764  0  3.964786  0
C  C111  1  0.02742903  0.09866957  0.01304448  1  0.041483  0  -0.021304  -0.104767  0  3.964587  0
C  C112  1  0.45873210  0.27876778  0.41470829  1  0.025591  0  -0.085599  -0.106449  0  3.969204  0
C  C113  1  0.04126728  0.22122863  0.91470851  1  0.025558  0  -0.085627  -0.106513  0  3.969326  0
C  C114  1  0.54126113  0.72123118  0.58529145  1  0.02501  0  -0.085621  -0.106597  0  3.969408  0
C  C115  1  0.95873684  0.77876598  0.08529416  1  0.025194  0  -0.08565  -0.106631  0  3.969409  0
C  C116  1  0.85084089  0.83719010  0.35210419  1  1.667328  0  0.215067  0.616283  0  4.265941  0
C  C117  1  0.64916911  0.66280422  0.85210852  1  1.667786  0  0.214976  0.616269  0  4.265919  0
C  C118  1  0.14916986  0.16280968  0.64789643  1  1.66728  0  0.215056  0.616251  0  4.265973  0
C  C119  1  0.35082782  0.33718888  0.14789622  1  1.667138  0  0.215039  0.616228  0  4.265732  0
C  C120  1  0.87029106  0.87148289  0.27932761  1  -0.058903  0  -0.027375  0.016482  0  3.991524  0
C  C121  1  0.62971007  0.62851940  0.77933098  1  -0.058872  0  -0.027444  0.016322  0  3.991682  0
C  C122  1  0.12970565  0.12851609  0.72067213  1  -0.058701  0  -0.027423  0.016374  0  3.991557  0
C  C123  1  0.37029672  0.37147743  0.22067199  1  -0.058319  0  -0.0274  0.016529  0  3.991562  0
C  C124  1  0.78708700  0.06108851  0.28841628  1  -0.060702  0  -0.023308  0.032748  0  3.953062  0
C  C125  1  0.71293605  0.43891549  0.78841730  1  -0.060782  0  -0.02334  0.032731  0  3.953257  0
C  C126  1  0.21292271  0.93891201  0.71158492  1  -0.060781  0  -0.023231  0.032871  0  3.952975  0
C  C127  1  0.28706715  0.56108059  0.21158508  1  -0.060624  0  -0.023293  0.032658  0  3.953025  0
C  C128  1  0.84072641  0.90553166  0.31709447  1  0.092259  0  -0.020496  -0.105657  0  3.990981  0
C  C129  1  0.65928337  0.59447109  0.81709811  1  0.091387  0  -0.020472  -0.105636  0  3.990989  0
C  C130  1  0.15928237  0.09447032  0.68290408  1  0.092112  0  -0.020444  -0.105546  0  3.990959  0
C  C131  1  0.34072123  0.40552646  0.18290515  1  0.091528  0  -0.02052  -0.10579  0  3.991176  0
C  C132  1  0.81168895  0.02598938  0.25031939  1  0.08006  0  -0.022263  -0.099258  0  3.954705  0
C  C133  1  0.68831954  0.47401338  0.75032162  1  0.080475  0  -0.022213  -0.099278  0  3.95477  0
C  C134  1  0.18830996  0.97400887  0.74968034  1  0.080028  0  -0.022288  -0.099334  0  3.954685  0
C  C135  1  0.31168134  0.52598269  0.24968105  1  0.080046  0  -0.022258  -0.099286  0  3.954718  0
C  C136  1  0.31815513  0.89919437  0.43096213  1  0.506777  0  0.064614  0.12017  0  3.937643  0
C  C137  1  0.18184974  0.60081031  0.93096138  1  0.506329  0  0.06467  0.120177  0  3.937875  0
C  C138  1  0.68185446  0.10080541  0.56903701  1  0.505706  0  0.064619  0.120089  0  3.937534  0
C  C139  1  0.81814162  0.39918424  0.06903659  1  0.506096  0  0.064724  0.120275  0  3.937806  0
C  C140  1  0.85076609  0.92975030  0.24624445  1  -0.069684  0  -0.023621  0.031355  0  3.965022  0
C  C141  1  0.64923203  0.57025012  0.74624745  1  -0.069528  0  -0.023583  0.03146  0  3.965074  0
C  C142  1  0.14922331  0.07024643  0.75375528  1  -0.06962  0  -0.023616  0.031393  0  3.965133  0
C  C143  1  0.35077884  0.42975040  0.25375523  1  -0.069672  0  -0.023609  0.031449  0  3.965205  0
C  C144  1  0.66970885  0.38180179  0.38291650  1  -0.028723  0  -0.010017  0.036328  0  4.025069  0
C  C145  1  0.83029009  0.11819652  0.88291678  1  -0.028791  0  -0.010022  0.036235  0  4.025177  0
C  C146  1  0.33028659  0.61819645  0.61708264  1  -0.02886  0  -0.010068  0.036166  0  4.025247  0
C  C147  1  0.16970998  0.88180174  0.11708501  1  -0.028806  0  -0.010035  0.036311  0  4.025124  0
C  C148  1  0.61679099  0.43788993  0.49704082  1  -0.007502  0  -0.021406  0.037796  0  3.942552  0
C  C149  1  0.88320670  0.06212802  0.99704251  1  -0.009035  0  -0.021288  0.037938  0  3.94247  0
C  C150  1  0.38320833  0.56212523  0.50295744  1  -0.009035  0  -0.021269  0.037916  0  3.942396  0
C  C151  1  0.11678356  0.93788122  0.00295781  1  -0.00843  0  -0.021308  0.03786  0  3.942766  0
C  C152  1  0.19474394  0.51719883  0.41181176  1  0.474436  0  0.050501  0.105399  0  3.969209  0
C  C153  1  0.30525460  0.98279678  0.91181321  1  0.474397  0  0.050472  0.105296  0  3.969266  0
C  C154  1  0.80525393  0.48280015  0.58818680  1  0.474427  0  0.05049  0.105267  0  3.969379  0
C  C155  1  0.69475115  0.01720078  0.08818593  1  0.47448  0  0.050464  0.105283  0  3.969247  0
C  C156  1  0.55710622  0.70545153  0.47312287  1  1.672615  0  0.205328  0.609415  0  4.274903  0
C  C157  1  0.94289688  0.79457717  0.97311587  1  1.672382  0  0.205195  0.609374  0  4.274818  0
C  C158  1  0.44289775  0.29456365  0.52687510  1  1.672647  0  0.205178  0.609397  0  4.275146  0
C  C159  1  0.05710732  0.20543948  0.02688092  1  1.672444  0  0.205276  0.609396  0  4.27483  0
C  C160  1  0.21397664  0.35023777  0.43095339  1  -0.086687  0  -0.067823  -0.07164  0  3.925896  0
C  C161  1  0.28602261  0.14975661  0.93095457  1  -0.085577  0  -0.067761  -0.071501  0  3.92586  0
C  C162  1  0.78601996  0.64976047  0.56904576  1  -0.085854  0  -0.067756  -0.071562  0  3.925799  0
C  C163  1  0.71397966  0.85024092  0.06904517  1  -0.0856  0  -0.067744  -0.071537  0  3.925726  0
C  C164  1  0.78987274  0.08702697  0.21355649  1  1.642172  0  0.209078  0.5989  0  4.244165  0
C  C165  1  0.71012876  0.41297829  0.71355599  1  1.641966  0  0.209084  0.59899  0  4.244167  0
C  C166  1  0.21012306  0.91297348  0.78644589  1  1.642183  0  0.209138  0.599039  0  4.243985  0
C  C167  1  0.28986668  0.58701995  0.28644609  1  1.642004  0  0.209144  0.598995  0  4.244208  0
C  C168  1  0.78248362  0.56284828  0.35337546  1  0.494501  0  0.055077  0.111561  0  3.956714  0
C  C169  1  0.71751260  0.93714672  0.85337765  1  0.494368  0  0.054984  0.111595  0  3.956858  0
C  C170  1  0.21751018  0.43714701  0.64662310  1  0.494287  0  0.055019  0.111615  0  3.956824  0
C  C171  1  0.28249211  0.06285156  0.14662296  1  0.494389  0  0.055019  0.111558  0  3.956773  0
C  C172  1  0.34801711  0.93233259  0.32509646  1  0.543631  0  0.122828  0.133339  0  3.9572  0
C  C173  1  0.15197770  0.56766791  0.82509563  1  0.54351  0  0.12282  0.133353  0  3.957162  0
C  C174  1  0.65198576  0.06766863  0.67490415  1  0.543766  0  0.122858  0.13341  0  3.957234  0
C  C175  1  0.84800834  0.43232954  0.17490204  1  0.54331  0  0.12291  0.133475  0  3.957001  0
C  C176  1  0.60465851  0.28960590  0.39884918  1  -0.093938  0  -0.097094  -0.134995  0  4.034942  0
C  C177  1  0.89534274  0.21039113  0.89884966  1  -0.09387  0  -0.09708  -0.134917  0  4.035065  0
C  C178  1  0.39533681  0.71039160  0.60114997  1  -0.093219  0  -0.097076  -0.13486  0  4.034906  0
C  C179  1  0.10465954  0.78960641  0.10115302  1  -0.093898  0  -0.097083  -0.13482  0  4.035013  0
C  C180  1  0.46659706  0.84210363  0.27845305  1  0.50067  0  0.053161  0.106559  0  3.980225  0
C  C181  1  0.03339815  0.65789562  0.77845199  1  0.500565  0  0.053227  0.106754  0  3.980049  0
C  C182  1  0.53340221  0.15789683  0.72154698  1  0.49962  0  0.053136  0.106556  0  3.980071  0
C  C183  1  0.96659776  0.34210556  0.22154686  1  0.501677  0  0.053259  0.106667  0  3.980144  0
C  C184  1  0.87719282  0.48570156  0.35150009  1  -0.027054  0  -0.088111  -0.128054  0  3.963907  0
C  C185  1  0.62280648  0.01429419  0.85150150  1  -0.027013  0  -0.088115  -0.12829  0  3.964209  0
C  C186  1  0.12280457  0.51429448  0.64849876  1  -0.026976  0  -0.088143  -0.128216  0  3.963972  0
C  C187  1  0.37719799  0.98570262  0.14849853  1  -0.026962  0  -0.088108  -0.128121  0  3.963887  0
C  C188  1  0.12817728  0.42937404  0.42932331  1  -0.008952  0  -0.097403  -0.138503  0  4.024787  0
C  C189  1  0.37182195  0.07062033  0.92932501  1  -0.008955  0  -0.097434  -0.138537  0  4.024907  0
C  C190  1  0.87181711  0.57062493  0.57067524  1  -0.008935  0  -0.097406  -0.138423  0  4.024846  0
C  C191  1  0.62818497  0.92937723  0.07067384  1  -0.008971  0  -0.097433  -0.138465  0  4.024937  0
C  C192  1  0.30515968  0.99937637  0.29600099  1  -0.043739  0  -0.002086  0.051948  0  3.979756  0
C  C193  1  0.19483090  0.50062158  0.79600214  1  -0.043928  0  -0.002138  0.051772  0  3.979853  0
C  C194  1  0.69484191  0.00062410  0.70399816  1  -0.043487  0  -0.002118  0.051726  0  3.980129  0
C  C195  1  0.80515362  0.49937366  0.20399700  1  -0.043404  0  -0.002143  0.051777  0  3.979887  0
C  C196  1  0.43299115  0.90599108  0.24803247  1  -0.048353  0  -0.09145  -0.129415  0  4.006947  0
C  C197  1  0.06699864  0.59400559  0.74803191  1  -0.049417  0  -0.091528  -0.129666  0  4.006982  0
C  C198  1  0.56700092  0.09400787  0.75196697  1  -0.04844  0  -0.091478  -0.129582  0  4.006906  0
C  C199  1  0.93299831  0.40599486  0.25196694  1  -0.049338  0  -0.091592  -0.1296  0  4.007104  0
C  C200  1  0.34969958  0.98375017  0.25669206  1  0.012728  0  -0.065587  -0.061007  0  3.904771  0
C  C201  1  0.15028906  0.51624586  0.75669232  1  0.012796  0  -0.065545  -0.060839  0  3.904769  0
C  C202  1  0.65029482  0.01624880  0.74330738  1  0.01252  0  -0.065598  -0.060916  0  3.904839  0
C  C203  1  0.84970242  0.48374942  0.24330770  1  0.012559  0  -0.065508  -0.060863  0  3.904842  0
C  C204  1  0.19019003  0.04171194  0.41575223  1  -0.0744  0  -0.061858  -0.067947  0  3.944619  0
C  C205  1  0.30981044  0.45829110  0.91575218  1  -0.073933  0  -0.061836  -0.068011  0  3.944742  0
C  C206  1  0.80981492  0.95828782  0.58424750  1  -0.074337  0  -0.061799  -0.067937  0  3.944904  0
C  C207  1  0.69018720  0.54170641  0.08424491  1  -0.074369  0  -0.061886  -0.06809  0  3.944913  0
C  C208  1  0.18450667  0.09423442  0.34560290  1  -0.082374  0  -0.089911  -0.124462  0  4.011826  0
C  C209  1  0.31549491  0.40576637  0.84560394  1  -0.082336  0  -0.089928  -0.124519  0  4.01181  0
C  C210  1  0.81550408  0.90576537  0.65439683  1  -0.08182  0  -0.089959  -0.124569  0  4.011754  0
C  C211  1  0.68449809  0.59423112  0.15439373  1  -0.081938  0  -0.090013  -0.124597  0  4.011917  0
C  C212  1  0.23653815  0.97714228  0.44349959  1  -0.007863  0  -0.076813  -0.115356  0  3.957951  0
C  C213  1  0.26346562  0.52286180  0.94349907  1  -0.00738  0  -0.076824  -0.115196  0  3.958084  0
C  C214  1  0.76346796  0.02285748  0.55650132  1  -0.007071  0  -0.076817  -0.115208  0  3.958324  0
C  C215  1  0.73652842  0.47713496  0.05650007  1  -0.007152  0  -0.076941  -0.115392  0  3.9585  0
C  C216  1  0.22188037  0.07995227  0.30714804  1  0.014189  0  -0.088685  -0.119756  0  4.000889  0
C  C217  1  0.27811707  0.42004734  0.80714819  1  0.014248  0  -0.088653  -0.119662  0  4.000874  0
C  C218  1  0.77812829  0.92004897  0.69285170  1  0.014657  0  -0.088633  -0.1196  0  4.000763  0
C  C219  1  0.72186757  0.57994864  0.19284978  1  0.014886  0  -0.088637  -0.119738  0  4.00084  0
Br  Br220  1  0.75290456  0.04271878  0.37300696  1  -0.038992  0  0.074815  -0.005862  0  1.541983  0
Br  Br221  1  0.74710665  0.45727728  0.87300832  1  -0.038658  0  0.074771  -0.005903  0  1.542068  0
Br  Br222  1  0.24709469  0.95727433  0.62699395  1  -0.038873  0  0.0748  -0.005884  0  1.541963  0
Br  Br223  1  0.25289367  0.54272246  0.12699465  1  -0.038859  0  0.074752  -0.005929  0  1.541896  0
Br  Br224  1  0.77582312  0.35221656  0.49465644  1  -0.04928  0  0.070948  -0.013261  0  1.63146  0
Br  Br225  1  0.72417974  0.14779772  0.99466081  1  -0.048723  0  0.070926  -0.013298  0  1.631674  0
Br  Br226  1  0.22417376  0.64779785  0.50533946  1  -0.048788  0  0.070882  -0.013361  0  1.63153  0
Br  Br227  1  0.27581664  0.85220640  0.00533863  1  -0.049367  0  0.070932  -0.013272  0  1.631463  0
Br  Br228  1  0.83849009  0.58649047  0.46220290  1  -0.026805  0  0.081987  0.001685  0  1.684864  0
Br  Br229  1  0.66150469  0.91352337  0.96220501  1  -0.026626  0  0.081989  0.001746  0  1.685051  0
Br  Br230  1  0.16150932  0.41351808  0.53779448  1  -0.026732  0  0.081978  0.00172  0  1.685001  0
Br  Br231  1  0.33848997  0.08648441  0.03779561  1  -0.026681  0  0.082019  0.001761  0  1.685018  0
Br  Br232  1  0.94102799  0.74591960  0.27423083  1  -0.004337  0  0.089106  0.002992  0  1.787534  0
Br  Br233  1  0.55897284  0.75408115  0.77423554  1  -0.004203  0  0.08915  0.003092  0  1.78755  0
Br  Br234  1  0.05896501  0.25407789  0.72576920  1  -0.004329  0  0.08911  0.003025  0  1.787583  0
Br  Br235  1  0.44103931  0.24592011  0.22576625  1  -0.004328  0  0.089191  0.003066  0  1.787644  0
Br  Br236  1  0.73804798  0.19178878  0.29489088  1  -0.022974  0  0.063205  -0.024917  0  1.680603  0
Br  Br237  1  0.76197760  0.30821603  0.79489142  1  -0.023065  0  0.063203  -0.024877  0  1.6806  0
Br  Br238  1  0.26196057  0.80821173  0.70510974  1  -0.023007  0  0.06319  -0.02493  0  1.680527  0
Br  Br239  1  0.23803315  0.69178376  0.20511067  1  -0.022974  0  0.063226  -0.02486  0  1.680548  0
Br  Br240  1  0.86747404  0.87599661  0.19509313  1  -0.032112  0  0.066222  -0.007174  0  1.625624  0
Br  Br241  1  0.63250666  0.62400022  0.69509562  1  -0.032338  0  0.066167  -0.007227  0  1.625603  0
Br  Br242  1  0.13250189  0.12399565  0.80490689  1  -0.032236  0  0.066173  -0.007227  0  1.625692  0
Br  Br243  1  0.36754785  0.37601229  0.30490735  1  -0.032239  0  0.066133  -0.007319  0  1.625675  0
N  N244  1  0.63919980  0.55333056  0.36856186  1  -1.220112  0  -0.353833  -0.33067  0  3.458144  0
N  N245  1  0.86079711  0.94666755  0.86856388  1  -1.220132  0  -0.353757  -0.330546  0  3.458402  0
N  N246  1  0.36079344  0.44666840  0.63143640  1  -1.219125  0  -0.353777  -0.330632  0  3.458293  0
N  N247  1  0.13920865  0.05333000  0.13143673  1  -1.219728  0  -0.353762  -0.330495  0  3.458423  0
N  N248  1  0.33864331  0.52919037  0.39708168  1  -1.235303  0  -0.356665  -0.324343  0  3.440829  0
N  N249  1  0.16135631  0.97080582  0.89708183  1  -1.235353  0  -0.356683  -0.3243  0  3.440903  0
N  N250  1  0.66135340  0.47080861  0.60291834  1  -1.235344  0  -0.356675  -0.324335  0  3.441019  0
N  N251  1  0.83865084  0.02919321  0.10291732  1  -1.235408  0  -0.356748  -0.324418  0  3.440874  0
N  N252  1  0.35308014  0.88404698  0.39335426  1  -1.222066  0  -0.350694  -0.326195  0  3.43704  0
N  N253  1  0.14692433  0.61595801  0.89335321  1  -1.222024  0  -0.350715  -0.326222  0  3.437234  0
N  N254  1  0.64692609  0.11595352  0.60664695  1  -1.22215  0  -0.350692  -0.326231  0  3.436854  0
N  N255  1  0.85306531  0.38404020  0.10664652  1  -1.22211  0  -0.350748  -0.326321  0  3.437311  0
N  N256  1  0.42509747  0.85385686  0.31577005  1  -1.235886  0  -0.362072  -0.334355  0  3.464245  0
N  N257  1  0.07489849  0.64614428  0.81576900  1  -1.235413  0  -0.362072  -0.334384  0  3.464017  0
N  N258  1  0.57490760  0.14614364  0.68423027  1  -1.23589  0  -0.362039  -0.334334  0  3.464151  0
N  N259  1  0.92509230  0.35385393  0.18422985  1  -1.235879  0  -0.362092  -0.334395  0  3.464013  0
O  O260  1  0.61834810  0.76832087  0.49607840  1  -1.139199  0  -0.31511  -0.522637  0  2.075704  0
O  O261  1  0.88163030  0.73168224  0.99608185  1  -1.13858  0  -0.315338  -0.523013  0  2.074466  0
O  O262  1  0.38166609  0.23170025  0.50391692  1  -1.139115  0  -0.315  -0.522638  0  2.076009  0
O  O263  1  0.11835970  0.26831817  0.00392024  1  -1.138849  0  -0.315203  -0.522777  0  2.075163  0
O  O264  1  0.97863013  0.83661085  0.36909981  1  -1.163651  0  -0.298817  -0.526227  0  2.19397  0
O  O265  1  0.52136667  0.66338654  0.86910375  1  -1.1637  0  -0.298782  -0.526278  0  2.193771  0
O  O266  1  0.02137717  0.16339627  0.63090110  1  -1.163513  0  -0.298823  -0.526255  0  2.193858  0
O  O267  1  0.47862725  0.33660949  0.13089746  1  -1.163516  0  -0.298798  -0.52624  0  2.193483  0
O  O268  1  0.51108125  0.71902738  0.43756138  1  -1.210909  0  -0.437117  -0.648808  0  2.346459  0
O  O269  1  0.98890370  0.78099202  0.93756117  1  -1.211052  0  -0.436927  -0.648485  0  2.347141  0
O  O270  1  0.48891516  0.28098409  0.56243717  1  -1.210703  0  -0.437166  -0.648837  0  2.346301  0
O  O271  1  0.01108923  0.21901944  0.06243915  1  -1.210927  0  -0.43703  -0.648663  0  2.346656  0
O  O272  1  0.72379613  0.78354826  0.35998084  1  -1.206829  0  -0.412688  -0.625509  0  2.333167  0
O  O273  1  0.77620179  0.71644241  0.85998830  1  -1.207347  0  -0.412604  -0.625455  0  2.333268  0
O  O274  1  0.27621218  0.21645078  0.64002037  1  -1.206943  0  -0.412633  -0.625433  0  2.333158  0
O  O275  1  0.22379755  0.28354409  0.14001909  1  -1.206714  0  -0.412665  -0.625407  0  2.333181  0
O  O276  1  0.91265029  0.12509097  0.19622009  1  -1.194515  0  -0.374887  -0.607402  0  2.24613  0
O  O277  1  0.58735457  0.37491484  0.69621943  1  -1.194414  0  -0.374824  -0.607388  0  2.246104  0
O  O278  1  0.08734955  0.87490582  0.80378141  1  -1.194605  0  -0.37493  -0.60747  0  2.246121  0
O  O279  1  0.41263953  0.62509662  0.30378001  1  -1.194415  0  -0.37486  -0.607392  0  2.246205  0
O  O280  1  0.17404732  0.69990888  0.36209554  1  -1.323716  0  -0.643994  -0.815545  0  2.100544  0
O  O281  1  0.32595613  0.80009208  0.86209641  1  -1.323748  0  -0.644017  -0.815559  0  2.100462  0
O  O282  1  0.82594951  0.30009083  0.63790566  1  -1.323917  0  -0.643986  -0.815539  0  2.100503  0
O  O283  1  0.67404998  0.19990768  0.13790538  1  -1.323696  0  -0.643964  -0.815476  0  2.100521  0
O  O284  1  0.65102356  0.09250282  0.20293499  1  -1.178617  0  -0.303371  -0.53473  0  2.232107  0
O  O285  1  0.84898394  0.40750455  0.70293488  1  -1.178474  0  -0.303391  -0.534817  0  2.232142  0
O  O286  1  0.34897562  0.90750426  0.79706769  1  -1.178593  0  -0.303374  -0.534792  0  2.232128  0
O  O287  1  0.15101379  0.59248635  0.29706839  1  -1.178547  0  -0.303494  -0.53486  0  2.232166  0
