# generated using pymatgen
data_AlH11C19O13
_symmetry_space_group_name_H-M   'P 1'
_cell_length_a   6.71344410
_cell_length_b   20.82491129
_cell_length_c   25.77064635
_cell_angle_alpha   83.52177957
_cell_angle_beta   90.01400004
_cell_angle_gamma   90.00349878
_symmetry_Int_Tables_number   1
_chemical_formula_structural   AlH11C19O13
_chemical_formula_sum   'Al4 H44 C76 O52'
_cell_volume   3579.90822952
_cell_formula_units_Z   4
loop_
 _symmetry_equiv_pos_site_id
 _symmetry_equiv_pos_as_xyz
  1  'x, y, z'
loop_
 _atom_site_type_symbol
 _atom_site_label
 _atom_site_symmetry_multiplicity
 _atom_site_fract_x
 _atom_site_fract_y
 _atom_site_fract_z
 _atom_site_occupancy
 _atom_site_pbe_bader_charge
 _atom_site_pbe_bader_spin_density
 _atom_site_pbe_cm5_charge
 _atom_site_pbe_ddec_charge
 _atom_site_pbe_ddec_spin_density
 _atom_site_pbe_ddec_sum_bond_order
 _atom_site_pbe_magmom
Al  Al0  1  0.84002009  0.49903215  0.49981898  1  2.501502  0  0.401735  1.635307  0  2.590972  0
Al  Al1  1  0.33999788  0.50100655  0.50015581  1  2.501603  0  0.401841  1.635622  0  2.591416  0
Al  Al2  1  0.34792696  0.00037637  0.99917427  1  2.503627  0  0.402403  1.640624  0  2.57709  0
Al  Al3  1  0.84793234  0.99972994  0.00076370  1  2.502343  0  0.402612  1.642064  0  2.575209  0
H  H4  1  0.36183646  0.84925841  0.78321032  1  0.09513  0  0.113296  0.122181  0  0.984092  0
H  H5  1  0.86201889  0.15102126  0.21677210  1  0.094765  0  0.113248  0.12225  0  0.984328  0
H  H6  1  0.37416413  0.65126435  0.59837027  1  0.096958  0  0.119779  0.125362  0  0.970451  0
H  H7  1  0.87384575  0.34886197  0.40159660  1  0.099173  0  0.119758  0.125685  0  0.969957  0
H  H8  1  0.26110148  0.64529646  0.23833789  1  0.141924  0  0.118435  0.113924  0  1.045225  0
H  H9  1  0.76126418  0.35469985  0.76170527  1  0.141919  0  0.118627  0.114353  0  1.044762  0
H  H10  1  0.80710582  0.76913113  0.84556208  1  0.050184  0  0.109426  0.113666  0  0.983102  0
H  H11  1  0.30711281  0.23090737  0.15428547  1  0.051614  0  0.109522  0.113672  0  0.983436  0
H  H12  1  0.28457534  0.84133101  0.24486580  1  0.101507  0  0.105809  0.128124  0  0.99442  0
H  H13  1  0.78459934  0.15865820  0.75493938  1  0.100347  0  0.105796  0.128128  0  0.994136  0
H  H14  1  0.77769984  0.77469505  0.21649343  1  0.113502  0  0.10511  0.095838  0  1.041514  0
H  H15  1  0.27778443  0.22514759  0.78336569  1  0.118768  0  0.105056  0.096085  0  1.041138  0
H  H16  1  0.69666448  0.93044299  0.21742598  1  0.613625  0  0.336676  0.383044  0  0.871935  0
H  H17  1  0.19636807  0.06954392  0.78211747  1  0.615775  0  0.336537  0.383156  0  0.870959  0
H  H18  1  0.96080713  0.78054714  0.32112189  1  0.108153  0  0.106861  0.128585  0  0.998633  0
H  H19  1  0.46076937  0.21968760  0.67869572  1  0.111388  0  0.106887  0.129237  0  0.998544  0
H  H20  1  0.79719486  0.72290028  0.30149536  1  0.093813  0  0.100712  0.110397  0  1.068141  0
H  H21  1  0.29725747  0.27726799  0.69845942  1  0.098863  0  0.100409  0.110531  0  1.067801  0
H  H22  1  0.41071215  0.62737232  0.12924459  1  0.633032  0  0.357592  0.396984  0  0.829187  0
H  H23  1  0.91077721  0.37244361  0.87083170  1  0.633449  0  0.357306  0.396135  0  0.829492  0
H  H24  1  0.66035464  0.73763974  0.12469347  1  0.661063  0  0.325064  0.378282  0  0.910748  0
H  H25  1  0.16050639  0.26222298  0.87521886  1  0.660914  0  0.324657  0.377454  0  0.912603  0
H  H26  1  0.41853276  0.78770315  0.21008206  1  0.06243  0  0.103392  0.125287  0  1.012727  0
H  H27  1  0.91859384  0.21221672  0.78979676  1  0.064802  0  0.10343  0.125513  0  1.013303  0
H  H28  1  0.65815277  0.64840882  0.24914014  1  0.666983  0  0.307433  0.367467  0  0.969995  0
H  H29  1  0.15824112  0.35154276  0.75090273  1  0.668154  0  0.307547  0.367962  0  0.969419  0
H  H30  1  0.81255129  0.84696724  0.91273002  1  0.117631  0  0.116664  0.123172  0  0.980752  0
H  H31  1  0.31319494  0.15313646  0.08709104  1  0.11717  0  0.116664  0.12347  0  0.981203  0
H  H32  1  0.05187509  0.50896242  0.25961393  1  0.663405  0  0.334  0.402093  0  0.87606  0
H  H33  1  0.55194533  0.49103076  0.74040541  1  0.662984  0  0.334168  0.40241  0  0.875134  0
H  H34  1  0.44694765  0.03159550  0.83898260  1  0.610682  0  0.329756  0.362824  0  0.90385  0
H  H35  1  0.94977138  0.96881865  0.16158724  1  0.605151  0  0.329956  0.36307  0  0.904349  0
H  H36  1  0.54955039  0.66658647  0.76698187  1  0.621334  0  0.345753  0.380322  0  0.85635  0
H  H37  1  0.04935744  0.33360514  0.23288117  1  0.624182  0  0.345636  0.380661  0  0.856967  0
H  H38  1  0.79485573  0.57305453  0.63748779  1  0.136075  0  0.12097  0.130946  0  0.984895  0
H  H39  1  0.29447704  0.42702991  0.36252437  1  0.134196  0  0.120868  0.130692  0  0.98526  0
H  H40  1  0.35371660  0.71761259  0.67337116  1  0.089558  0  0.106403  0.109138  0  0.995098  0
H  H41  1  0.85334559  0.28254076  0.32656971  1  0.061932  0  0.10696  0.109959  0  0.995265  0
H  H42  1  0.51486371  0.83935014  0.35853087  1  0.629162  0  0.35834  0.395414  0  0.829491  0
H  H43  1  0.01466544  0.16076068  0.64130876  1  0.625916  0  0.358396  0.395818  0  0.828504  0
H  H44  1  0.59267188  0.57835295  0.47004041  1  0.628732  0  0.356283  0.437548  0  0.843341  0
H  H45  1  0.09270130  0.42167323  0.52992061  1  0.62558  0  0.356276  0.437596  0  0.843189  0
H  H46  1  0.59534058  0.91869317  0.02266732  1  0.627658  0  0.356345  0.435172  0  0.845975  0
H  H47  1  0.09528029  0.08148210  0.97742501  1  0.626345  0  0.356286  0.435172  0  0.84554  0
C  C48  1  0.58868209  0.42461913  0.57757624  1  1.684457  0  0.287158  0.733392  0  4.140989  0
C  C49  1  0.08857156  0.57546233  0.42240501  1  1.684779  0  0.286376  0.733267  0  4.141271  0
C  C50  1  0.58811790  0.42728559  0.43359742  1  1.592508  0  0.270103  0.639861  0  4.109179  0
C  C51  1  0.08821820  0.57276591  0.56639260  1  1.591155  0  0.270333  0.641057  0  4.10789  0
C  C52  1  0.93022695  0.80288461  0.84735764  1  0.000335  0  -0.073096  -0.112383  0  3.922203  0
C  C53  1  0.43030491  0.19717090  0.15256650  1  0.00268  0  -0.073023  -0.111961  0  3.922751  0
C  C54  1  0.93323816  0.84597235  0.88463906  1  0.015179  0  -0.067359  -0.05984  0  3.96903  0
C  C55  1  0.43360194  0.15408352  0.11528381  1  0.013608  0  -0.067831  -0.060642  0  3.970449  0
C  C56  1  0.09050372  0.88980918  0.88671929  1  -0.015673  0  -0.000697  -0.048385  0  3.904804  0
C  C57  1  0.59086854  0.11022907  0.11327420  1  -0.013215  0  -0.000458  -0.048083  0  3.90521  0
C  C58  1  0.24405241  0.89136813  0.84927293  1  0.060338  0  -0.001318  -0.032402  0  3.957026  0
C  C59  1  0.74423983  0.10870884  0.15079602  1  -0.035922  0  -0.001273  -0.032923  0  3.956902  0
C  C60  1  0.24296728  0.84771196  0.81212643  1  -0.049868  0  -0.073557  -0.147336  0  3.904764  0
C  C61  1  0.74299678  0.15243313  0.18789739  1  0.016684  0  -0.073826  -0.147601  0  3.905149  0
C  C62  1  0.08658589  0.80271297  0.81082930  1  0.127523  0  0.003404  0.140232  0  4.126091  0
C  C63  1  0.58656405  0.19740718  0.18914130  1  0.130118  0  0.004135  0.14089  0  4.125805  0
C  C64  1  0.08289982  0.75909530  0.77266494  1  -0.021399  0  -0.039594  -0.097585  0  4.098001  0
C  C65  1  0.58274577  0.24108618  0.22726345  1  -0.057829  0  -0.040138  -0.098998  0  4.097134  0
C  C66  1  0.06728426  0.72159489  0.73973263  1  -0.346477  0  -0.045388  -0.100898  0  4.14087  0
C  C67  1  0.56683056  0.27858286  0.26019114  1  -0.293275  0  -0.045141  -0.099529  0  4.138835  0
C  C68  1  0.90515174  0.63961490  0.68889716  1  -0.042293  0  -0.00967  -0.094526  0  3.916902  0
C  C69  1  0.40462825  0.36044863  0.31112509  1  -0.039506  0  -0.009906  -0.094553  0  3.917335  0
C  C70  1  0.91759407  0.60453060  0.64579808  1  0.020252  0  -0.059846  -0.08089  0  3.908555  0
C  C71  1  0.41714926  0.39552993  0.35422736  1  0.017619  0  -0.059537  -0.080923  0  3.909852  0
C  C72  1  0.08348179  0.60940453  0.61294701  1  0.01706  0  -0.003347  -0.028937  0  3.949782  0
C  C73  1  0.58312756  0.39064887  0.38705969  1  0.013679  0  -0.003602  -0.027815  0  3.949436  0
C  C74  1  0.24358202  0.64899539  0.62366388  1  -0.022024  0  -0.062944  -0.057139  0  3.946577  0
C  C75  1  0.74317746  0.35107662  0.37632311  1  -0.026213  0  -0.062277  -0.057339  0  3.946284  0
C  C76  1  0.23236668  0.68532833  0.66543369  1  -0.010783  0  -0.078829  -0.126606  0  3.946687  0
C  C77  1  0.73192445  0.31477105  0.33454029  1  0.026396  0  -0.079555  -0.12784  0  3.948113  0
C  C78  1  0.06403061  0.68217292  0.69866164  1  0.099445  0  0.012516  0.130942  0  4.072023  0
C  C79  1  0.56351234  0.31793112  0.30131506  1  0.079276  0  0.012448  0.130947  0  4.071982  0
C  C80  1  0.28820158  0.79163729  0.23484015  1  -0.008979  0  -0.159549  -0.239469  0  3.771806  0
C  C81  1  0.78821977  0.20832645  0.76502722  1  -0.011868  0  -0.15933  -0.239917  0  3.773165  0
C  C82  1  0.90686370  0.79087721  0.23710070  1  -0.015384  0  -0.086396  -0.162823  0  3.793294  0
C  C83  1  0.40697974  0.20907569  0.76272445  1  -0.024728  0  -0.08689  -0.163845  0  3.793518  0
C  C84  1  0.93123555  0.75014133  0.29002441  1  -0.047284  0  -0.168358  -0.233633  0  3.839301  0
C  C85  1  0.43127293  0.24997893  0.70987082  1  -0.055553  0  -0.168078  -0.234697  0  3.838692  0
C  C86  1  0.08965091  0.61858568  0.37484984  1  0.140803  0  -0.027374  -0.169645  0  3.90377  0
C  C87  1  0.58987728  0.38157760  0.62517573  1  0.139016  0  -0.02765  -0.169138  0  3.90398  0
C  C88  1  0.09620259  0.78214842  0.20253541  1  0.117056  0  0.018965  0.152114  0  3.785788  0
C  C89  1  0.59625637  0.21778669  0.79732056  1  0.137885  0  0.01873  0.152648  0  3.78514  0
C  C90  1  0.30258786  0.74387896  0.28555707  1  0.004122  0  0.000195  -0.136112  0  3.718764  0
C  C91  1  0.80260561  0.25616522  0.71435670  1  -0.001099  0  0.000372  -0.135762  0  3.718205  0
C  C92  1  0.10602644  0.70257535  0.28924152  1  0.125637  0  0.020255  0.162956  0  3.815425  0
C  C93  1  0.60614223  0.29749917  0.71072353  1  0.119598  0  0.020335  0.163321  0  3.815897  0
C  C94  1  0.10998492  0.66408366  0.23960666  1  -0.05489  0  -0.073595  -0.204713  0  3.671068  0
C  C95  1  0.61014093  0.33591897  0.76039680  1  -0.055497  0  -0.073637  -0.204554  0  3.671115  0
C  C96  1  0.08631703  0.71095970  0.18710023  1  0.028833  0  0.016816  -0.128758  0  3.599963  0
C  C97  1  0.58642182  0.28896109  0.81284072  1  0.011494  0  0.016578  -0.129487  0  3.600682  0
C  C98  1  0.10004810  0.65694811  0.33600146  1  -0.351367  0  -0.017787  -0.017201  0  4.014417  0
C  C99  1  0.60023695  0.34319372  0.66400149  1  -0.343089  0  -0.017797  -0.017922  0  4.015403  0
C  C100  1  0.09908112  0.83036092  0.15701518  1  -0.459012  0  -0.012065  0.01161  0  4.003236  0
C  C101  1  0.59903663  0.16955702  0.84282248  1  -0.459436  0  -0.012062  0.011741  0  4.002483  0
C  C102  1  0.10234786  0.87264552  0.12051997  1  0.231575  0  -0.048005  -0.222874  0  3.938798  0
C  C103  1  0.60213325  0.12727317  0.87932462  1  0.231821  0  -0.047637  -0.222647  0  3.938841  0
C  C104  1  0.59624040  0.06959804  0.06907205  1  1.58484  0  0.268173  0.642795  0  4.102592  0
C  C105  1  0.09549612  0.93051444  0.93086908  1  1.58338  0  0.268384  0.642015  0  4.103721  0
C  C106  1  0.60046708  0.08164855  0.92572623  1  1.666796  0  0.278136  0.723509  0  4.156013  0
C  C107  1  0.10088001  0.91835407  0.07416357  1  1.665303  0  0.277972  0.722895  0  4.154971  0
C  C108  1  0.87165434  0.86170074  0.24282115  1  1.502569  0  0.230265  0.601859  0  4.074633  0
C  C109  1  0.37164257  0.13829342  0.75683289  1  1.505973  0  0.229357  0.599964  0  4.076264  0
C  C110  1  0.26631032  0.69721443  0.15180380  1  1.563031  0  0.249647  0.58785  0  4.037218  0
C  C111  1  0.76643006  0.30263956  0.84817545  1  1.562095  0  0.249816  0.587778  0  4.037079  0
C  C112  1  0.89448063  0.69600195  0.15593044  1  1.550364  0  0.234754  0.570593  0  4.061401  0
C  C113  1  0.39460804  0.30389123  0.84401804  1  1.553318  0  0.234937  0.570511  0  4.062328  0
C  C114  1  0.47739088  0.69617024  0.28887915  1  1.54326  0  0.22551  0.560747  0  4.089641  0
C  C115  1  0.97748005  0.30384673  0.71109513  1  1.543224  0  0.225901  0.561836  0  4.088609  0
C  C116  1  0.98961217  0.60121223  0.24793923  1  1.557674  0  0.249105  0.630533  0  4.035865  0
C  C117  1  0.48974100  0.39878170  0.75208986  1  1.555632  0  0.249019  0.630483  0  4.035891  0
C  C118  1  0.40712631  0.94055584  0.84511438  1  1.511445  0  0.238613  0.592605  0  4.104874  0
C  C119  1  0.90794603  0.05973673  0.15499213  1  1.532896  0  0.239846  0.594503  0  4.10398  0
C  C120  1  0.72163627  0.62937603  0.72105809  1  1.48018  0  0.23947  0.591745  0  4.105011  0
C  C121  1  0.22112493  0.37071102  0.27895473  1  1.479015  0  0.239929  0.592074  0  4.105404  0
C  C122  1  0.33213071  0.78069994  0.33369439  1  1.551246  0  0.243605  0.585956  0  4.058753  0
C  C123  1  0.83198183  0.21940821  0.66617257  1  1.558437  0  0.243178  0.58518  0  4.057053  0
O  O124  1  0.41982438  0.44271608  0.45107687  1  -1.250755  0  -0.233065  -0.589181  0  2.35403  0
O  O125  1  0.91983596  0.55727525  0.54897277  1  -1.250627  0  -0.233141  -0.589282  0  2.352794  0
O  O126  1  0.75814100  0.44056192  0.55816029  1  -1.240931  0  -0.22202  -0.580019  0  2.292108  0
O  O127  1  0.25808323  0.55941652  0.44175788  1  -1.24124  0  -0.221767  -0.580078  0  2.292629  0
O  O128  1  0.75893107  0.43898837  0.45181590  1  -1.244953  0  -0.233855  -0.589008  0  2.33041  0
O  O129  1  0.25891527  0.56110312  0.54810496  1  -1.244184  0  -0.233894  -0.589653  0  2.330271  0
O  O130  1  0.91947410  0.55756641  0.44108421  1  -1.245472  0  -0.224155  -0.585247  0  2.289348  0
O  O131  1  0.41951890  0.44252303  0.55892639  1  -1.245754  0  -0.22438  -0.585551  0  2.289819  0
O  O132  1  0.59113339  0.53982853  0.49510186  1  -1.427405  0  -0.44759  -0.987675  0  2.157693  0
O  O133  1  0.09113260  0.46020098  0.50486249  1  -1.424288  0  -0.44759  -0.987645  0  2.157595  0
O  O134  1  0.76839557  0.06397352  0.94521685  1  -1.241229  0  -0.223389  -0.57721  0  2.285103  0
O  O135  1  0.26894750  0.93637700  0.05496699  1  -1.242232  0  -0.223285  -0.57653  0  2.283694  0
O  O136  1  0.42903783  0.05638784  0.04963105  1  -1.24869  0  -0.231945  -0.587383  0  2.351781  0
O  O137  1  0.92809627  0.94404245  0.95000085  1  -1.246829  0  -0.231511  -0.586257  0  2.353779  0
O  O138  1  0.42967490  0.06327295  0.94307517  1  -1.238896  0  -0.226399  -0.58329  0  2.295586  0
O  O139  1  0.93017771  0.93645709  0.05655426  1  -1.236472  0  -0.226677  -0.583095  0  2.294582  0
O  O140  1  0.26681943  0.94568698  0.94707579  1  -1.246543  0  -0.235044  -0.594404  0  2.352307  0
O  O141  1  0.76765333  0.05418039  0.05311528  1  -1.247647  0  -0.234779  -0.594573  0  2.353547  0
O  O142  1  0.59758263  0.96075201  0.00221777  1  -1.428358  0  -0.44742  -0.986328  0  2.172546  0
O  O143  1  0.09760667  0.03935913  0.99777230  1  -1.427405  0  -0.447229  -0.985896  0  2.171474  0
O  O144  1  0.97930623  0.89572401  0.26655862  1  -1.140358  0  -0.299808  -0.495994  0  2.062588  0
O  O145  1  0.70473413  0.88328359  0.21710907  1  -1.107115  0  -0.329151  -0.471841  0  2.260787  0
O  O146  1  0.47891907  0.10434839  0.73294802  1  -1.143531  0  -0.298546  -0.494013  0  2.062582  0
O  O147  1  0.20478476  0.11667605  0.78256180  1  -1.107911  0  -0.328689  -0.471416  0  2.260857  0
O  O148  1  0.37850478  0.73824747  0.13026686  1  -1.14062  0  -0.258763  -0.468815  0  2.193041  0
O  O149  1  0.28695597  0.63372358  0.14833680  1  -1.116398  0  -0.309259  -0.441935  0  2.266629  0
O  O150  1  0.87872990  0.26159086  0.86965593  1  -1.140815  0  -0.259062  -0.468845  0  2.193303  0
O  O151  1  0.78700618  0.36611998  0.85172295  1  -1.114796  0  -0.308789  -0.440685  0  2.266123  0
O  O152  1  0.84306504  0.64101131  0.15033120  1  -1.116552  0  -0.284048  -0.470531  0  2.119512  0
O  O153  1  0.79618448  0.74916653  0.13606473  1  -1.147617  0  -0.311725  -0.448407  0  2.333475  0
O  O154  1  0.34322394  0.35886942  0.84965998  1  -1.118119  0  -0.284097  -0.470276  0  2.11938  0
O  O155  1  0.29630614  0.25070748  0.86383223  1  -1.148959  0  -0.311386  -0.447822  0  2.334494  0
O  O156  1  0.53658461  0.67034000  0.33097860  1  -1.115395  0  -0.269638  -0.447171  0  2.11407  0
O  O157  1  0.55126194  0.68427772  0.24252953  1  -1.180019  0  -0.337396  -0.495652  0  2.352333  0
O  O158  1  0.03671495  0.32973177  0.66902342  1  -1.11597  0  -0.26988  -0.447744  0  2.114223  0
O  O159  1  0.05136387  0.31567042  0.75747373  1  -1.181697  0  -0.337615  -0.496332  0  2.351533  0
O  O160  1  0.80995714  0.59474089  0.25661458  1  -1.12334  0  -0.268455  -0.470411  0  2.22154  0
O  O161  1  0.11473767  0.55145790  0.24914341  1  -1.131072  0  -0.312853  -0.458827  0  2.275106  0
O  O162  1  0.31005290  0.40523725  0.74344400  1  -1.122299  0  -0.268346  -0.470638  0  2.221364  0
O  O163  1  0.61485277  0.44854560  0.75088937  1  -1.12928  0  -0.312946  -0.459098  0  2.274666  0
O  O164  1  0.58432995  0.92856947  0.84326093  1  -1.126457  0  -0.274081  -0.464191  0  2.098795  0
O  O165  1  0.33286957  0.00188873  0.83956536  1  -1.116931  0  -0.329435  -0.493133  0  2.308601  0
O  O166  1  0.08495308  0.07205578  0.15676592  1  -1.125448  0  -0.274499  -0.465138  0  2.099715  0
O  O167  1  0.83491180  0.99824357  0.16070419  1  -1.107183  0  -0.329573  -0.493585  0  2.309713  0
O  O168  1  0.61405475  0.58139353  0.72202716  1  -1.152447  0  -0.288198  -0.517109  0  2.147373  0
O  O169  1  0.67499532  0.67882536  0.74894818  1  -1.120045  0  -0.32388  -0.472937  0  2.260463  0
O  O170  1  0.11344289  0.41866044  0.27803867  1  -1.153568  0  -0.28825  -0.517038  0  2.147761  0
O  O171  1  0.17469291  0.32132466  0.25096638  1  -1.121901  0  -0.323943  -0.473733  0  2.261012  0
O  O172  1  0.22877566  0.77852350  0.37247373  1  -1.122157  0  -0.269037  -0.45395  0  2.110542  0
O  O173  1  0.49922724  0.81781841  0.32686711  1  -1.128019  0  -0.326697  -0.470573  0  2.234388  0
O  O174  1  0.72851903  0.22163952  0.62739875  1  -1.12444  0  -0.268871  -0.453531  0  2.109263  0
O  O175  1  0.99903422  0.18226364  0.67298392  1  -1.123579  0  -0.326543  -0.4708  0  2.233562  0
