# generated using pymatgen
data_GdH10C9N3O8
_symmetry_space_group_name_H-M   'P 1'
_cell_length_a   8.24431255
_cell_length_b   8.31668835
_cell_length_c   10.39153868
_cell_angle_alpha   73.37405615
_cell_angle_beta   70.94939696
_cell_angle_gamma   73.14163026
_symmetry_Int_Tables_number   1
_chemical_formula_structural   GdH10C9N3O8
_chemical_formula_sum   'Gd2 H20 C18 N6 O16'
_cell_volume   629.93170408
_cell_formula_units_Z   2
loop_
 _symmetry_equiv_pos_site_id
 _symmetry_equiv_pos_as_xyz
  1  'x, y, z'
loop_
 _atom_site_type_symbol
 _atom_site_label
 _atom_site_symmetry_multiplicity
 _atom_site_fract_x
 _atom_site_fract_y
 _atom_site_fract_z
 _atom_site_occupancy
 _atom_site_hle17_bader_spin_density
 _atom_site_hle17_ddec_charge
 _atom_site_hle17_ddec_spin_density
 _atom_site_hle17_ddec_sum_bond_order
 _atom_site_hle17_magmom
 _atom_site_hse06_10hf_bader_spin_density
 _atom_site_hse06_10hf_ddec_charge
 _atom_site_hse06_10hf_ddec_spin_density
 _atom_site_hse06_10hf_ddec_sum_bond_order
 _atom_site_hse06_10hf_magmom
 _atom_site_hse06_bader_spin_density
 _atom_site_hse06_ddec_charge
 _atom_site_hse06_ddec_spin_density
 _atom_site_hse06_ddec_sum_bond_order
 _atom_site_hse06_magmom
 _atom_site_pbe_bader_spin_density
 _atom_site_pbe_cm5_charge
 _atom_site_pbe_ddec_charge
 _atom_site_pbe_ddec_spin_density
 _atom_site_pbe_ddec_sum_bond_order
 _atom_site_pbe_magmom
Gd  Gd0  1  0.25074865  0.47620005  0.51462730  1  0  2.174763  0  1.750659  0  0  2.082383  0  2.100101  0  0  2.139166  0  2.044891  0  0  1.525351  2.039706  0  2.142363  0
Gd  Gd1  1  0.74924958  0.52379753  0.48537374  1  0  2.174747  0  1.750692  0  0  2.082449  0  2.100018  0  0  2.139245  0  2.04478  0  0  1.525371  2.039769  0  2.142289  0
H  H2  1  0.32839827  0.15796559  0.11059653  1  0  0.091872  0  0.922617  0  0  0.104863  0  0.983736  0  0  0.106694  0  0.981883  0  0  0.116323  0.103395  0  0.985275  0
H  H3  1  0.67160939  0.84203524  0.88939967  1  0  0.091916  0  0.922574  0  0  0.104904  0  0.983715  0  0  0.106735  0  0.981864  0  0  0.116335  0.103433  0  0.985257  0
H  H4  1  0.40763688  0.02486812  0.25586213  1  0  0.075225  0  0.940532  0  0  0.085133  0  1.011781  0  0  0.086941  0  1.00958  0  0  0.109665  0.08374  0  1.01346  0
H  H5  1  0.59235808  0.97512218  0.74414673  1  0  0.07524  0  0.940607  0  0  0.085151  0  1.011852  0  0  0.086952  0  1.00965  0  0  0.109705  0.083761  0  1.013525  0
H  H6  1  0.03941260  0.24294897  0.25503819  1  0  0.138246  0  0.968195  0  0  0.148306  0  1.030559  0  0  0.151357  0  1.029464  0  0  0.113759  0.146189  0  1.031309  0
H  H7  1  0.96059333  0.75705837  0.74495641  1  0  0.138237  0  0.968197  0  0  0.148309  0  1.030569  0  0  0.151353  0  1.02947  0  0  0.113774  0.146193  0  1.031315  0
H  H8  1  0.06441274  0.05232009  0.38483021  1  0  0.121492  0  0.923362  0  0  0.136849  0  0.979177  0  0  0.139094  0  0.978216  0  0  0.111473  0.13522  0  0.979974  0
H  H9  1  0.93557866  0.94768397  0.61516859  1  0  0.121462  0  0.923375  0  0  0.136834  0  0.9792  0  0  0.139068  0  0.978239  0  0  0.111475  0.135205  0  0.979997  0
H  H10  1  0.15377396  0.88134742  0.85656435  1  0  0.067552  0  0.932814  0  0  0.083988  0  0.994283  0  0  0.085139  0  0.993247  0  0  0.109006  0.083229  0  0.994902  0
H  H11  1  0.84621372  0.11864145  0.14344465  1  0  0.067644  0  0.932851  0  0  0.084033  0  0.994361  0  0  0.085189  0  0.993327  0  0  0.109035  0.083276  0  0.994974  0
H  H12  1  0.08471668  0.68473731  0.94599450  1  0  0.09951  0  0.910764  0  0  0.112327  0  0.972696  0  0  0.114472  0  0.970467  0  0  0.121754  0.11067  0  0.97442  0
H  H13  1  0.91529065  0.31525465  0.05401290  1  0  0.099526  0  0.910764  0  0  0.112344  0  0.972707  0  0  0.114492  0  0.970482  0  0  0.121723  0.110686  0  0.974431  0
H  H14  1  0.46369535  0.71994472  0.78013379  1  0  0.128682  0  0.953123  0  0  0.139387  0  1.015608  0  0  0.14232  0  1.014493  0  0  0.107935  0.13724  0  1.016569  0
H  H15  1  0.53629871  0.28006843  0.21986380  1  0  0.128612  0  0.953181  0  0  0.13934  0  1.015658  0  0  0.142278  0  1.014537  0  0  0.107908  0.137195  0  1.016617  0
H  H16  1  0.41001050  0.53359411  0.90348769  1  0  0.126464  0  0.926629  0  0  0.138841  0  0.986921  0  0  0.14108  0  0.986228  0  0  0.113938  0.137337  0  0.987417  0
H  H17  1  0.59000019  0.46641444  0.09650841  1  0  0.126413  0  0.9266  0  0  0.138792  0  0.986897  0  0  0.141031  0  0.986204  0  0  0.113924  0.137283  0  0.987398  0
H  H18  1  0.32945942  0.11161773  0.63565024  1  0  0.447485  0  0.807837  0  0  0.429521  0  0.859118  0  0  0.438175  0  0.846375  0  0  0.331112  0.423392  0  0.868149  0
H  H19  1  0.67052195  0.88838066  0.36435202  1  0  0.447453  0  0.807901  0  0  0.429477  0  0.859193  0  0  0.43811  0  0.846481  0  0  0.331084  0.423358  0  0.868211  0
H  H20  1  0.26319540  0.15515192  0.78636228  1  0  0.467405  0  0.813783  0  0  0.437748  0  0.873058  0  0  0.44816  0  0.857754  0  0  0.310869  0.430368  0  0.883909  0
H  H21  1  0.73678967  0.84485172  0.21363915  1  0  0.467421  0  0.813761  0  0  0.437766  0  0.87303  0  0  0.448178  0  0.857725  0  0  0.310873  0.430387  0  0.88388  0
C  C22  1  0.29577781  0.06812150  0.21027249  1  0  0.065959  0  3.60279  0  0  -0.001863  0  3.870168  0  0  0.00523  0  3.877855  0  0  -0.057642  -0.006533  0  3.865087  0
C  C23  1  0.70422088  0.93188398  0.78972617  1  0  0.065831  0  3.603007  0  0  -0.002007  0  3.870458  0  0  0.005083  0  3.878133  0  0  -0.057703  -0.006671  0  3.865375  0
C  C24  1  0.13249211  0.15133748  0.31030422  1  0  -0.303651  0  3.64359  0  0  -0.343381  0  3.89314  0  0  -0.350399  0  3.899327  0  0  -0.162767  -0.338583  0  3.889003  0
C  C25  1  0.86750694  0.84866662  0.68969555  1  0  -0.303606  0  3.64354  0  0  -0.343406  0  3.893195  0  0  -0.35036  0  3.899293  0  0  -0.162815  -0.33861  0  3.889062  0
C  C26  1  0.17078643  0.24582107  0.39659522  1  0  0.761316  0  3.780472  0  0  0.714293  0  4.085125  0  0  0.749473  0  4.074336  0  0  0.221949  0.690257  0  4.091676  0
C  C27  1  0.82921274  0.75417775  0.60340635  1  0  0.761308  0  3.780538  0  0  0.71427  0  4.085219  0  0  0.749437  0  4.074435  0  0  0.221909  0.690233  0  4.091773  0
C  C28  1  0.19295591  0.75098742  0.91538349  1  0  0.058846  0  3.627722  0  0  -0.011893  0  3.900532  0  0  -0.00515  0  3.908881  0  0  -0.057902  -0.016373  0  3.894749  0
C  C29  1  0.80704725  0.24900575  0.08462379  1  0  0.058739  0  3.627666  0  0  -0.012015  0  3.90055  0  0  -0.005297  0  3.908933  0  0  -0.057879  -0.016494  0  3.894764  0
C  C30  1  0.35907180  0.64821563  0.83128454  1  0  -0.30291  0  3.640129  0  0  -0.339666  0  3.888403  0  0  -0.346658  0  3.895031  0  0  -0.162146  -0.334956  0  3.883857  0
C  C31  1  0.64092907  0.35179126  0.16871334  1  0  -0.302744  0  3.640034  0  0  -0.33948  0  3.888288  0  0  -0.346466  0  3.894924  0  0  -0.162118  -0.334768  0  3.883742  0
C  C32  1  0.32633690  0.57975412  0.72510348  1  0  0.755605  0  3.775374  0  0  0.714827  0  4.067251  0  0  0.748786  0  4.058858  0  0  0.223988  0.69175  0  4.071968  0
C  C33  1  0.67366285  0.42024731  0.27489752  1  0  0.755674  0  3.775285  0  0  0.714854  0  4.06724  0  0  0.748814  0  4.058846  0  0  0.224028  0.691778  0  4.071951  0
C  C34  1  0.24570541  0.91803232  0.05481738  1  0  0.661285  0  3.834942  0  0  0.585008  0  4.144778  0  0  0.620711  0  4.141029  0  0  0.348135  0.561141  0  4.146571  0
C  C35  1  0.75429385  0.08195137  0.94519439  1  0  0.661261  0  3.835224  0  0  0.584948  0  4.145104  0  0  0.620631  0  4.141377  0  0  0.34807  0.561088  0  4.146891  0
C  C36  1  0.22345095  0.61411147  0.15068966  1  0  0.720065  0  3.867302  0  0  0.65326  0  4.179298  0  0  0.689121  0  4.173566  0  0  0.339089  0.629187  0  4.182349  0
C  C37  1  0.77656631  0.38588702  0.84930644  1  0  0.720054  0  3.867451  0  0  0.653285  0  4.179402  0  0  0.689138  0  4.173679  0  0  0.339101  0.629214  0  4.182456  0
C  C38  1  0.26207403  0.77123839  0.28984577  1  0  0.697664  0  3.919292  0  0  0.63315  0  4.223367  0  0  0.668843  0  4.219203  0  0  0.322454  0.609374  0  4.225047  0
C  C39  1  0.73792653  0.22875530  0.71015630  1  0  0.697601  0  3.919463  0  0  0.633133  0  4.223488  0  0  0.668827  0  4.219323  0  0  0.322446  0.609356  0  4.225176  0
N  N40  1  0.23935193  0.62632776  0.27299408  1  0  -0.757177  0  3.194089  0  0  -0.720431  0  3.494213  0  0  -0.749866  0  3.498574  0  0  -0.459735  -0.700493  0  3.490704  0
N  N41  1  0.76066318  0.37366901  0.72700574  1  0  -0.757105  0  3.193964  0  0  -0.720403  0  3.494086  0  0  -0.749838  0  3.49845  0  0  -0.459735  -0.700464  0  3.49058  0
N  N42  1  0.21906682  0.76651533  0.04400642  1  0  -0.346699  0  3.330329  0  0  -0.262329  0  3.576332  0  0  -0.28726  0  3.590005  0  0  -0.250168  -0.245964  0  3.566812  0
N  N43  1  0.78093869  0.23348379  0.95599350  1  0  -0.346787  0  3.329955  0  0  -0.262444  0  3.576038  0  0  -0.287358  0  3.589718  0  0  -0.250197  -0.246081  0  3.566518  0
N  N44  1  0.26829721  0.91602303  0.18230028  1  0  -0.326988  0  3.345223  0  0  -0.241009  0  3.585271  0  0  -0.265769  0  3.598807  0  0  -0.247821  -0.224583  0  3.575608  0
N  N45  1  0.73170196  0.08397578  0.81770129  1  0  -0.326892  0  3.345455  0  0  -0.240893  0  3.585476  0  0  -0.265651  0  3.599025  0  0  -0.247759  -0.224469  0  3.575811  0
O  O46  1  0.32344491  0.22099874  0.41193965  1  0  -0.679526  0  1.950399  0  0  -0.632059  0  2.178186  0  0  -0.657116  0  2.167486  0  0  -0.359064  -0.614476  0  2.185228  0
O  O47  1  0.67656043  0.77899183  0.58805690  1  0  -0.679568  0  1.950573  0  0  -0.632074  0  2.178358  0  0  -0.657131  0  2.167655  0  0  -0.359036  -0.61449  0  2.185406  0
O  O48  1  0.04453637  0.35392427  0.45966165  1  0  -0.817788  0  2.139769  0  0  -0.778425  0  2.408411  0  0  -0.807769  0  2.400247  0  0  -0.437839  -0.757236  0  2.413206  0
O  O49  1  0.95546043  0.64607886  0.54033498  1  0  -0.817726  0  2.13971  0  0  -0.778383  0  2.408426  0  0  -0.807732  0  2.400271  0  0  -0.437818  -0.757195  0  2.413226  0
O  O50  1  0.45250359  0.54401416  0.61808020  1  0  -0.811654  0  2.163309  0  0  -0.768621  0  2.421835  0  0  -0.797677  0  2.413683  0  0  -0.441954  -0.747784  0  2.426475  0
O  O51  1  0.54749271  0.45598570  0.38192288  1  0  -0.811733  0  2.163264  0  0  -0.768677  0  2.421789  0  0  -0.797732  0  2.413638  0  0  -0.442015  -0.74784  0  2.426425  0
O  O52  1  0.17739836  0.55255954  0.73951056  1  0  -0.650656  0  1.958678  0  0  -0.603673  0  2.181093  0  0  -0.62919  0  2.173419  0  0  -0.354757  -0.585905  0  2.186061  0
O  O53  1  0.82260206  0.44743954  0.26048872  1  0  -0.650678  0  1.958682  0  0  -0.603694  0  2.181109  0  0  -0.62921  0  2.173433  0  0  -0.354758  -0.585925  0  2.186076  0
O  O54  1  0.24954764  0.04863014  0.95951086  1  0  -0.582161  0  1.935679  0  0  -0.537517  0  2.159264  0  0  -0.557762  0  2.148649  0  0  -0.292957  -0.523485  0  2.166138  0
O  O55  1  0.75044833  0.95138094  0.04048273  1  0  -0.582041  0  1.936287  0  0  -0.537352  0  2.159868  0  0  -0.557587  0  2.149264  0  0  -0.292862  -0.523322  0  2.166737  0
O  O56  1  0.21406472  0.48045571  0.12689115  1  0  -0.540015  0  1.901775  0  0  -0.493248  0  2.12088  0  0  -0.513779  0  2.113111  0  0  -0.273038  -0.478979  0  2.125697  0
O  O57  1  0.78595932  0.51954095  0.87311127  1  0  -0.540142  0  1.901885  0  0  -0.493324  0  2.120937  0  0  -0.513865  0  2.113183  0  0  -0.273098  -0.479045  0  2.125733  0
O  O58  1  0.27913166  0.77462092  0.40572507  1  0  -0.64144  0  1.941861  0  0  -0.604731  0  2.179909  0  0  -0.627145  0  2.171562  0  0  -0.347991  -0.589018  0  2.184979  0
O  O59  1  0.72086536  0.22539043  0.59427788  1  0  -0.641397  0  1.941918  0  0  -0.604751  0  2.179988  0  0  -0.627163  0  2.171637  0  0  -0.348018  -0.589038  0  2.185062  0
O  O60  1  0.27348923  0.20454339  0.68585530  1  0  -0.898768  0  1.800039  0  0  -0.861029  0  1.975568  0  0  -0.879228  0  1.944471  0  0  -0.621019  -0.847827  0  1.997439  0
O  O61  1  0.72648960  0.79545488  0.31414762  1  0  -0.898723  0  1.800087  0  0  -0.860991  0  1.97561  0  0  -0.879166  0  1.944562  0  0  -0.620951  -0.847806  0  1.997449  0
