# generated using pymatgen
data_Nd2H16C28N4O17
_symmetry_space_group_name_H-M   'P 1'
_cell_length_a   10.50827313
_cell_length_b   12.13174905
_cell_length_c   12.68900000
_cell_angle_alpha   109.94334549
_cell_angle_beta   100.71686640
_cell_angle_gamma   90.66093551
_symmetry_Int_Tables_number   1
_chemical_formula_structural   Nd2H16C28N4O17
_chemical_formula_sum   'Nd4 H32 C56 N8 O34'
_cell_volume   1489.17995262
_cell_formula_units_Z   2
loop_
 _symmetry_equiv_pos_site_id
 _symmetry_equiv_pos_as_xyz
  1  'x, y, z'
loop_
 _atom_site_type_symbol
 _atom_site_label
 _atom_site_symmetry_multiplicity
 _atom_site_fract_x
 _atom_site_fract_y
 _atom_site_fract_z
 _atom_site_occupancy
 _atom_site_hle17_bader_spin_density
 _atom_site_hle17_ddec_charge
 _atom_site_hle17_ddec_spin_density
 _atom_site_hle17_ddec_sum_bond_order
 _atom_site_hle17_magmom
 _atom_site_hse06_10hf_bader_spin_density
 _atom_site_hse06_10hf_ddec_charge
 _atom_site_hse06_10hf_ddec_spin_density
 _atom_site_hse06_10hf_ddec_sum_bond_order
 _atom_site_hse06_10hf_magmom
 _atom_site_hse06_bader_spin_density
 _atom_site_hse06_ddec_charge
 _atom_site_hse06_ddec_spin_density
 _atom_site_hse06_ddec_sum_bond_order
 _atom_site_hse06_magmom
 _atom_site_pbe_bader_charge
 _atom_site_pbe_bader_spin_density
 _atom_site_pbe_cm5_charge
 _atom_site_pbe_ddec_charge
 _atom_site_pbe_ddec_spin_density
 _atom_site_pbe_ddec_sum_bond_order
 _atom_site_pbe_magmom
Nd  Nd0  1  0.99135372  0.32205437  0.89005749  1  0  2.311179  0  1.664328  0  0  2.145933  0  2.135995  0  0  2.23854  0  1.997808  0  2.255743  0  1.49669  2.109909  0  2.174304  0
Nd  Nd1  1  0.00864417  0.67794563  0.10994163  1  0  2.311205  0  1.66429  0  0  2.145946  0  2.135971  0  0  2.238569  0  1.997762  0  2.255735  0  1.496717  2.109919  0  2.174295  0
Nd  Nd2  1  0.14388215  0.05988867  0.64381019  1  0  2.270279  0  1.637221  0  0  2.094338  0  2.111509  0  0  2.140344  0  2.065524  0  2.227612  0  1.49001  2.05926  0  2.147735  0
Nd  Nd3  1  0.85611962  0.94011133  0.35619032  1  0  2.270273  0  1.637209  0  0  2.09437  0  2.111426  0  0  2.14029  0  2.065594  0  2.22764  0  1.490006  2.059292  0  2.147651  0
H  H4  1  0.66055298  0.22703907  0.89047081  1  0  0.067975  0  0.987708  0  0  0.07577  0  1.056633  0  0  0.078154  0  1.054679  0  0.082835  0  0.110949  0.073894  0  1.058397  0
H  H5  1  0.33944677  0.77296006  0.10952832  1  0  0.067939  0  0.987733  0  0  0.07574  0  1.056659  0  0  0.078123  0  1.054706  0  0.082824  0  0.110943  0.073867  0  1.058419  0
H  H6  1  0.86825776  0.86307416  0.87249553  1  0  0.119086  0  0.961006  0  0  0.126122  0  1.025988  0  0  0.129629  0  1.024139  0  0.111093  0  0.113596  0.123505  0  1.027509  0
H  H7  1  0.13174603  0.13692673  0.12750479  1  0  0.119061  0  0.961015  0  0  0.126112  0  1.025978  0  0  0.129599  0  1.024153  0  0.111154  0  0.113593  0.123494  0  1.027499  0
H  H8  1  0.62811172  0.86654749  0.87481797  1  0  0.100735  0  0.960247  0  0  0.111898  0  1.0178  0  0  0.114818  0  1.015384  0  0.116273  0  0.10829  0.109686  0  1.019705  0
H  H9  1  0.37189287  0.13345163  0.12518190  1  0  0.100718  0  0.960297  0  0  0.111903  0  1.017825  0  0  0.114825  0  1.015406  0  0.116265  0  0.108276  0.10969  0  1.019735  0
H  H10  1  0.52273073  0.05307924  0.88603503  1  0  0.120622  0  0.930841  0  0  0.130922  0  0.987395  0  0  0.134416  0  0.985402  0  0.116554  0  0.11554  0.128535  0  0.9887  0
H  H11  1  0.47727088  0.94691900  0.11396567  1  0  0.120581  0  0.930824  0  0  0.130887  0  0.987379  0  0  0.134375  0  0.985393  0  0.116556  0  0.115516  0.1285  0  0.988685  0
H  H12  1  0.28054494  0.87366396  0.72568617  1  0  0.428542  0  0.838361  0  0  0.396743  0  0.919748  0  0  0.406659  0  0.90489  0  0.620939  0  0.309351  0.38961  0  0.930408  0
H  H13  1  0.71945764  0.12633428  0.27431547  1  0  0.428546  0  0.838375  0  0  0.396743  0  0.919753  0  0  0.406661  0  0.904892  0  0.620962  0  0.309336  0.389608  0  0.930432  0
H  H14  1  0.21536859  0.95581261  0.82236549  1  0  0.429393  0  0.875242  0  0  0.395  0  0.944323  0  0  0.407449  0  0.926047  0  0.642436  0  0.295328  0.386378  0  0.956934  0
H  H15  1  0.78463326  0.04418827  0.17763532  1  0  0.429429  0  0.875182  0  0  0.395054  0  0.944234  0  0  0.4075  0  0.925961  0  0.642385  0  0.295351  0.386432  0  0.956845  0
H  H16  1  0.21369616  0.51444717  0.79913193  1  0  0.135533  0  0.94049  0  0  0.138556  0  1.010033  0  0  0.142799  0  1.006375  0  0.1695  0  0.124392  0.135268  0  1.01308  0
H  H17  1  0.78630293  0.48555548  0.20086509  1  0  0.135531  0  0.940485  0  0  0.138593  0  1.010017  0  0  0.142835  0  1.00636  0  0.169547  0  0.124413  0.135305  0  1.013064  0
H  H18  1  0.54114989  0.31390857  0.83947277  1  0  0.105218  0  0.974796  0  0  0.112298  0  1.04321  0  0  0.116392  0  1.039064  0  0.121159  0  0.110352  0.10926  0  1.046282  0
H  H19  1  0.45884905  0.68609232  0.16052838  1  0  0.105249  0  0.974829  0  0  0.112325  0  1.043237  0  0  0.116419  0  1.039091  0  0.121129  0  0.110373  0.109273  0  1.046321  0
H  H20  1  0.60030376  0.68928853  0.93047315  1  0  0.13591  0  0.923728  0  0  0.14183  0  0.985467  0  0  0.147002  0  0.980181  0  0.138858  0  0.125491  0.138024  0  0.989256  0
H  H21  1  0.39969518  0.31071236  0.06953273  1  0  0.135918  0  0.923778  0  0  0.141846  0  0.985512  0  0  0.147018  0  0.980226  0  0.138892  0  0.125506  0.138039  0  0.989301  0
H  H22  1  0.63963819  0.29385682  0.67043414  1  0  0.117121  0  0.950714  0  0  0.126456  0  1.012061  0  0  0.129476  0  1.01138  0  0.126594  0  0.114141  0.124328  0  1.012575  0
H  H23  1  0.36036141  0.70614055  0.32956833  1  0  0.117114  0  0.950748  0  0  0.126454  0  1.012087  0  0  0.129471  0  1.011411  0  0.129393  0  0.114139  0.124327  0  1.0126  0
H  H24  1  0.40603833  0.26097361  0.56027705  1  0  0.100551  0  0.945014  0  0  0.11068  0  1.005184  0  0  0.113017  0  1.003794  0  0.101767  0  0.111201  0.108855  0  1.006393  0
H  H25  1  0.59396328  0.73902464  0.43972287  1  0  0.100512  0  0.94502  0  0  0.110643  0  1.005198  0  0  0.112977  0  1.003809  0  0.101729  0  0.111178  0.108818  0  1.006406  0
H  H26  1  0.52105953  0.95898419  0.30901275  1  0  0.082998  0  0.967157  0  0  0.088457  0  1.036866  0  0  0.090857  0  1.03504  0  0.135859  0  0.1215  0.086828  0  1.037989  0
H  H27  1  0.47894418  0.04101582  0.69098727  1  0  0.083023  0  0.967154  0  0  0.088515  0  1.036843  0  0  0.090916  0  1.035012  0  0.135876  0  0.121524  0.086881  0  1.037962  0
H  H28  1  0.34787053  0.09076425  0.37570337  1  0  0.108488  0  0.941625  0  0  0.118851  0  0.998933  0  0  0.121068  0  1.00011  0  0.100676  0  0.111753  0.117167  0  0.998418  0
H  H29  1  0.65213027  0.90923576  0.62429462  1  0  0.108568  0  0.941686  0  0  0.118951  0  0.998956  0  0  0.12117  0  1.000132  0  0.100666  0  0.111789  0.117267  0  0.998442  0
H  H30  1  0.22190525  0.39342934  0.57617946  1  0  0.123592  0  0.945752  0  0  0.128586  0  1.014889  0  0  0.132364  0  1.011591  0  0.141215  0  0.116267  0.125876  0  1.017208  0
H  H31  1  0.77809419  0.60656627  0.42381690  1  0  0.123577  0  0.945742  0  0  0.128567  0  1.014892  0  0  0.132346  0  1.011592  0  0.141164  0  0.116239  0.125858  0  1.017211  0
H  H32  1  0.13360309  0.58488958  0.34327606  1  0  0.134246  0  0.964282  0  0  0.137147  0  1.034994  0  0  0.141526  0  1.031633  0  0.169111  0  0.120329  0.133897  0  1.037694  0
H  H33  1  0.86639763  0.41510955  0.65672400  1  0  0.134206  0  0.964318  0  0  0.137118  0  1.035026  0  0  0.1415  0  1.031659  0  0.169103  0  0.120311  0.133867  0  1.037729  0
H  H34  1  0.99556299  0.21912465  0.23649923  1  0  0.133158  0  0.957138  0  0  0.134268  0  1.030069  0  0  0.139175  0  1.025185  0  0.171813  0  0.118404  0.130751  0  1.03342  0
H  H35  1  0.00443781  0.78087536  0.76349641  1  0  0.133122  0  0.95715  0  0  0.134257  0  1.030091  0  0  0.139134  0  1.025243  0  0.171957  0  0.118375  0.130743  0  1.033437  0
C  C36  1  0.70016391  0.14278073  0.88256864  1  0  0.132821  0  3.706318  0  0  0.101757  0  3.96964  0  0  0.105875  0  3.98994  0  0.465769  0  0.046265  0.098889  0  3.957281  0
C  C37  1  0.29983786  0.85721928  0.11743108  1  0  0.132879  0  3.706327  0  0  0.101792  0  3.969683  0  0  0.105911  0  3.989979  0  0.465763  0  0.046262  0.098925  0  3.95732  0
C  C38  1  0.88199848  0.03919117  0.87008947  1  0  0.107491  0  3.742814  0  0  0.110177  0  3.990795  0  0  0.110327  0  4.010906  0  0.477054  0  0.120539  0.10978  0  3.978656  0
C  C39  1  0.11800232  0.96080883  0.12991010  1  0  0.107472  0  3.742866  0  0  0.110198  0  3.990856  0  0  0.110348  0  4.010957  0  0.476901  0  0.120536  0.109801  0  3.978718  0
C  C40  1  0.81559866  0.93969168  0.87172365  1  0  -0.091235  0  3.680129  0  0  -0.115317  0  3.930965  0  0  -0.118798  0  3.95046  0  0.052511  0  -0.068105  -0.112848  0  3.91764  0
C  C41  1  0.18440504  0.06030833  0.12827558  1  0  -0.091168  0  3.680063  0  0  -0.115258  0  3.930894  0  0  -0.118728  0  3.950408  0  0.052612  0  -0.068079  -0.112789  0  3.917569  0
C  C42  1  0.68411227  0.94279728  0.87522959  1  0  -0.005077  0  3.694307  0  0  -0.021963  0  3.94152  0  0  -0.020364  0  3.959462  0  -0.08219  0  -0.064779  -0.02269  0  3.928981  0
C  C43  1  0.31589039  0.05720185  0.12476762  1  0  -0.005148  0  3.694244  0  0  -0.022051  0  3.941461  0  0  -0.020453  0  3.959396  0  -0.08235  0  -0.064805  -0.022778  0  3.928922  0
C  C44  1  0.62517119  0.04664724  0.88173055  1  0  -0.095165  0  3.693855  0  0  -0.110903  0  3.949167  0  0  -0.114959  0  3.968434  0  -0.004324  0  -0.073834  -0.108148  0  3.935645  0
C  C45  1  0.37483049  0.95335189  0.11826966  1  0  -0.09509  0  3.693787  0  0  -0.110832  0  3.949117  0  0  -0.114881  0  3.968386  0  -0.004212  0  -0.073804  -0.108079  0  3.935596  0
C  C46  1  0.28427364  0.29015650  0.77516256  1  0  0.675365  0  3.898401  0  0  0.627493  0  4.188575  0  0  0.662874  0  4.179628  0  1.554517  0  0.212206  0.603628  0  4.194637  0
C  C47  1  0.71572618  0.70984350  0.22483844  1  0  0.675346  0  3.898426  0  0  0.627506  0  4.188554  0  0  0.662886  0  4.179597  0  1.554044  0  0.21217  0.603641  0  4.194617  0
C  C48  1  0.83691319  0.16146619  0.60531269  1  0  0.704487  0  3.847467  0  0  0.652217  0  4.143114  0  0  0.688319  0  4.130285  0  1.609904  0  0.250183  0.627672  0  4.152063  0
C  C49  1  0.16308663  0.83853381  0.39468909  1  0  0.704577  0  3.847404  0  0  0.652245  0  4.143146  0  0  0.688364  0  4.130294  0  1.609849  0  0.250204  0.6277  0  4.152091  0
C  C50  1  0.69738945  0.14453499  0.54486730  1  0  0.093286  0  3.77191  0  0  0.100165  0  4.0109  0  0  0.100196  0  4.030197  0  0.456248  0  0.116617  0.100128  0  3.997663  0
C  C51  1  0.30261232  0.85546501  0.45513558  1  0  0.093231  0  3.771974  0  0  0.100164  0  4.010914  0  0  0.100171  0  4.030242  0  0.456344  0  0.116607  0.100128  0  3.997675  0
C  C52  1  0.31777362  0.50958379  0.82316538  1  0  -0.063458  0  3.64391  0  0  -0.1058  0  3.903169  0  0  -0.100377  0  3.91753  0  0.023968  0  -0.056409  -0.108932  0  3.893597  0
C  C53  1  0.68222354  0.49041885  0.17683450  1  0  -0.063349  0  3.643766  0  0  -0.105792  0  3.90312  0  0  -0.100367  0  3.917472  0  0.024213  0  -0.056401  -0.108928  0  3.893554  0
C  C54  1  0.36922940  0.40262383  0.81686426  1  0  -0.054818  0  3.721405  0  0  -0.027256  0  3.955669  0  0  -0.037944  0  3.978201  0  -0.013054  0  -0.004508  -0.020581  0  3.940699  0
C  C55  1  0.63076850  0.59737617  0.18313644  1  0  -0.054929  0  3.721415  0  0  -0.027352  0  3.955714  0  0  -0.038038  0  3.978246  0  -0.013022  0  -0.004557  -0.020677  0  3.940744  0
C  C56  1  0.50372979  0.39892351  0.84813007  1  0  -0.03596  0  3.656268  0  0  -0.077443  0  3.905086  0  0  -0.072965  0  3.923133  0  -0.079379  0  -0.059527  -0.080254  0  3.893043  0
C  C57  1  0.49626931  0.60107913  0.15187247  1  0  -0.035915  0  3.656255  0  0  -0.077401  0  3.905041  0  0  -0.072922  0  3.923089  0  -0.079259  0  -0.059536  -0.080197  0  3.893003  0
C  C58  1  0.58780860  0.50107904  0.89132802  1  0  -0.061678  0  3.723531  0  0  -0.033736  0  3.955874  0  0  -0.044352  0  3.97928  0  0.036545  0  -0.008961  -0.026956  0  3.93955  0
C  C59  1  0.41218937  0.49892184  0.10867614  1  0  -0.061812  0  3.723571  0  0  -0.033786  0  3.95585  0  0  -0.044405  0  3.979261  0  0.03621  0  -0.008923  -0.027003  0  3.939521  0
C  C60  1  0.40375726  0.60989972  0.86073876  1  0  0.063947  0  3.712463  0  0  0.060399  0  3.974679  0  0  0.055705  0  3.996081  0  0.152687  0  0.078369  0.063063  0  3.960084  0
C  C61  1  0.59624168  0.39010117  0.13926239  1  0  0.063954  0  3.712367  0  0  0.060426  0  3.974636  0  0  0.055732  0  3.996039  0  0.152382  0  0.07835  0.063088  0  3.960044  0
C  C62  1  0.73137510  0.49795937  0.93364738  1  0  0.700651  0  3.886077  0  0  0.65345  0  4.178418  0  0  0.688087  0  4.172933  0  1.606209  0  0.229789  0.62995  0  4.183462  0
C  C63  1  0.26862182  0.50204063  0.06635553  1  0  0.700778  0  3.886149  0  0  0.653506  0  4.178578  0  0  0.688145  0  4.173093  0  1.606247  0  0.229757  0.630003  0  4.183619  0
C  C64  1  0.53676130  0.60850088  0.89758338  1  0  -0.067621  0  3.653986  0  0  -0.10634  0  3.904874  0  0  -0.101614  0  3.919651  0  0.033641  0  -0.058698  -0.108362  0  3.894015  0
C  C65  1  0.46323764  0.39150000  0.10242092  1  0  -0.067617  0  3.654068  0  0  -0.106373  0  3.904969  0  0  -0.101648  0  3.919749  0  0.033812  0  -0.058737  -0.108394  0  3.89411  0
C  C66  1  0.60748496  0.22172701  0.58949513  1  0  -0.104503  0  3.677214  0  0  -0.129365  0  3.924644  0  0  -0.134599  0  3.945849  0  0.016252  0  -0.071217  -0.12606  0  3.910298  0
C  C67  1  0.39251463  0.77827036  0.41050497  1  0  -0.104538  0  3.677132  0  0  -0.129424  0  3.924577  0  0  -0.134655  0  3.945785  0  0.013292  0  -0.071247  -0.12612  0  3.910229  0
C  C68  1  0.47976490  0.20362132  0.52833141  1  0  0.01347  0  3.680312  0  0  -0.004455  0  3.931623  0  0  -0.001319  0  3.948877  0  -0.00728  0  -0.055529  -0.0063  0  3.919958  0
C  C69  1  0.52023776  0.79637781  0.47166974  1  0  0.013571  0  3.680246  0  0  -0.004361  0  3.931568  0  0  -0.001217  0  3.948819  0  -0.007114  0  -0.055481  -0.006203  0  3.919901  0
C  C70  1  0.54227704  0.03480463  0.38796773  1  0  0.141863  0  3.701531  0  0  0.113945  0  3.956697  0  0  0.119641  0  3.974916  0  0.527019  0  0.057151  0.110286  0  3.944005  0
C  C71  1  0.45772481  0.96519625  0.61203465  1  0  0.141857  0  3.701517  0  0  0.113917  0  3.95665  0  0  0.119615  0  3.974872  0  0.527048  0  0.057138  0.110267  0  3.943949  0
C  C72  1  0.44675665  0.10856730  0.42570577  1  0  -0.091579  0  3.680508  0  0  -0.108254  0  3.932535  0  0  -0.113581  0  3.953455  0  -0.105965  0  -0.069506  -0.104739  0  3.918565  0
C  C73  1  0.55324593  0.89143095  0.57429350  1  0  -0.091661  0  3.68062  0  0  -0.108362  0  3.932661  0  0  -0.113689  0  3.953572  0  -0.105979  0  -0.069533  -0.104848  0  3.918689  0
C  C74  1  0.08714561  0.18423907  0.43620975  1  0  0.71331  0  3.859392  0  0  0.665942  0  4.150085  0  0  0.701593  0  4.138862  0  1.60055  0  0.233814  0.641953  0  4.156826  0
C  C75  1  0.91285108  0.81575829  0.56378754  1  0  0.71322  0  3.85943  0  0  0.665839  0  4.150066  0  0  0.701491  0  4.138844  0  1.600432  0  0.233793  0.641845  0  4.156809  0
C  C76  1  0.10435777  0.29494334  0.40980587  1  0  -0.053449  0  3.708909  0  0  -0.028321  0  3.945712  0  0  -0.038492  0  3.967694  0  0.043484  0  -0.006904  -0.022192  0  3.931071  0
C  C77  1  0.89563900  0.70505491  0.59018857  1  0  -0.053444  0  3.708747  0  0  -0.028162  0  3.945325  0  0  -0.038341  0  3.967321  0  0.043458  0  -0.006895  -0.022026  0  3.930683  0
C  C78  1  0.17576148  0.39491616  0.49252780  1  0  -0.08509  0  3.677366  0  0  -0.12189  0  3.926909  0  0  -0.117471  0  3.94353  0  0.008406  0  -0.066039  -0.124174  0  3.915294  0
C  C79  1  0.82423819  0.60508209  0.50747103  1  0  -0.085079  0  3.67744  0  0  -0.121903  0  3.92698  0  0  -0.11748  0  3.9436  0  0.008408  0  -0.066018  -0.124194  0  3.915369  0
C  C80  1  0.06377895  0.39996340  0.27566149  1  0  -0.051073  0  3.701715  0  0  -0.023482  0  3.934335  0  0  -0.03373  0  3.955846  0  -0.067289  0  -0.006714  -0.016932  0  3.919352  0
C  C81  1  0.93622080  0.60003572  0.72433606  1  0  -0.05086  0  3.701923  0  0  -0.023276  0  3.934486  0  0  -0.033517  0  3.955988  0  -0.067366  0  -0.006616  -0.016726  0  3.919504  0
C  C82  1  0.12580745  0.50331894  0.36071125  1  0  -0.086668  0  3.64704  0  0  -0.123144  0  3.895029  0  0  -0.119284  0  3.911601  0  0.005603  0  -0.062826  -0.125149  0  3.883425  0
C  C83  1  0.87419440  0.49668195  0.63929035  1  0  -0.086669  0  3.647118  0  0  -0.123132  0  3.895128  0  0  -0.119274  0  3.911702  0  0.005515  0  -0.062807  -0.125139  0  3.883528  0
C  C84  1  0.04967676  0.29760025  0.30152733  1  0  -0.027186  0  3.616553  0  0  -0.072281  0  3.872635  0  0  -0.066585  0  3.887889  0  -0.036225  0  -0.056127  -0.075335  0  3.861911  0
C  C85  1  0.95032396  0.70239888  0.69847273  1  0  -0.027233  0  3.61637  0  0  -0.072416  0  3.872427  0  0  -0.066701  0  3.887705  0  -0.036077  0  -0.056123  -0.075478  0  3.861703  0
C  C86  1  0.18259575  0.49745087  0.46687930  1  0  0.060571  0  3.731263  0  0  0.058499  0  3.987466  0  0  0.053271  0  4.010146  0  0.182069  0  0.075383  0.061582  0  3.972052  0
C  C87  1  0.81740384  0.50254650  0.53311765  1  0  0.060659  0  3.731182  0  0  0.058488  0  3.987519  0  0  0.053262  0  4.010201  0  0.182148  0  0.075429  0.061572  0  3.972109  0
C  C88  1  0.02230375  0.03908472  0.86248222  1  0  0.659891  0  3.862739  0  0  0.605055  0  4.161468  0  0  0.638606  0  4.153386  0  1.58102  0  0.233579  0.582285  0  4.167474  0
C  C89  1  0.97769899  0.96091529  0.13751687  1  0  0.659909  0  3.862541  0  0  0.604979  0  4.161429  0  0  0.63853  0  4.153338  0  1.580993  0  0.233557  0.582206  0  4.167436  0
C  C90  1  0.01922121  0.39517921  0.15471135  1  0  0.703655  0  3.881518  0  0  0.65627  0  4.170395  0  0  0.69132  0  4.164416  0  1.585372  0  0.226221  0.632335  0  4.176923  0
C  C91  1  0.98077780  0.60482256  0.84528774  1  0  0.703499  0  3.881702  0  0  0.656217  0  4.170429  0  0  0.691265  0  4.164454  0  1.585216  0  0.226164  0.632283  0  4.176955  0
N  N92  1  0.82557510  0.13935490  0.87439673  1  0  -0.394832  0  3.213361  0  0  -0.34511  0  3.473312  0  0  -0.361453  0  3.492756  0  -1.226182  0  -0.354037  -0.336859  0  3.461021  0
N  N93  1  0.17442578  0.86064599  0.12560235  1  0  -0.394882  0  3.213399  0  0  -0.34516  0  3.473359  0  0  -0.361503  0  3.492802  0  -1.226155  0  -0.354036  -0.336907  0  3.461066  0
N  N94  1  0.66574673  0.05245109  0.44598890  1  0  -0.415387  0  3.247622  0  0  -0.362645  0  3.505695  0  0  -0.376029  0  3.52463  0  -1.244556  0  -0.375344  -0.353149  0  3.492674  0
N  N95  1  0.33425399  0.94754804  0.55401038  1  0  -0.415429  0  3.247786  0  0  -0.362714  0  3.505872  0  0  -0.376104  0  3.524818  0  -1.244545  0  -0.375353  -0.353218  0  3.492853  0
N  N96  1  0.35288250  0.72102892  0.85773006  1  0  0.495263  0  3.921752  0  0  0.515405  0  4.230956  0  0  0.536839  0  4.239014  0  0.373425  0  0.054981  0.501115  0  4.225481  0
N  N97  1  0.64711636  0.27897109  0.14226922  1  0  0.495145  0  3.92193  0  0  0.515299  0  4.231131  0  0  0.536733  0  4.239194  0  0.374499  0  0.05497  0.501009  0  4.225657  0
N  N98  1  0.25653615  0.60229762  0.55453978  1  0  0.504506  0  3.894047  0  0  0.53336  0  4.192447  0  0  0.554659  0  4.200463  0  0.369654  0  0.058059  0.519081  0  4.187058  0
N  N99  1  0.74346344  0.39769975  0.44545875  1  0  0.50453  0  3.8941  0  0  0.533394  0  4.192529  0  0  0.554694  0  4.200546  0  0.369721  0  0.058092  0.519116  0  4.187141  0
O  O100  1  0.16031994  0.29157118  0.76092181  1  0  -0.767  0  2.060787  0  0  -0.712936  0  2.315102  0  0  -0.742366  0  2.302767  0  -1.175928  0  -0.393591  -0.695662  0  2.32243  0
O  O101  1  0.83967787  0.70842795  0.23907701  1  0  -0.766989  0  2.060829  0  0  -0.712943  0  2.315136  0  0  -0.742369  0  2.302809  0  -1.175915  0  -0.393553  -0.695668  0  2.322467  0
O  O102  1  0.33953573  0.19447609  0.75085395  1  0  -0.66841  0  1.957425  0  0  -0.618712  0  2.198517  0  0  -0.64257  0  2.188878  0  -1.178162  0  -0.371134  -0.6017  0  2.204368  0
O  O103  1  0.66046329  0.80552567  0.24914829  1  0  -0.668377  0  1.95746  0  0  -0.618685  0  2.198517  0  0  -0.642533  0  2.188882  0  -1.177707  0  -0.3711  -0.601674  0  2.204368  0
O  O104  1  0.91277900  0.08508533  0.56063946  1  0  -0.790724  0  2.156773  0  0  -0.728247  0  2.417962  0  0  -0.752078  0  2.404451  0  -1.205749  0  -0.408171  -0.711176  0  2.427014  0
O  O105  1  0.08722276  0.91491468  0.43936657  1  0  -0.790752  0  2.15682  0  0  -0.728206  0  2.417917  0  0  -0.752034  0  2.404393  0  -1.205791  0  -0.40819  -0.711133  0  2.42697  0
O  O106  1  0.87136678  0.24910110  0.69583918  1  0  -0.705684  0  2.092066  0  0  -0.658417  0  2.36146  0  0  -0.688135  0  2.345815  0  -1.205803  0  -0.377829  -0.64174  0  2.370607  0
O  O107  1  0.12863248  0.75090331  0.30416317  1  0  -0.705723  0  2.092049  0  0  -0.658416  0  2.361416  0  0  -0.688136  0  2.345756  0  -1.205757  0  -0.377824  -0.641741  0  2.370573  0
O  O108  1  0.23490970  0.72104211  0.82180815  1  0  -0.337296  0  1.79348  0  0  -0.314647  0  2.011323  0  0  -0.327508  0  2.0094  0  -0.455715  0  -0.105484  -0.306003  0  2.012695  0
O  O109  1  0.76509036  0.27896053  0.17819217  1  0  -0.337223  0  1.793537  0  0  -0.314612  0  2.011352  0  0  -0.327477  0  2.009436  0  -0.455981  0  -0.105495  -0.305968  0  2.012724  0
O  O110  1  0.79446864  0.59615769  0.99246580  1  0  -0.720902  0  2.059812  0  0  -0.668223  0  2.308635  0  0  -0.699557  0  2.298467  0  -1.198847  0  -0.381395  -0.649923  0  2.314298  0
O  O111  1  0.20552941  0.40384408  0.00753471  1  0  -0.720881  0  2.05976  0  0  -0.668197  0  2.308635  0  0  -0.699529  0  2.298465  0  -1.198876  0  -0.381352  -0.649896  0  2.314297  0
O  O112  1  0.77739411  0.39775782  0.90803132  1  0  -0.725055  0  2.037402  0  0  -0.680491  0  2.302302  0  0  -0.710794  0  2.290254  0  -1.19755  0  -0.380194  -0.66299  0  2.309626  0
O  O113  1  0.22260177  0.60224131  0.09197352  1  0  -0.725118  0  2.037437  0  0  -0.680522  0  2.302339  0  0  -0.710825  0  2.290289  0  -1.19762  0  -0.380193  -0.66304  0  2.309714  0
O  O114  1  0.43121322  0.80904300  0.88987198  1  0  -0.360935  0  1.795918  0  0  -0.338887  0  2.009617  0  0  -0.35238  0  2.00611  0  -0.476265  0  -0.115046  -0.329971  0  2.012213  0
O  O115  1  0.56878758  0.19095701  0.11012681  1  0  -0.36092  0  1.796018  0  0  -0.338842  0  2.009735  0  0  -0.352332  0  2.006231  0  -0.477056  0  -0.115025  -0.329924  0  2.01233  0
O  O116  1  0.06594468  0.12155449  0.83000683  1  0  -0.858467  0  2.098567  0  0  -0.792133  0  2.361289  0  0  -0.822785  0  2.346917  0  -1.22068  0  -0.463079  -0.773753  0  2.36989  0
O  O117  1  0.93405523  0.87844640  0.16999053  1  0  -0.858463  0  2.098457  0  0  -0.792097  0  2.36123  0  0  -0.822758  0  2.346896  0  -1.220614  0  -0.463062  -0.773716  0  2.369833  0
O  O118  1  0.16452308  0.17534898  0.52245720  1  0  -0.724227  0  2.022746  0  0  -0.673294  0  2.278424  0  0  -0.698313  0  2.26849  0  -1.196078  0  -0.388043  -0.655654  0  2.28508  0
O  O119  1  0.83547295  0.82465190  0.47754271  1  0  -0.724177  0  2.022817  0  0  -0.673274  0  2.278513  0  0  -0.69828  0  2.268578  0  -1.196047  0  -0.388052  -0.655634  0  2.285168  0
O  O120  1  0.99680545  0.10855411  0.37021614  1  0  -0.719011  0  2.073456  0  0  -0.666617  0  2.327554  0  0  -0.692428  0  2.318929  0  -1.200913  0  -0.384441  -0.648174  0  2.332643  0
O  O121  1  0.00319341  0.89144590  0.62978314  1  0  -0.719006  0  2.073375  0  0  -0.666605  0  2.327453  0  0  -0.692425  0  2.318809  0  -1.200828  0  -0.38443  -0.648161  0  2.332542  0
O  O122  1  0.35601356  0.58732655  0.61656717  1  0  -0.363401  0  1.73858  0  0  -0.351951  0  1.940649  0  0  -0.364329  0  1.938524  0  -0.466911  0  -0.134436  -0.343531  0  1.942059  0
O  O123  1  0.64398604  0.41267082  0.38343214  1  0  -0.363373  0  1.738634  0  0  -0.351926  0  1.940699  0  0  -0.364304  0  1.938571  0  -0.466889  0  -0.134435  -0.343505  0  1.942107  0
O  O124  1  0.21598909  0.69997951  0.56165527  1  0  -0.358918  0  1.781842  0  0  -0.337541  0  1.993784  0  0  -0.351269  0  1.992407  0  -0.480918  0  -0.109172  -0.328166  0  1.994728  0
O  O125  1  0.78400953  0.30001786  0.43834469  1  0  -0.359027  0  1.781856  0  0  -0.337627  0  1.993798  0  0  -0.351352  0  1.992411  0  -0.480981  0  -0.109228  -0.32824  0  1.994719  0
O  O126  1  0.08937768  0.96280855  0.88426980  1  0  -0.537757  0  2.004403  0  0  -0.479525  0  2.218778  0  0  -0.50334  0  2.211373  0  -1.145592  0  -0.261239  -0.46312  0  2.223347  0
O  O127  1  0.91062432  0.03719409  0.11573004  1  0  -0.537716  0  2.004225  0  0  -0.479479  0  2.218664  0  0  -0.503285  0  2.211252  0  -1.145542  0  -0.261208  -0.463079  0  2.22325  0
O  O128  1  0.27002655  0.95652875  0.76501811  1  0  -0.897698  0  1.884488  0  0  -0.852027  0  2.093839  0  0  -0.869681  0  2.060991  0  -1.248586  0  -0.63634  -0.839246  0  2.116487  0
O  O129  1  0.72997506  0.04346950  0.23498101  1  0  -0.897746  0  1.884512  0  0  -0.852081  0  2.093849  0  0  -0.869725  0  2.061007  0  -1.248597  0  -0.636341  -0.839298  0  2.116517  0
O  O130  1  0.00803686  0.29551343  0.07582611  1  0  -0.67086  0  1.994358  0  0  -0.627247  0  2.241499  0  0  -0.656605  0  2.231443  0  -1.16852  0  -0.369323  -0.610002  0  2.247277  0
O  O131  1  0.99196297  0.70448658  0.92417410  1  0  -0.67082  0  1.994352  0  0  -0.627246  0  2.241449  0  0  -0.656604  0  2.23139  0  -1.168546  0  -0.36933  -0.610002  0  2.247228  0
O  O132  1  0.99824849  0.49076900  0.13506094  1  0  -0.804083  0  2.100418  0  0  -0.74943  0  2.368753  0  0  -0.782958  0  2.353176  0  -1.223292  0  -0.408801  -0.732347  0  2.379202  0
O  O133  1  0.00175037  0.50923100  0.86493912  1  0  -0.804063  0  2.100459  0  0  -0.749444  0  2.368742  0  0  -0.782974  0  2.353173  0  -1.223251  0  -0.408801  -0.732353  0  2.379166  0
