# generated using pymatgen
data_CuH14C8N2O3
_symmetry_space_group_name_H-M   'P 1'
_cell_length_a   8.62025912
_cell_length_b   10.05170610
_cell_length_c   11.06446703
_cell_angle_alpha   90.00328148
_cell_angle_beta   89.99587225
_cell_angle_gamma   89.99957020
_symmetry_Int_Tables_number   1
_chemical_formula_structural   CuH14C8N2O3
_chemical_formula_sum   'Cu4 H56 C32 N8 O12'
_cell_volume   958.71737885
_cell_formula_units_Z   4
loop_
 _symmetry_equiv_pos_site_id
 _symmetry_equiv_pos_as_xyz
  1  'x, y, z'
loop_
 _atom_site_type_symbol
 _atom_site_label
 _atom_site_symmetry_multiplicity
 _atom_site_fract_x
 _atom_site_fract_y
 _atom_site_fract_z
 _atom_site_occupancy
 _atom_site_hle17_ddec_charge
 _atom_site_hle17_ddec_spin_density
 _atom_site_hle17_ddec_sum_bond_order
 _atom_site_hle17_magmom
 _atom_site_hse06_10hf_ddec_charge
 _atom_site_hse06_10hf_ddec_spin_density
 _atom_site_hse06_10hf_ddec_sum_bond_order
 _atom_site_hse06_10hf_magmom
 _atom_site_hse06_ddec_charge
 _atom_site_hse06_ddec_spin_density
 _atom_site_hse06_ddec_sum_bond_order
 _atom_site_hse06_magmom
 _atom_site_pbe_cm5_charge
 _atom_site_pbe_ddec_charge
 _atom_site_pbe_ddec_spin_density
 _atom_site_pbe_ddec_sum_bond_order
 _atom_site_pbe_magmom
Cu  Cu0  1  0.07810028  0.30266430  0.11029112  1  0.86436  0.720567  1.830608  0.483  0.845505  0.815714  2.237408  0.604  0.935087  0.904886  2.165676  0.688  0.733513  0.786898  0.746823  2.291425  0.546
Cu  Cu1  1  0.57797312  0.19737988  0.88971272  1  0.864954  -0.67064  1.830311  -0.485  0.845556  -0.770801  2.237703  -0.605  0.935261  -0.841674  2.165711  -0.689  0.733692  0.787192  -0.717829  2.291471  -0.549
Cu  Cu2  1  0.42222520  0.69732049  0.61034468  1  0.865556  -0.681365  1.831699  -0.493  0.846205  -0.774948  2.238649  -0.608  0.934889  -0.842422  2.167324  -0.689  0.734372  0.787838  -0.726674  2.292384  -0.556
Cu  Cu3  1  0.92206794  0.80271290  0.38966843  1  0.865346  -0.677682  1.831429  -0.49  0.845881  -0.773378  2.238505  -0.607  0.934599  -0.841907  2.167228  -0.689  0.734277  0.787594  -0.72254  2.292073  -0.553
H  H4  1  0.30549710  0.32121741  0.26036203  1  0.302495  0.000208  0.881876  -0.001  0.30131  0.001036  0.927846  0.0  0.307008  0.000568  0.925383  0.0  0.305088  0.297284  0.001426  0.929906  0.0
H  H5  1  0.80542574  0.17881336  0.73964620  1  0.302657  -4.8e-05  0.881946  0.001  0.301428  -0.00096  0.927839  0.0  0.307124  -0.000477  0.925384  0.0  0.305248  0.2974  -0.001355  0.929899  0.0
H  H6  1  0.19452451  0.67883160  0.76011560  1  0.30208  -1.4e-05  0.882572  0.001  0.300786  -0.000941  0.92865  0.0  0.30644  -0.000461  0.926253  0.0  0.304936  0.296771  -0.001363  0.930677  0.0
H  H7  1  0.69441805  0.82119232  0.23989583  1  0.301826  -1.3e-05  0.882553  0.001  0.300723  -0.000934  0.928446  0.0  0.306369  -0.000464  0.926057  0.0  0.304971  0.296711  -0.00136  0.930475  0.0
H  H8  1  0.33890408  0.40452456  0.13504768  1  0.306544  -0.000866  0.891664  -0.002  0.299741  0.000157  0.94765  0.0  0.305937  -8.6e-05  0.94414  -0.001  0.30052  0.295093  0.000476  0.950958  0.0
H  H9  1  0.83875690  0.09547715  0.86493880  1  0.306574  0.00103  0.891548  0.002  0.299491  -6.7e-05  0.947767  0.0  0.305674  0.00018  0.94429  0.001  0.300661  0.294864  -0.000396  0.951034  0.0
H  H10  1  0.16123699  0.59537325  0.63492895  1  0.306865  0.000918  0.891621  0.002  0.299894  -0.000206  0.947685  0.0  0.30603  9.2e-05  0.944249  0.001  0.30071  0.295241  -0.000582  0.950999  0.0
H  H11  1  0.66107532  0.90462004  0.36511508  1  0.306741  0.000914  0.891849  0.002  0.299764  -0.000216  0.947928  0.0  0.305902  8.5e-05  0.944492  0.001  0.300651  0.2951  -0.000582  0.951258  0.0
H  H12  1  0.74748214  0.62476249  0.92062245  1  0.121828  0.000454  0.944074  0.001  0.142453  0.000292  1.002787  0.0  0.143733  0.000219  1.003339  0.0  0.094273  0.141175  0.000344  1.002924  0.001
H  H13  1  0.24728206  0.87523622  0.07944566  1  0.121948  -0.000426  0.943949  -0.001  0.142467  -0.00027  1.002754  0.0  0.143742  -0.000201  1.003315  0.0  0.094288  0.141203  -0.000319  1.002891  -0.001
H  H14  1  0.75271964  0.37491640  0.42060712  1  0.122014  -0.000568  0.943715  -0.001  0.142572  -0.000431  1.00247  0.0  0.143817  -0.000311  1.003037  0.0  0.094331  0.14129  -0.000494  1.002627  -0.001
H  H15  1  0.25248249  0.12505601  0.57932365  1  0.1219  -0.00055  0.943915  -0.001  0.142495  -0.000416  1.002646  0.0  0.143735  -0.000302  1.00322  0.0  0.094236  0.141208  -0.000469  1.002801  -0.001
H  H16  1  0.95027379  0.59240570  0.90718644  1  0.094815  -0.000212  0.966638  0.0  0.114888  -0.000197  1.032293  0.0  0.116008  -0.000151  1.032254  0.0  0.082845  0.113786  -0.000261  1.032852  0.0
H  H17  1  0.45008263  0.90750216  0.09291185  1  0.094782  9e-06  0.967106  0.0  0.114839  -0.000161  1.032789  0.0  0.11595  -0.000102  1.032753  0.0  0.082795  0.113766  -0.000227  1.033327  0.0
H  H18  1  0.54995244  0.40739370  0.40704137  1  0.094649  0.000164  0.967303  0.0  0.114676  0.000177  1.032995  0.0  0.115786  0.000137  1.032955  0.0  0.082751  0.113609  0.000233  1.033511  0.0
H  H19  1  0.04973056  0.09248451  0.59283118  1  0.094879  -5.3e-05  0.966602  0.0  0.114824  -0.000193  1.03242  0.0  0.11595  -0.000127  1.032364  0.0  0.082799  0.113727  -0.000271  1.032974  0.0
H  H20  1  0.88315514  0.70661907  0.01835407  1  0.114193  -0.000125  0.979301  0.0  0.134681  3.8e-05  1.041322  0.0  0.136806  2.5e-05  1.040649  0.0  0.090147  0.13335  5.1e-05  1.041354  0.0
H  H21  1  0.38297098  0.79330316  0.98175070  1  0.11405  8.5e-05  0.979053  0.0  0.134685  -5e-05  1.040983  0.0  0.136802  -4.3e-05  1.040306  0.0  0.090196  0.133363  -5.3e-05  1.041009  0.0
H  H22  1  0.61688081  0.29331190  0.51835415  1  0.114117  4.9e-05  0.979191  0.0  0.13469  -3.8e-05  1.041182  0.0  0.13681  -1.8e-05  1.040493  0.0  0.090178  0.133354  -5.8e-05  1.041229  0.0
H  H23  1  0.11667287  0.20659374  0.48153543  1  0.11413  9.6e-05  0.979319  0.0  0.13465  -9e-06  1.041323  0.0  0.136771  1.4e-05  1.040643  0.0  0.090138  0.133325  -3.5e-05  1.041347  0.0
H  H24  1  0.73925308  0.61484915  0.21033878  1  0.113559  0.000156  0.977763  0.0  0.13173  0.00026  1.041863  0.0  0.133449  0.000213  1.041728  0.0  0.090512  0.130187  0.000219  1.042151  0.0
H  H25  1  0.23923551  0.88512573  0.78970900  1  0.113613  0.000265  0.977606  0.0  0.131756  5.4e-05  1.0417  0.0  0.133472  7e-05  1.04158  0.0  0.090571  0.130222  0.000108  1.041985  0.0
H  H26  1  0.76077092  0.38532479  0.71035180  1  0.113583  0.000175  0.978171  0.0  0.131732  2.9e-05  1.042272  0.0  0.133456  6.6e-05  1.042122  0.0  0.090587  0.130205  6.4e-05  1.042548  0.0
H  H27  1  0.26077178  0.11466748  0.28961195  1  0.113469  -0.000145  0.978164  0.0  0.131668  -0.000214  1.042227  0.0  0.133402  -0.000164  1.042081  0.0  0.090531  0.130135  -0.000184  1.042505  0.0
H  H28  1  0.60187382  0.55005819  0.10294220  1  0.105993  0.000534  0.964372  0.001  0.128008  0.000371  1.024445  0.001  0.128677  0.000248  1.025339  0.0  0.088671  0.126718  0.000436  1.025022  0.001
H  H29  1  0.10180981  0.94998424  0.89704461  1  0.106064  -0.000494  0.964113  -0.001  0.128018  -0.000353  1.024259  -0.001  0.128694  -0.000235  1.025146  0.0  0.088693  0.126693  -0.000416  1.024878  -0.001
H  H30  1  0.89814619  0.44989605  0.60286861  1  0.10627  -0.000628  0.964097  -0.001  0.128144  -0.000484  1.024324  -0.001  0.128843  -0.000321  1.025146  0.0  0.088665  0.126814  -0.000595  1.024952  -0.001
H  H31  1  0.39808083  0.05012020  0.39715069  1  0.10632  -0.000645  0.96417  -0.001  0.128135  -0.000495  1.024446  -0.001  0.12881  -0.000331  1.025294  0.0  0.088615  0.126806  -0.000604  1.025068  -0.001
H  H32  1  0.68893618  0.44414605  0.21316374  1  0.108009  -0.000149  0.956084  0.0  0.129807  -3.5e-05  1.017068  0.0  0.130559  -3.6e-05  1.017916  0.0  0.089776  0.128785  2.3e-05  1.017278  0.0
H  H33  1  0.18904703  0.05584768  0.78685284  1  0.107928  0.000115  0.956265  0.0  0.129696  -1.8e-05  1.017318  0.0  0.130454  -1e-06  1.018163  0.0  0.089736  0.128685  -0.0001  1.017506  0.0
H  H34  1  0.81110034  0.55602110  0.71291977  1  0.107647  6.3e-05  0.956767  0.0  0.129542  -3.9e-05  1.01766  0.0  0.130319  -1.3e-05  1.018477  0.0  0.08966  0.128528  -0.000124  1.017853  0.0
H  H35  1  0.31121456  0.94398714  0.28703901  1  0.107765  9.8e-05  0.956751  0.0  0.129621  7e-06  1.017617  0.0  0.130394  1.4e-05  1.018435  0.0  0.089755  0.128601  -8e-05  1.017823  0.0
H  H36  1  0.43195708  0.58272265  0.31652521  1  0.107465  4.4e-05  0.964802  0.0  0.126586  0.000267  1.029751  0.0  0.127722  0.000245  1.030054  0.0  0.086233  0.125511  0.00033  1.02996  0.0
H  H37  1  0.93189463  0.91733954  0.68353887  1  0.107448  0.000172  0.964365  0.0  0.126559  -5.9e-05  1.029437  0.0  0.127698  -4e-05  1.02974  0.0  0.086236  0.125521  -0.000132  1.029596  0.0
H  H38  1  0.06813125  0.41737271  0.81643231  1  0.107515  -9.8e-05  0.964489  0.0  0.126647  -0.000304  1.029534  0.0  0.12776  -0.000268  1.029861  0.0  0.086302  0.125607  -0.000359  1.029689  0.0
H  H39  1  0.56804021  0.08264667  0.18350158  1  0.107576  0.000153  0.964657  0.0  0.126649  -6.1e-05  1.029701  0.0  0.127762  -3.1e-05  1.030023  0.0  0.086211  0.125601  -0.000116  1.029878  0.0
H  H40  1  0.36764640  0.64100192  0.17229564  1  0.1037  -0.00017  0.959665  0.0  0.128643  -8.1e-05  1.015603  0.0  0.129808  -6.4e-05  1.016114  0.0  0.088645  0.127469  -7e-05  1.015814  0.0
H  H41  1  0.86747484  0.85910146  0.82776573  1  0.103726  0.000158  0.959788  0.0  0.128701  6e-05  1.015692  0.0  0.12987  5e-05  1.016212  0.0  0.088745  0.127537  4e-05  1.015889  0.0
H  H42  1  0.13251210  0.35909026  0.67222503  1  0.103894  0.00015  0.959712  0.0  0.128744  6.2e-05  1.015752  0.0  0.12989  5.2e-05  1.016297  0.0  0.088716  0.127575  3.1e-05  1.015943  0.0
H  H43  1  0.63227962  0.14099038  0.32771249  1  0.103612  0.000164  0.960005  0.0  0.128619  8.7e-05  1.015901  0.0  0.129757  6.7e-05  1.016439  0.0  0.088656  0.12745  6.7e-05  1.016095  0.0
H  H44  1  0.28493127  0.70670971  0.30641999  1  0.12338  0.001157  0.96219  0.001  0.138763  0.000958  1.030271  0.001  0.139696  0.000674  1.030934  0.001  0.093958  0.137724  0.001324  1.030215  0.002
H  H45  1  0.78487476  0.79333054  0.69363155  1  0.123289  -0.000853  0.962225  -0.001  0.138821  -0.000693  1.030126  -0.001  0.139758  -0.000428  1.030783  -0.001  0.094077  0.137782  -0.00105  1.030061  -0.002
H  H46  1  0.21521252  0.29338997  0.80634948  1  0.123401  -0.001009  0.962592  -0.002  0.13895  -0.000861  1.030404  -0.001  0.139836  -0.000568  1.031109  -0.001  0.094182  0.137916  -0.001227  1.030328  -0.002
H  H47  1  0.71509511  0.20663243  0.19359605  1  0.123496  -0.001012  0.962417  -0.002  0.139018  -0.000783  1.03024  -0.001  0.139908  -0.000511  1.030958  -0.001  0.094104  0.137988  -0.00115  1.03017  -0.002
H  H48  1  0.07033789  0.38933800  0.38777463  1  0.124791  -4.4e-05  0.961965  0.0  0.142827  -5.3e-05  1.025672  0.0  0.145456  -5.4e-05  1.024286  0.0  0.093739  0.140783  -4.9e-05  1.02711  0.0
H  H49  1  0.57025571  0.11066643  0.61214016  1  0.124939  8.1e-05  0.961665  0.0  0.142946  4.4e-05  1.025436  0.0  0.145566  6e-05  1.024066  0.0  0.093723  0.140902  2.8e-05  1.026873  0.0
H  H50  1  0.42976705  0.61077082  0.88772567  1  0.124737  8.9e-05  0.962094  0.0  0.142568  4.3e-05  1.026046  0.0  0.145212  5.7e-05  1.024635  0.0  0.09358  0.140515  4.4e-05  1.027499  0.0
H  H51  1  0.92967064  0.88921577  0.11238371  1  0.124791  6e-05  0.961935  0.0  0.142622  7.1e-05  1.025847  0.0  0.145269  6.8e-05  1.024432  0.0  0.09351  0.140573  5.2e-05  1.027305  0.0
H  H52  1  0.25850930  0.43601082  0.44287218  1  0.102704  5.5e-05  0.951253  0.0  0.122481  0.000107  1.016783  0.0  0.124  0.000114  1.016776  0.0  0.086153  0.121466  0.000113  1.016807  0.0
H  H53  1  0.75847901  0.06402821  0.55712785  1  0.102756  0.000213  0.951256  0.0  0.122574  8.6e-05  1.016724  0.0  0.124092  8.4e-05  1.016718  0.0  0.086216  0.121568  9.5e-05  1.016744  0.0
H  H54  1  0.24154995  0.56422286  0.94275183  1  0.102849  -6.4e-05  0.951599  0.0  0.122533  -0.000112  1.017094  0.0  0.124049  -0.000111  1.017082  0.0  0.086074  0.121523  -9.4e-05  1.017116  0.0
H  H55  1  0.74150231  0.93577688  0.05726057  1  0.102828  0.000197  0.951319  0.0  0.122414  6.8e-05  1.016968  0.0  0.123932  7.4e-05  1.016957  0.0  0.086062  0.121409  7.2e-05  1.01698  0.0
H  H56  1  0.10510875  0.55522078  0.43803162  1  0.13048  0.000126  0.985007  0.0  0.144912  0.000108  1.053882  0.0  0.147032  0.000121  1.053137  0.0  0.093889  0.143414  0.000126  1.054319  0.0
H  H57  1  0.60512689  0.94478979  0.56193241  1  0.130378  0.000108  0.985104  0.0  0.144858  6.8e-05  1.053962  0.0  0.146979  0.000107  1.053214  0.0  0.093809  0.143364  6.4e-05  1.054396  0.0
H  H58  1  0.39483727  0.44494097  0.93801489  1  0.130553  7.9e-05  0.984768  0.0  0.144833  5.8e-05  1.05389  0.0  0.146915  5.4e-05  1.053179  0.0  0.093703  0.143363  2.8e-05  1.054282  0.0
H  H59  1  0.89481570  0.05505441  0.06203804  1  0.130632  -0.000115  0.984713  0.0  0.144792  -0.000118  1.05389  0.0  0.146875  -7.7e-05  1.053171  0.0  0.09371  0.143328  -0.00011  1.054285  0.0
C  C60  1  0.80129131  0.37111626  0.99725250  1  0.605214  0.002511  3.786485  0.003  0.566767  0.002096  4.076347  0.003  0.603462  0.001676  4.070061  0.002  0.219022  0.54191  0.002322  4.079332  0.003
C  C61  1  0.30120835  0.12885485  0.00279393  1  0.604469  -0.001964  3.788619  -0.003  0.566648  -0.001738  4.077125  -0.003  0.603392  -0.001323  4.070828  -0.002  0.218854  0.541747  -0.002031  4.080117  -0.003
C  C62  1  0.69874910  0.62877541  0.49712951  1  0.604438  0.002677  3.789103  0.005  0.566529  -0.001708  4.077848  0.0  0.603312  -0.000664  4.071432  0.001  0.218545  0.541606  -0.002609  4.080831  0.0
C  C63  1  0.19866073  0.87117984  0.50281300  1  0.604214  0.002668  3.78853  0.005  0.566627  -0.001692  4.077031  0.0  0.603305  -0.000663  4.070655  0.001  0.218859  0.541748  -0.00257  4.080028  -0.001
C  C64  1  0.84168762  0.50093022  0.06477511  1  0.223256  -0.001851  3.636751  -0.005  0.246812  -1.3e-05  3.862474  -0.002  0.250391  -1e-05  3.879328  -0.002  0.074493  0.243999  -0.000305  3.851424  -0.003
C  C65  1  0.34162400  0.99902671  0.93532238  1  0.223172  0.002432  3.63788  0.005  0.247042  0.000341  3.862494  0.002  0.250577  0.000369  3.879388  0.002  0.074725  0.244233  0.000566  3.851469  0.003
C  C66  1  0.65843570  0.49903353  0.56458376  1  0.222946  -0.007404  3.637518  -0.006  0.247001  -0.006149  3.861884  -0.005  0.250175  -0.004471  3.879206  -0.003  0.074973  0.244327  -0.00712  3.850696  -0.006
C  C67  1  0.15836955  0.00090367  0.43529897  1  0.223822  -0.007396  3.635379  -0.006  0.247309  -0.006128  3.860372  -0.005  0.250639  -0.004456  3.877482  -0.003  0.074839  0.244506  -0.007098  3.84937  -0.006
C  C68  1  0.85616683  0.61365618  0.97133371  1  -0.353486  0.002032  3.645833  0.002  -0.434812  0.001041  3.876588  0.001  -0.43752  0.000833  3.884853  0.001  -0.24487  -0.432121  0.001222  3.870714  0.001
C  C69  1  0.35599803  0.88628214  0.02875360  1  -0.35328  -0.001987  3.646472  -0.002  -0.434818  -0.001112  3.877142  -0.001  -0.437513  -0.000847  3.885436  -0.001  -0.244854  -0.432131  -0.001385  3.871166  -0.001
C  C70  1  0.64399314  0.38617814  0.47123468  1  -0.353009  -0.001518  3.645914  -0.001  -0.434597  -0.000925  3.876659  -0.001  -0.437198  -0.000674  3.885025  -0.001  -0.244879  -0.431936  -0.001158  3.870659  -0.001
C  C71  1  0.14380021  0.11373827  0.52866423  1  -0.353571  -0.001466  3.64503  -0.001  -0.434934  -0.001049  3.875855  -0.001  -0.437576  -0.000763  3.884161  -0.001  -0.244867  -0.432225  -0.001339  3.869912  -0.001
C  C72  1  0.70857023  0.52964699  0.15348065  1  -0.346027  0.0027  3.637899  0.003  -0.42802  0.001884  3.868236  0.002  -0.430429  0.001488  3.877707  0.002  -0.24478  -0.425597  0.001743  3.862682  0.002
C  C73  1  0.20856290  0.97034600  0.84655349  1  -0.345732  -0.002308  3.637461  -0.003  -0.427754  -0.001635  3.867769  -0.002  -0.430176  -0.001253  3.877257  -0.001  -0.244648  -0.425322  -0.001599  3.862231  -0.002
C  C74  1  0.79147064  0.47041093  0.65337706  1  -0.345873  -0.001989  3.638586  -0.002  -0.427968  -0.001685  3.868815  -0.002  -0.430284  -0.001236  3.87825  -0.001  -0.244772  -0.425577  -0.001756  3.863263  -0.001
C  C75  1  0.29146813  0.02958114  0.34657954  1  -0.346156  -0.002196  3.638648  -0.002  -0.428137  -0.001841  3.868876  -0.002  -0.430487  -0.001389  3.878306  -0.001  -0.244776  -0.425706  -0.001859  3.863351  -0.002
C  C76  1  0.05793677  0.56463560  0.19777489  1  0.49361  -0.005511  3.807441  -0.006  0.473741  -9.6e-05  4.07652  -0.001  0.504971  -0.000819  4.081301  -0.001  0.221785  0.451871  0.000418  4.072474  0.0
C  C77  1  0.55781910  0.93539020  0.80225054  1  0.493623  0.007188  3.808138  0.007  0.473583  0.001001  4.077418  0.001  0.504828  0.001657  4.082162  0.002  0.221634  0.451711  0.000484  4.07335  0.001
C  C78  1  0.44222286  0.43536866  0.69770350  1  0.493314  0.006919  3.808334  0.006  0.47355  0.000647  4.077492  0.001  0.504945  0.001401  4.082066  0.002  0.221535  0.451701  -9e-06  4.07344  0.0
C  C79  1  0.94209548  0.06463437  0.30227085  1  0.49418  0.006092  3.807956  0.005  0.474114  5.9e-05  4.077427  0.0  0.505512  0.000921  4.08202  0.001  0.221724  0.45222  -0.00066  4.073446  -0.001
C  C80  1  0.20428689  0.50984750  0.26332516  1  0.265437  -0.002717  3.561214  -0.005  0.282034  -0.000214  3.793446  -0.002  0.284694  -0.000231  3.810391  -0.002  0.072126  0.280398  -0.000124  3.781741  -0.002
C  C81  1  0.70415625  0.99019526  0.73666493  1  0.263967  0.003071  3.56424  0.005  0.280731  0.000348  3.796113  0.002  0.28336  0.000391  3.813128  0.002  0.072058  0.279107  0.00019  3.784393  0.002
C  C82  1  0.29588060  0.49022657  0.76326031  1  0.265008  0.002662  3.560808  0.004  0.281444  4.5e-05  3.793101  0.002  0.284042  0.000205  3.810104  0.002  0.071759  0.279782  -0.000115  3.781432  0.002
C  C83  1  0.79572263  0.00979630  0.23676293  1  0.264041  0.002729  3.561173  0.004  0.280717  6.3e-05  3.793358  0.002  0.283298  0.000221  3.810382  0.002  0.071832  0.279086  -5.9e-05  3.781653  0.002
C  C84  1  0.33070832  0.61606592  0.26461136  1  -0.363063  0.003893  3.654017  0.003  -0.443958  0.002722  3.88855  0.002  -0.446547  0.001921  3.898092  0.002  -0.24684  -0.441627  0.003466  3.88244  0.003
C  C85  1  0.83060540  0.88399990  0.73542496  1  -0.362567  -0.003397  3.654359  -0.003  -0.44358  -0.002328  3.888679  -0.002  -0.446183  -0.001516  3.898245  -0.001  -0.246951  -0.441266  -0.003087  3.882512  -0.003
C  C86  1  0.16940569  0.38401023  0.76454811  1  -0.363036  -0.003595  3.653672  -0.003  -0.444016  -0.002673  3.888153  -0.002  -0.446609  -0.001835  3.89779  -0.001  -0.246974  -0.441696  -0.003491  3.881995  -0.003
C  C87  1  0.66926084  0.11603038  0.23541896  1  -0.36286  -0.003372  3.653638  -0.003  -0.443911  -0.00225  3.888057  -0.002  -0.446488  -0.001464  3.897691  -0.001  -0.246886  -0.441603  -0.003062  3.881914  -0.003
C  C88  1  0.15631042  0.46979683  0.39163260  1  -0.374773  -3.5e-05  3.61944  0.0  -0.455965  8.9e-05  3.857152  0.0  -0.45926  9e-05  3.864982  0.0  -0.249517  -0.452805  0.000129  3.851497  0.0
C  C89  1  0.65625365  0.03022794  0.60833972  1  -0.374519  0.000368  3.619497  0.0  -0.455797  0.000224  3.85716  0.0  -0.459084  0.000289  3.864998  0.0  -0.24953  -0.452647  0.000196  3.851504  0.0
C  C90  1  0.34375357  0.53035601  0.89154725  1  -0.374952  0.000277  3.620015  0.0  -0.455795  0.000107  3.857665  0.0  -0.459081  8.8e-05  3.865519  0.0  -0.249247  -0.452631  -1.2e-05  3.852008  0.0
C  C91  1  0.84367654  0.96964506  0.10849286  1  -0.374859  0.000191  3.619981  0.0  -0.455574  8.9e-05  3.857736  0.0  -0.458862  0.000163  3.865607  0.0  -0.249056  -0.452436  6.9e-05  3.852077  0.0
N  N92  1  0.98735792  0.47554700  0.12800251  1  -0.556924  0.1344  3.222294  0.156  -0.537857  0.084616  3.547538  0.104  -0.583888  0.070019  3.566725  0.09  -0.428889  -0.509  0.089489  3.537663  0.108
N  N93  1  0.48736141  0.02438908  0.87214554  1  -0.55659  -0.125167  3.222354  -0.157  -0.537401  -0.079772  3.547315  -0.105  -0.583419  -0.064765  3.566509  -0.09  -0.428925  -0.50859  -0.085696  3.537427  -0.108
N  N94  1  0.51257858  0.52437001  0.62778360  1  -0.556112  -0.12866  3.222261  -0.161  -0.537159  -0.08126  3.547174  -0.106  -0.58299  -0.065628  3.56636  -0.091  -0.42882  -0.508403  -0.088127  3.537285  -0.111
N  N95  1  0.01257794  0.97554863  0.37203920  1  -0.556848  -0.128027  3.221501  -0.16  -0.537732  -0.081208  3.54679  -0.106  -0.583683  -0.065753  3.566  -0.091  -0.429196  -0.50892  -0.087942  3.536946  -0.111
N  N96  1  0.25741403  0.38666923  0.20040466  1  -0.643079  0.097671  3.113685  0.112  -0.631867  0.070442  3.382641  0.085  -0.661569  0.058531  3.381809  0.074  -0.627751  -0.613101  0.075366  3.385318  0.089
N  N97  1  0.75727853  0.11337379  0.79959001  1  -0.643297  -0.090205  3.114498  -0.112  -0.631493  -0.066265  3.383255  -0.085  -0.661238  -0.0541  3.382475  -0.074  -0.628177  -0.612762  -0.071922  3.385901  -0.088
N  N98  1  0.24273841  0.61336504  0.70023710  1  -0.642479  -0.09212  3.113493  -0.114  -0.631221  -0.067014  3.382642  -0.086  -0.661004  -0.05439  3.382021  -0.074  -0.627613  -0.612508  -0.07328  3.385325  -0.09
N  N99  1  0.74257945  0.88666454  0.29978970  1  -0.641278  -0.09241  3.113397  -0.114  -0.630384  -0.067108  3.382651  -0.086  -0.66015  -0.05447  3.382029  -0.075  -0.62746  -0.611645  -0.073387  3.385292  -0.09
O  O100  1  0.89712172  0.27394444  0.99889220  1  -0.604488  0.062217  2.097915  0.077  -0.567202  0.049084  2.377067  0.066  -0.60381  0.040987  2.36516  0.057  -0.320032  -0.542285  0.053876  2.385453  0.071
O  O101  1  0.39687799  0.22614543  0.00088043  1  -0.60417  -0.057895  2.099725  -0.077  -0.567141  -0.046366  2.378701  -0.066  -0.603892  -0.037973  2.366807  -0.057  -0.319862  -0.542191  -0.051746  2.38709  -0.071
O  O102  1  0.60292317  0.72602195  0.49883385  1  -0.60318  -0.059942  2.097933  -0.081  -0.566941  -0.046661  2.377547  -0.068  -0.603803  -0.037149  2.365875  -0.057  -0.31971  -0.541869  -0.05312  2.385829  -0.074
O  O103  1  0.10263510  0.77407519  0.50140778  1  -0.603193  -0.059667  2.096805  -0.081  -0.566842  -0.04652  2.376071  -0.068  -0.603606  -0.037086  2.36439  -0.057  -0.319804  -0.541805  -0.052875  2.38432  -0.074
O  O104  1  0.67151582  0.36686594  0.94340075  1  -0.574873  -0.031474  2.118089  -0.043  -0.530034  -0.024999  2.388701  -0.036  -0.567885  -0.022174  2.378955  -0.034  -0.316931  -0.50394  -0.025433  2.395373  -0.036
O  O105  1  0.17156936  0.13307020  0.05685812  1  -0.574218  0.034392  2.119071  0.043  -0.529653  0.026779  2.389232  0.036  -0.56745  0.024169  2.379359  0.034  -0.316704  -0.503467  0.026869  2.395895  0.036
O  O106  1  0.82844953  0.63300639  0.44316766  1  -0.576716  -0.048133  2.118876  -0.063  -0.531003  -0.036432  2.38867  -0.051  -0.567814  -0.029002  2.378499  -0.043  -0.317374  -0.50489  -0.042962  2.395267  -0.058
O  O107  1  0.32849659  0.86689528  0.55654884  1  -0.577167  -0.047911  2.118544  -0.063  -0.531403  -0.036234  2.38813  -0.051  -0.568121  -0.028862  2.377942  -0.043  -0.317781  -0.505344  -0.042727  2.394761  -0.058
O  O108  1  0.01542392  0.68317441  0.21621926  1  -0.595649  0.032811  1.985305  0.037  -0.571984  0.01205  2.236676  0.015  -0.6035  0.005802  2.229257  0.007  -0.325933  -0.547662  0.01998  2.240925  0.024
O  O109  1  0.51524867  0.81686460  0.78376337  1  -0.595534  -0.029519  1.985042  -0.039  -0.572242  -0.010219  2.236866  -0.015  -0.603762  -0.003788  2.229422  -0.007  -0.325919  -0.547812  -0.018627  2.241071  -0.025
O  O110  1  0.48487669  0.31689171  0.71621526  1  -0.595806  -0.030108  1.985276  -0.04  -0.572397  -0.010302  2.237003  -0.015  -0.60392  -0.003796  2.229495  -0.007  -0.326116  -0.548021  -0.018953  2.241236  -0.026
O  O111  1  0.98468502  0.18311701  0.28378110  1  -0.59581  -0.030873  1.98521  -0.038  -0.57218  -0.011378  2.236895  -0.015  -0.603704  -0.005316  2.229434  -0.007  -0.325941  -0.547822  -0.019427  2.241179  -0.025
