# generated using pymatgen
data_Zn2H19C23N2O10F
_symmetry_space_group_name_H-M   'P 1'
_cell_length_a   9.86744500
_cell_length_b   11.28594050
_cell_length_c   16.10395895
_cell_angle_alpha   90.02256979
_cell_angle_beta   102.45640468
_cell_angle_gamma   94.79309718
_symmetry_Int_Tables_number   1
_chemical_formula_structural   Zn2H19C23N2O10F
_chemical_formula_sum   'Zn2 H19 C23 N2 O10 F1'
_cell_volume   1744.73929148
_cell_formula_units_Z   1
loop_
 _symmetry_equiv_pos_site_id
 _symmetry_equiv_pos_as_xyz
  1  'x, y, z'
loop_
 _atom_site_type_symbol
 _atom_site_label
 _atom_site_symmetry_multiplicity
 _atom_site_fract_x
 _atom_site_fract_y
 _atom_site_fract_z
 _atom_site_occupancy
 _atom_site_pbe_bader_charge
 _atom_site_pbe_bader_spin_density
 _atom_site_pbe_cm5_charge
 _atom_site_pbe_ddec_charge
 _atom_site_pbe_ddec_spin_density
 _atom_site_pbe_ddec_sum_bond_order
 _atom_site_pbe_magmom
Zn  Zn0  1  0.64223497  0.48518545  0.51962309  1  1.293358  0  0.665172  0.846263  0  2.435157  0
Zn  Zn1  1  0.35905792  0.51279519  0.47554484  1  1.297124  0  0.663268  0.846489  0  2.433975  0
H  H2  1  0.58894694  0.33497736  0.08167610  1  0.035548  0  0.094477  0.095408  0  0.975584  0
H  H3  1  0.89949003  0.40538022  0.58618277  1  0.433486  0  0.328363  0.296594  0  0.890764  0
H  H4  1  0.57739331  0.32999655  0.93499328  1  0.045776  0  0.093657  0.091597  0  0.977693  0
H  H5  1  0.10192514  0.59391161  0.40930311  1  0.440694  0  0.328822  0.297116  0  0.892042  0
H  H6  1  0.27374835  0.51806078  0.90106848  1  0.031661  0  0.093597  0.093085  0  0.977022  0
H  H7  1  0.31993486  0.36999101  0.90526008  1  0.034047  0  0.094384  0.092923  0  0.978105  0
H  H8  1  0.33628641  0.36887918  0.05229810  1  0.036198  0  0.097132  0.098966  0  0.97117  0
H  H9  1  0.28238045  0.51436394  0.04764830  1  0.044673  0  0.096431  0.097134  0  0.975546  0
H  H10  1  0.64265568  0.65782232  0.94331471  1  0.052977  0  0.100885  0.108683  0  0.98208  0
H  H11  1  0.46616634  0.69177358  0.91702446  1  0.033893  0  0.098297  0.102298  0  0.971633  0
H  H12  1  0.73789520  0.81086830  0.18738257  1  0.630259  0  0.344524  0.380865  0  0.853498  0
H  H13  1  0.70643314  0.45109633  0.94736737  1  0.050251  0  0.097083  0.099305  0  0.974104  0
H  H14  1  0.71808950  0.45588951  0.09318694  1  0.077243  0  0.095067  0.104477  0  0.991184  0
H  H15  1  0.44929894  0.68564370  0.05880862  1  0.068813  0  0.110387  0.104072  0  0.951554  0
H  H16  1  0.38248243  0.89603162  0.47948843  1  0.139272  0  0.114493  0.137734  0  0.982489  0
H  H17  1  0.62021379  0.10414545  0.50233439  1  0.115757  0  0.106208  0.107301  0  0.989508  0
H  H18  1  0.30062800  0.10469429  0.47206035  1  0.089615  0  0.105299  0.123688  0  0.987698  0
H  H19  1  0.87941333  0.57075189  0.44475249  1  0.150711  0  0.143556  0.112028  0  0.951617  0
H  H20  1  0.12445271  0.43549777  0.55479148  1  0.16794  0  0.142841  0.111024  0  0.951018  0
C  C21  1  0.43888177  0.26944261  0.48826013  1  1.510271  0  0.206072  0.635421  0  4.18406  0
C  C22  1  0.51294765  0.06457877  0.49188670  1  -0.034214  0  -0.075018  0.002012  0  4.026578  0
C  C23  1  0.58934190  0.86137217  0.50045541  1  0.40473  0  0.094582  0.145062  0  3.968294  0
C  C24  1  0.49296437  0.50133168  0.65971394  1  1.6655  0  0.215839  0.679878  0  4.229164  0
C  C25  1  0.48862491  0.93756052  0.48940369  1  0.034516  0  -0.097887  -0.191079  0  4.042631  0
C  C26  1  0.07556726  0.49285311  0.50385830  1  0.654594  0  0.124233  0.172788  0  3.866973  0
C  C27  1  0.92763141  0.51143932  0.49452451  1  0.726202  0  0.123899  0.172592  0  3.867135  0
C  C28  1  0.56391178  0.72914726  0.50183647  1  1.623335  0  0.204222  0.53809  0  4.253628  0
C  C29  1  0.50954146  0.50281175  0.33556317  1  1.682804  0  0.221275  0.683582  0  4.223935  0
C  C30  1  0.60525155  0.42072581  0.96143154  1  -0.053863  0  -0.152262  -0.183478  0  3.845875  0
C  C31  1  0.35133966  0.45944428  0.93340741  1  -0.022952  0  -0.153668  -0.188337  0  3.856837  0
C  C32  1  0.61322614  0.42403085  0.05834607  1  -0.04822  0  -0.15562  -0.194253  0  3.848701  0
C  C33  1  0.35896932  0.45908563  0.03036407  1  -0.045282  0  -0.150564  -0.187425  0  3.849549  0
C  C34  1  0.51157840  0.50508602  0.24605087  1  0.207967  0  -0.060805  -0.210459  0  3.991078  0
C  C35  1  0.49522209  0.50253637  0.91546120  1  0.116885  0  0.000219  0.174722  0  3.899499  0
C  C36  1  0.66949894  0.69588804  0.09983832  1  1.492613  0  0.23159  0.602504  0  4.069305  0
C  C37  1  0.50663222  0.50585669  0.07980763  1  0.125866  0  0.008662  0.165378  0  3.870136  0
C  C38  1  0.53484405  0.63545918  0.04814675  1  -0.01343  0  -0.070564  -0.149761  0  3.764675  0
C  C39  1  0.53742625  0.63037302  0.95225939  1  0.002046  0  -0.148419  -0.206012  0  3.818601  0
C  C40  1  0.51095265  0.50667020  0.17052686  1  -0.499625  0  -0.031342  -0.052618  0  4.050733  0
C  C41  1  0.49108387  0.50210249  0.82474149  1  -0.478834  0  -0.026041  -0.041085  0  4.038015  0
C  C42  1  0.49087414  0.50167027  0.74921287  1  0.176749  0  -0.065136  -0.224729  0  4.003891  0
C  C43  1  0.41000654  0.13863531  0.48313104  1  -0.008734  0  -0.094603  -0.232701  0  3.875834  0
N  N44  1  0.15163525  0.54048185  0.45572277  1  -1.168121  0  -0.422049  -0.360563  0  3.219303  0
N  N45  1  0.85051552  0.46075998  0.54090275  1  -1.165527  0  -0.421809  -0.359106  0  3.219304  0
O  O46  1  0.56614710  0.31199068  0.50388587  1  -1.171831  0  -0.327132  -0.563598  0  2.311618  0
O  O47  1  0.64598448  0.77849366  0.15561864  1  -1.130159  0  -0.339354  -0.491292  0  2.201958  0
O  O48  1  0.33297190  0.33044269  0.47680725  1  -1.155977  0  -0.328912  -0.561685  0  2.264805  0
O  O49  1  0.61084483  0.49180775  0.64102159  1  -1.141161  0  -0.318663  -0.544102  0  2.243661  0
O  O50  1  0.37742728  0.51072017  0.60741641  1  -1.154988  0  -0.318722  -0.563512  0  2.265208  0
O  O51  1  0.66985583  0.66971984  0.51846405  1  -1.161631  0  -0.318762  -0.531538  0  2.313513  0
O  O52  1  0.43636307  0.68872932  0.48620857  1  -1.169733  0  -0.318434  -0.54049  0  2.330942  0
O  O53  1  0.62570901  0.49613297  0.38771007  1  -1.161802  0  -0.318088  -0.563654  0  2.262129  0
O  O54  1  0.39080323  0.50760338  0.35408859  1  -1.141344  0  -0.32118  -0.545816  0  2.243365  0
O  O55  1  0.78662763  0.67515830  0.09382955  1  -1.139527  0  -0.302526  -0.502336  0  2.059761  0
F  F56  1  0.72570695  0.90301878  0.51314573  1  -0.626422  0  -0.106975  -0.129448  0  1.350383  0
