# generated using pymatgen
data_MnH11C9NO10
_symmetry_space_group_name_H-M   'P 1'
_cell_length_a   6.42279290
_cell_length_b   7.11085789
_cell_length_c   13.58884634
_cell_angle_alpha   104.61423735
_cell_angle_beta   102.91270008
_cell_angle_gamma   93.10857081
_symmetry_Int_Tables_number   1
_chemical_formula_structural   MnH11C9NO10
_chemical_formula_sum   'Mn2 H22 C18 N2 O20'
_cell_volume   581.31853526
_cell_formula_units_Z   2
loop_
 _symmetry_equiv_pos_site_id
 _symmetry_equiv_pos_as_xyz
  1  'x, y, z'
loop_
 _atom_site_type_symbol
 _atom_site_label
 _atom_site_symmetry_multiplicity
 _atom_site_fract_x
 _atom_site_fract_y
 _atom_site_fract_z
 _atom_site_occupancy
 _atom_site_hle17_ddec_charge
 _atom_site_hle17_ddec_spin_density
 _atom_site_hle17_ddec_sum_bond_order
 _atom_site_hle17_magmom
 _atom_site_hse06_10hf_ddec_charge
 _atom_site_hse06_10hf_ddec_spin_density
 _atom_site_hse06_10hf_ddec_sum_bond_order
 _atom_site_hse06_10hf_magmom
 _atom_site_hse06_ddec_charge
 _atom_site_hse06_ddec_spin_density
 _atom_site_hse06_ddec_sum_bond_order
 _atom_site_hse06_magmom
 _atom_site_pbe_cm5_charge
 _atom_site_pbe_ddec_charge
 _atom_site_pbe_ddec_spin_density
 _atom_site_pbe_ddec_sum_bond_order
 _atom_site_pbe_magmom
Mn  Mn0  1  0.09213588  0.92051200  0.05846250  1  1.329209  4.816781  1.522964  4.719  1.181074  4.748151  1.974287  4.594  1.240866  4.786064  1.902963  4.644  0.599581  1.132912  4.708875  2.026917  4.544
Mn  Mn1  1  0.53332229  0.86175194  0.94135700  1  1.328875  -4.818704  1.514954  -4.72  1.180314  -4.750436  1.964949  -4.596  1.240249  -4.788173  1.893761  -4.646  0.59932  1.131953  -4.711315  2.01748  -4.546
H  H2  1  0.02804359  0.24085259  0.21703177  1  0.441736  0.000144  0.837436  0.001  0.41126  0.000769  0.90568  0.002  0.421557  0.000541  0.890765  0.001  0.306873  0.403809  0.000977  0.916448  0.002
H  H3  1  0.30894080  0.02181266  0.78215859  1  0.440718  -0.000154  0.839057  -0.001  0.410082  -0.000772  0.907252  -0.002  0.420402  -0.000546  0.892318  -0.001  0.3058  0.402584  -0.000978  0.918097  -0.002
H  H4  1  0.25524786  0.27178961  0.19526801  1  0.414875  -6.3e-05  0.888718  0.001  0.383498  0.000526  0.957063  0.001  0.394079  0.000331  0.941796  0.001  0.297021  0.375857  0.000705  0.968069  0.001
H  H5  1  0.55812775  0.07440009  0.80436495  1  0.41569  7.3e-05  0.887966  -0.001  0.384532  -0.0005  0.955215  -0.001  0.395078  -0.000312  0.940008  -0.001  0.298119  0.376926  -0.000673  0.966155  -0.001
H  H6  1  0.01038856  0.58850167  0.12324029  1  0.437497  -8.2e-05  0.822195  0.001  0.411424  0.000452  0.890418  0.001  0.420476  0.000216  0.879535  0.001  0.316268  0.40473  0.000688  0.898341  0.001
H  H7  1  0.38600306  0.46389606  0.87691682  1  0.4382  8.5e-05  0.820003  -0.001  0.411955  -0.000438  0.888865  -0.001  0.421039  -0.000207  0.878142  -0.001  0.316488  0.405244  -0.000668  0.896822  -0.001
H  H8  1  0.26082306  0.58291855  0.13191579  1  0.444358  0.000332  0.844697  0.002  0.412066  0.00078  0.908435  0.002  0.422354  0.000532  0.893522  0.002  0.302368  0.404623  0.001016  0.919202  0.002
H  H9  1  0.62758736  0.44850280  0.86857351  1  0.442683  -0.000327  0.847716  -0.002  0.410657  -0.000769  0.910965  -0.002  0.420941  -0.000526  0.896075  -0.002  0.302151  0.403205  -0.001  0.921738  -0.002
H  H10  1  0.33657947  0.24937906  0.04590534  1  0.423932  0.000154  0.879089  0.001  0.392329  0.000612  0.943612  0.001  0.403854  0.000428  0.926633  0.001  0.297659  0.384021  0.000778  0.955821  0.001
H  H11  1  0.79019933  0.20446629  0.95390547  1  0.422584  -0.000154  0.880652  -0.001  0.391594  -0.000611  0.944223  -0.001  0.403062  -0.000428  0.927315  -0.001  0.297707  0.383319  -0.000777  0.956401  -0.001
H  H12  1  0.18017014  0.17649398  0.92884000  1  0.418386  0.000352  0.88997  0.001  0.385039  0.000781  0.957261  0.002  0.39708  0.00059  0.939686  0.001  0.291458  0.376354  0.000949  0.969902  0.002
H  H13  1  0.75258039  0.24995487  0.07115171  1  0.42025  -0.000349  0.887774  -0.001  0.386659  -0.000778  0.955593  -0.002  0.398726  -0.000588  0.937965  -0.001  0.292591  0.377974  -0.000946  0.968244  -0.002
H  H14  1  0.65030084  0.05902231  0.63984616  1  0.106259  3.8e-05  0.94182  0.0  0.113407  1.9e-05  1.01026  0.0  0.114723  3.6e-05  1.00876  0.0  0.115105  0.112508  1e-06  1.011471  0.0
H  H15  1  0.51096403  0.42076948  0.35958235  1  0.104725  -4.1e-05  0.945114  0.0  0.112988  -1.1e-05  1.012207  0.0  0.114376  -3.1e-05  1.010518  0.0  0.114694  0.112019  1.1e-05  1.013488  0.0
H  H16  1  0.75251885  0.29595746  0.64107404  1  0.094217  -9e-06  0.972586  0.0  0.102364  -1.8e-05  1.041904  0.0  0.102292  -1.3e-05  1.043562  0.0  0.110204  0.102521  -2.3e-05  1.040775  0.0
H  H17  1  0.61311494  0.65689535  0.35940306  1  0.095878  7e-06  0.971461  0.0  0.103832  8e-06  1.040978  0.0  0.103743  7e-06  1.042691  0.0  0.110844  0.103965  8e-06  1.039789  0.0
H  H18  1  0.56314605  0.14590205  0.48875592  1  0.11766  7e-06  0.989492  0.0  0.116646  -4e-06  1.068872  0.0  0.121315  -2e-06  1.06578  0.0  0.105307  0.113262  -6e-06  1.071266  0.0
H  H19  1  0.57318479  0.65655155  0.51150609  1  0.118893  -5e-06  0.987907  0.0  0.116822  3e-06  1.068726  0.0  0.121583  2e-06  1.065578  0.0  0.105037  0.113424  6e-06  1.071146  0.0
H  H20  1  0.43930057  0.06165466  0.29740926  1  0.113374  -0.000352  0.950793  0.0  0.120292  -0.000368  1.01729  0.0  0.123848  -0.000369  1.01372  0.0  0.112692  0.117686  -0.000358  1.019793  0.0
H  H21  1  0.63987532  0.76132147  0.70298907  1  0.112725  0.00035  0.952582  0.0  0.119703  0.000369  1.019035  0.0  0.12318  0.000368  1.015564  0.0  0.111709  0.117188  0.00036  1.02142  0.0
H  H22  1  0.03352124  0.82495106  0.26929422  1  0.118296  -0.000159  0.973549  0.0  0.120526  -0.000112  1.047833  0.0  0.125073  -0.000132  1.042559  0.0  0.120216  0.117261  -9e-05  1.051503  0.0
H  H23  1  0.26206784  0.55238920  0.73090156  1  0.118153  0.000145  0.971937  0.0  0.120411  9.6e-05  1.046297  0.0  0.124973  0.000117  1.040963  0.0  0.119853  0.117148  7.4e-05  1.049982  0.0
C  C24  1  0.90743794  0.20451114  0.77410322  1  0.7113  -0.000128  3.823444  0.0  0.647721  -0.000268  4.143682  0.0  0.679507  -0.000187  4.137144  0.0  0.22508  0.62615  -0.000369  4.1474  0.0
C  C25  1  0.63500500  0.43200157  0.22599870  1  0.70495  0.000138  3.825745  0.0  0.643698  0.000285  4.142218  0.0  0.675425  0.000196  4.135729  0.0  0.222701  0.622139  0.000391  4.145891  0.0
C  C26  1  0.79926577  0.15863673  0.65786913  1  -0.097313  2e-06  3.613552  0.0  -0.153413  -3e-05  3.873031  0.0  -0.149624  -1e-05  3.875885  0.0  -0.072409  -0.156225  -4.7e-05  3.871138  0.0
C  C27  1  0.64233702  0.50237797  0.34210210  1  -0.096141  3e-06  3.613774  0.0  -0.15237  3.4e-05  3.870833  0.0  -0.148478  1.6e-05  3.873446  0.0  -0.072305  -0.155053  4.9e-05  3.868874  0.0
C  C28  1  0.86840791  0.02954442  0.49083434  1  0.262777  0.000484  3.741462  0.0  0.240798  0.000583  4.013038  0.0  0.257386  0.000438  4.027465  0.0  0.104771  0.229624  0.000897  4.003213  0.001
C  C29  1  0.87674072  0.53871863  0.50943671  1  0.267419  -0.00041  3.741984  0.0  0.245229  -0.000483  4.011692  0.0  0.261817  -0.000368  4.026092  0.0  0.107514  0.234044  -0.000737  4.001962  -0.001
C  C30  1  0.66690446  0.07362459  0.44137427  1  -0.195636  -0.000226  3.713818  0.0  -0.218842  -9.7e-05  3.982655  0.0  -0.22885  -0.00014  4.001384  0.0  -0.107667  -0.212381  -0.000127  3.970205  0.0
C  C31  1  0.72399860  0.63106072  0.55887585  1  -0.196631  0.000191  3.708718  0.0  -0.219466  8.4e-05  3.978616  0.0  -0.229467  0.000129  3.997093  0.0  -0.107213  -0.213075  0.000109  3.966384  0.0
C  C32  1  0.59776705  0.02827160  0.33294372  1  0.009454  0.000422  3.666564  0.0  -0.02388  0.000423  3.926374  0.0  -0.01551  0.000298  3.940011  0.0  -0.066971  -0.028904  0.000749  3.916832  0.001
C  C33  1  0.76278921  0.69260753  0.66734537  1  0.010494  -0.000401  3.668027  0.0  -0.022709  -0.000433  3.927622  0.0  -0.014329  -0.000305  3.941364  0.0  -0.064818  -0.027827  -0.000735  3.91811  -0.001
C  C34  1  0.72921150  0.94093523  0.26867792  1  -0.094712  0.000117  3.757192  0.0  -0.073093  -4.8e-05  4.000722  0.0  -0.085809  -1.7e-05  4.022314  0.0  -0.023419  -0.0651  -0.000167  3.986675  0.0
C  C35  1  0.95832024  0.66888708  0.73149789  1  -0.095661  -0.000146  3.760499  0.0  -0.074866  5.5e-05  4.004655  0.0  -0.087634  1.9e-05  4.02634  0.0  -0.024408  -0.066835  0.000182  3.990533  0.0
C  C36  1  0.92807948  0.89477715  0.31613272  1  -0.049971  0.000187  3.69291  0.0  -0.091623  4.5e-05  3.957083  0.0  -0.08391  -2e-06  3.971507  0.0  -0.065636  -0.096238  0.000217  3.947095  0.0
C  C37  1  0.10997127  0.57566985  0.68408046  1  -0.049141  -0.000122  3.694416  0.0  -0.09076  2.5e-05  3.95532  0.0  -0.082936  5.7e-05  3.969435  0.0  -0.064827  -0.095384  -0.000142  3.945503  0.0
C  C38  1  0.99673057  0.93385678  0.42481850  1  -0.024766  -0.000271  3.638502  0.0  -0.045207  -0.000225  3.896954  0.0  -0.053523  -0.000235  3.916374  0.0  0.068995  -0.040066  -0.000275  3.884022  0.0
C  C39  1  0.07047438  0.50795339  0.57534896  1  -0.037591  0.000247  3.639817  0.0  -0.045817  0.000224  3.899627  0.0  -0.054017  0.000228  3.918906  0.0  0.06662  -0.040862  0.000271  3.886961  0.0
C  C40  1  0.65998400  0.89690201  0.15251708  1  0.671841  0.003749  3.866402  0.007  0.616198  0.005708  4.15474  0.009  0.653618  0.004063  4.148603  0.008  0.221332  0.589579  0.007819  4.158392  0.011
C  C41  1  0.00584486  0.74173816  0.84757046  1  0.672978  -0.0036  3.868181  -0.007  0.618586  -0.005506  4.154921  -0.009  0.655983  -0.00392  4.148794  -0.007  0.222646  0.592003  -0.007555  4.15856  -0.011
N  N42  1  0.20020587  0.86606535  0.46484263  1  0.480478  -2.2e-05  3.932246  0.0  0.532969  -6e-05  4.189781  0.0  0.555454  -3.8e-05  4.196573  0.0  0.046488  0.517991  -8.5e-05  4.185196  0.0
N  N43  1  0.23425167  0.40147528  0.53474673  1  0.515051  2.2e-05  3.8815  0.0  0.534467  6.1e-05  4.189892  0.0  0.556771  3.5e-05  4.196921  0.0  0.049069  0.519629  8.7e-05  4.185158  0.0
O  O44  1  0.79037906  0.83191051  0.09685694  1  -0.687328  0.007836  2.105573  0.001  -0.612781  0.008623  2.370326  0.0  -0.64726  0.008319  2.357782  0.0  -0.297754  -0.586479  0.008665  2.377942  -0.001
O  O45  1  0.19195361  0.73200805  0.90314338  1  -0.689261  -0.007175  2.102222  -0.001  -0.615071  -0.007919  2.365856  0.001  -0.64942  -0.007644  2.353425  0.0  -0.299379  -0.588843  -0.00795  2.373375  0.001
O  O46  1  0.47233699  0.92607021  0.10790611  1  -0.658191  -0.002368  2.058253  -0.004  -0.583509  0.001651  2.317301  0.001  -0.617588  0.001514  2.306604  0.001  -0.287186  -0.557823  0.001704  2.323818  0.001
O  O47  1  0.86347291  0.81723023  0.89219750  1  -0.658725  0.002538  2.060081  0.004  -0.584104  -0.001375  2.318076  -0.001  -0.618274  -0.001251  2.307155  -0.001  -0.287564  -0.558408  -0.001421  2.324774  0.0
O  O48  1  0.77869310  0.25276289  0.83355948  1  -0.67589  -0.000177  2.019546  -0.001  -0.601314  -0.000578  2.236398  -0.001  -0.628171  -0.000294  2.224938  -0.001  -0.314572  -0.582364  -0.000891  2.243955  -0.001
O  O49  1  0.44680494  0.42026167  0.16625329  1  -0.672411  0.000173  2.018752  0.001  -0.598457  0.000575  2.23469  0.001  -0.625355  0.000296  2.223325  0.001  -0.312548  -0.579553  0.000884  2.242284  0.001
O  O50  1  0.10567083  0.19604202  0.80582406  1  -0.619742  0.000177  1.986212  0.0  -0.556159  0.000114  2.208197  0.0  -0.580479  0.000164  2.197183  0.0  -0.298418  -0.539187  4.2e-05  2.215642  0.0
O  O51  1  0.80188035  0.39247084  0.19456921  1  -0.618213  -0.000182  1.982376  0.0  -0.555821  -0.000118  2.203606  0.0  -0.580114  -0.000162  2.192476  0.0  -0.29867  -0.538902  -4.5e-05  2.211129  0.0
O  O52  1  0.94137254  0.07346543  0.59567657  1  -0.22876  0.000101  2.425766  0.0  -0.163242  0.000179  2.664989  0.0  -0.184379  0.000117  2.672454  0.0  -0.156156  -0.14845  0.000292  2.659456  0.0
O  O53  1  0.84646199  0.47958217  0.40463661  1  -0.231358  -0.00012  2.423997  0.0  -0.167122  -0.000214  2.664072  0.0  -0.188408  -0.000142  2.67162  0.0  -0.157645  -0.152296  -0.000339  2.658509  0.0
O  O54  1  0.28063004  0.91075501  0.56108901  1  -0.343602  4.5e-05  1.802198  0.0  -0.336496  -4.4e-05  2.011384  0.0  -0.346472  -3e-06  2.007271  0.0  -0.126186  -0.329964  -0.000108  2.014396  0.0
O  O55  1  0.22288787  0.35779411  0.43892616  1  -0.353609  -5.6e-05  1.785893  0.0  -0.336075  3.5e-05  2.011571  0.0  -0.345946  -3.4e-05  2.007383  0.0  -0.126801  -0.329679  0.000105  2.014681  0.0
O  O56  1  0.28483660  0.76222616  0.39957329  1  -0.363094  -7.3e-05  1.810686  0.0  -0.346245  -8.2e-05  2.01622  0.0  -0.359552  -6.6e-05  2.012719  0.0  -0.128508  -0.337509  -0.000101  2.018879  0.0
O  O57  1  0.38011972  0.35615370  0.59917121  1  -0.376046  7.7e-05  1.791597  0.0  -0.349251  9e-05  2.013234  0.0  -0.362428  0.000101  2.009677  0.0  -0.130413  -0.340487  0.000101  2.015769  0.0
O  O58  1  0.14884643  0.16964858  0.20010151  1  -0.836022  0.029465  1.896931  0.017  -0.777499  0.036927  2.111822  0.021  -0.801755  0.033261  2.077114  0.018  -0.564171  -0.759131  0.040304  2.136327  0.024
O  O59  1  0.44657233  0.96755887  0.79945361  1  -0.834615  -0.028984  1.896039  -0.017  -0.775857  -0.036421  2.109975  -0.021  -0.800124  -0.032768  2.075331  -0.018  -0.563679  -0.757502  -0.0398  2.134451  -0.024
O  O60  1  0.13479347  0.64740769  0.10705191  1  -0.834955  0.026188  1.870237  0.015  -0.7781  0.034292  2.081196  0.019  -0.799235  0.03085  2.048083  0.017  -0.562861  -0.762152  0.03747  2.104661  0.022
O  O61  1  0.52697594  0.53885448  0.89332546  1  -0.834289  -0.025876  1.867813  -0.015  -0.777689  -0.033935  2.078627  -0.019  -0.798853  -0.030503  2.045732  -0.017  -0.563705  -0.761719  -0.037107  2.102095  -0.022
O  O62  1  0.24384550  0.13601790  0.99335286  1  -0.885485  0.01902  1.985186  0.011  -0.8253  0.02136  2.203307  0.011  -0.850715  0.019625  2.165628  0.01  -0.56793  -0.80569  0.022827  2.22969  0.013
O  O63  1  0.74998758  0.14430514  0.00635327  1  -0.886757  -0.018913  1.981441  -0.011  -0.827002  -0.02129  2.198595  -0.011  -0.852216  -0.019542  2.160882  -0.01  -0.570461  -0.807567  -0.022779  2.225004  -0.013
