# generated using pymatgen
data_Cd3H42C36(N2O7)2
_symmetry_space_group_name_H-M   'P 1'
_cell_length_a   9.12601520
_cell_length_b   9.45032797
_cell_length_c   18.62705508
_cell_angle_alpha   93.49385624
_cell_angle_beta   93.04368052
_cell_angle_gamma   118.03785365
_symmetry_Int_Tables_number   1
_chemical_formula_structural   Cd3H42C36(N2O7)2
_chemical_formula_sum   'Cd3 H42 C36 N4 O14'
_cell_volume   1409.18832175
_cell_formula_units_Z   1
loop_
 _symmetry_equiv_pos_site_id
 _symmetry_equiv_pos_as_xyz
  1  'x, y, z'
loop_
 _atom_site_type_symbol
 _atom_site_label
 _atom_site_symmetry_multiplicity
 _atom_site_fract_x
 _atom_site_fract_y
 _atom_site_fract_z
 _atom_site_occupancy
 _atom_site_pbe_bader_charge
 _atom_site_pbe_bader_spin_density
 _atom_site_pbe_cm5_charge
 _atom_site_pbe_ddec_charge
 _atom_site_pbe_ddec_spin_density
 _atom_site_pbe_ddec_sum_bond_order
 _atom_site_pbe_magmom
Cd  Cd0  1  0.99923738  0.91051752  0.81892205  1  1.283389  0  0.765357  0.913697  0  2.189685  0
Cd  Cd1  1  0.00075839  0.08948623  0.18107651  1  1.283413  0  0.765335  0.91369  0  2.189672  0
Cd  Cd2  1  0.99998664  0.99999649  0.00000056  1  1.388732  0  0.775843  1.077442  0  2.180117  0
H  H3  1  0.78562525  0.17412469  0.96566998  1  0.05514  0  0.096899  0.090777  0  0.992717  0
H  H4  1  0.97604126  0.42983218  0.91973963  1  0.01179  0  0.086447  0.079479  0  1.01148  0
H  H5  1  0.83455864  0.38992925  0.84267522  1  0.020006  0  0.088461  0.088826  0  1.006993  0
H  H6  1  0.77240743  0.44255709  0.99991857  1  -0.018513  0  0.090818  0.065791  0  1.010689  0
H  H7  1  0.55202045  0.38310456  0.85971398  1  0.042901  0  0.0919  0.091625  0  1.001335  0
H  H8  1  0.50613691  0.42425493  0.94755173  1  0.015602  0  0.091193  0.089698  0  0.993555  0
H  H9  1  0.49168645  0.17055804  0.98450536  1  0.019372  0  0.100606  0.087869  0  0.961834  0
H  H10  1  0.55400253  0.10863189  0.82866186  1  0.061796  0  0.091705  0.092553  0  0.983079  0
H  H11  1  0.52190784  0.98019578  0.89877114  1  0.03515  0  0.090168  0.08701  0  0.996241  0
H  H12  1  0.81066309  0.57872897  0.73298324  1  0.139413  0  0.126996  0.106049  0  0.987275  0
H  H13  1  0.63056186  0.43339276  0.61984830  1  0.107905  0  0.112923  0.119088  0  0.991555  0
H  H14  1  0.51237708  0.66207736  0.48208092  1  0.050718  0  0.106501  0.102039  0  0.998886  0
H  H15  1  0.67299852  0.88951538  0.56538316  1  0.074423  0  0.110108  0.114023  0  0.988397  0
H  H16  1  0.84641107  0.01364265  0.68416868  1  0.174998  0  0.124846  0.107764  0  0.994407  0
H  H17  1  0.12983456  0.65436358  0.85903979  1  0.093549  0  0.121964  0.048868  0  1.018188  0
H  H18  1  0.56004240  0.81965687  0.76716178  1  0.053037  0  0.105032  0.121607  0  1.00734  0
H  H19  1  0.42880402  0.64069734  0.70930130  1  0.046332  0  0.096995  0.105312  0  1.003581  0
H  H20  1  0.38456862  0.80726846  0.71354304  1  0.098906  0  0.108938  0.12763  0  1.002951  0
H  H21  1  0.34895862  0.46773391  0.81963077  1  0.084536  0  0.108277  0.131446  0  0.983967  0
H  H22  1  0.49546393  0.64781760  0.87357234  1  0.094161  0  0.107916  0.127884  0  0.984906  0
H  H23  1  0.28181703  0.54403123  0.89308808  1  0.066822  0  0.109641  0.120649  0  1.025943  0
H  H24  1  0.21437166  0.82588135  0.03433192  1  0.055087  0  0.096888  0.090819  0  0.992711  0
H  H25  1  0.02395938  0.57017033  0.08025955  1  0.011778  0  0.086453  0.07949  0  1.011484  0
H  H26  1  0.16544311  0.61007329  0.15732292  1  0.020061  0  0.088466  0.088822  0  1.007052  0
H  H27  1  0.22759156  0.55744430  0.00007784  1  -0.01859  0  0.090789  0.065724  0  1.010657  0
H  H28  1  0.44797885  0.61689079  0.14028275  1  0.042932  0  0.091937  0.091699  0  1.001264  0
H  H29  1  0.49386038  0.57574525  0.05244512  1  0.015404  0  0.091219  0.089768  0  0.993611  0
H  H30  1  0.50832075  0.82944442  0.01549506  1  0.019386  0  0.100632  0.087872  0  0.961879  0
H  H31  1  0.44599563  0.89136335  0.17133805  1  0.061811  0  0.091708  0.092555  0  0.983065  0
H  H32  1  0.47809491  0.01980433  0.10122746  1  0.03515  0  0.090163  0.086991  0  0.996268  0
H  H33  1  0.18935109  0.42126764  0.26701123  1  0.139512  0  0.126965  0.106099  0  0.987211  0
H  H34  1  0.36944541  0.56660985  0.38014783  1  0.107902  0  0.112933  0.119159  0  0.991516  0
H  H35  1  0.48760349  0.33791780  0.51792230  1  0.051022  0  0.106509  0.102027  0  0.998978  0
H  H36  1  0.32698213  0.11048217  0.43462068  1  0.074465  0  0.110061  0.114001  0  0.988403  0
H  H37  1  0.15358255  0.98635005  0.31583531  1  0.174912  0  0.124821  0.107762  0  0.994357  0
H  H38  1  0.87017150  0.34563877  0.14096382  1  0.093599  0  0.12193  0.048778  0  1.018256  0
H  H39  1  0.43995646  0.18034202  0.23283721  1  0.053023  0  0.10503  0.121598  0  1.007369  0
H  H40  1  0.57119423  0.35930032  0.29069871  1  0.046327  0  0.096973  0.105249  0  1.003625  0
H  H41  1  0.61542965  0.19272925  0.28645536  1  0.099015  0  0.108931  0.127602  0  1.00296  0
H  H42  1  0.65105473  0.53227210  0.18037155  1  0.084485  0  0.108274  0.131473  0  0.983939  0
H  H43  1  0.50454497  0.35219944  0.12642546  1  0.094224  0  0.10793  0.127902  0  0.984883  0
H  H44  1  0.71819482  0.45597840  0.10691434  1  0.066791  0  0.109648  0.120644  0  1.025868  0
C  C45  1  0.84125317  0.11040879  0.86260619  1  1.542264  0  0.20593  0.615789  0  4.124097  0
C  C46  1  0.76500830  0.19247702  0.90902434  1  0.009374  0  -0.094037  -0.111185  0  3.870224  0
C  C47  1  0.84285225  0.37232254  0.90026792  1  0.0074  0  -0.166039  -0.176324  0  3.923399  0
C  C48  1  0.75605069  0.45194487  0.94173652  1  0.058531  0  -0.093539  -0.109708  0  3.884433  0
C  C49  1  0.56891691  0.36820668  0.91716504  1  -0.016842  0  -0.161341  -0.177847  0  3.908006  0
C  C50  1  0.48709438  0.18844912  0.92671669  1  0.019331  0  -0.087682  -0.095256  0  3.864349  0
C  C51  1  0.57617217  0.10693701  0.88726139  1  -0.059448  0  -0.15573  -0.165439  0  3.867602  0
C  C52  1  0.83222082  0.63129945  0.93154319  1  1.557806  0  0.211805  0.620352  0  4.133862  0
C  C53  1  0.30536053  0.10001015  0.89657456  1  1.540358  0  0.202486  0.603923  0  4.124954  0
C  C54  1  0.77752771  0.64214123  0.69358761  1  0.536001  0  0.056769  0.105278  0  3.936734  0
C  C55  1  0.67715220  0.56273055  0.63028647  1  -0.091592  0  -0.078447  -0.174704  0  3.925663  0
C  C56  1  0.63717024  0.64996520  0.58130897  1  -0.011192  0  0.006709  0.141674  0  4.043627  0
C  C57  1  0.53398430  0.57813640  0.51322650  1  0.13288  0  -0.077695  -0.116233  0  3.963653  0
C  C58  1  0.70110651  0.81594691  0.60080016  1  -0.114338  0  -0.080081  -0.177202  0  3.937176  0
C  C59  1  0.79937208  0.88672123  0.66564914  1  0.521103  0  0.055208  0.094508  0  3.95936  0
C  C60  1  0.19714476  0.70451568  0.81166450  1  1.386975  0  0.173126  0.305705  0  4.092128  0
C  C61  1  0.43100718  0.73950944  0.74457748  1  0.263844  0  -0.134721  -0.271574  0  3.915544  0
C  C62  1  0.36540249  0.57872054  0.84982592  1  0.244306  0  -0.126868  -0.279519  0  3.900992  0
C  C63  1  0.15873992  0.88958285  0.13739346  1  1.542043  0  0.20577  0.615521  0  4.123975  0
C  C64  1  0.23499215  0.80752065  0.09097518  1  0.009523  0  -0.09402  -0.111282  0  3.870334  0
C  C65  1  0.15714773  0.62767640  0.09973003  1  0.007237  0  -0.166028  -0.176324  0  3.923417  0
C  C66  1  0.24394304  0.54804808  0.05825997  1  0.05867  0  -0.093465  -0.109408  0  3.883999  0
C  C67  1  0.43107850  0.63178743  0.08283261  1  -0.016607  0  -0.161416  -0.178101  0  3.908134  0
C  C68  1  0.51290656  0.81154732  0.07328334  1  0.019292  0  -0.087715  -0.095261  0  3.864428  0
C  C69  1  0.42383057  0.89306307  0.11273829  1  -0.059428  0  -0.155747  -0.165423  0  3.867643  0
C  C70  1  0.16776808  0.36869705  0.06845546  1  1.557619  0  0.211735  0.620266  0  4.133833  0
C  C71  1  0.69463602  0.89998626  0.10342643  1  1.540024  0  0.202502  0.603926  0  4.124625  0
C  C72  1  0.22248884  0.35786019  0.30640764  1  0.535822  0  0.05675  0.105233  0  3.936863  0
C  C73  1  0.32285611  0.43727193  0.36971344  1  -0.091571  0  -0.07841  -0.174812  0  3.925808  0
C  C74  1  0.36283419  0.35003607  0.41869080  1  -0.011085  0  0.006619  0.141749  0  4.043652  0
C  C75  1  0.46601181  0.42186358  0.48677622  1  -0.145214  0  -0.077698  -0.116303  0  3.963758  0
C  C76  1  0.29888472  0.18405430  0.39920195  1  -0.114229  0  -0.079988  -0.177154  0  3.937184  0
C  C77  1  0.20063285  0.11327885  0.33435059  1  0.521106  0  0.055183  0.094479  0  3.959345  0
C  C78  1  0.80286365  0.29549143  0.18834096  1  1.386783  0  0.173219  0.305847  0  4.09225  0
C  C79  1  0.56899448  0.26049068  0.25542110  1  0.263776  0  -0.134716  -0.271506  0  3.915678  0
C  C80  1  0.63460421  0.42128313  0.15017453  1  0.244319  0  -0.126911  -0.279628  0  3.90089  0
N  N81  1  0.83813065  0.80148714  0.71091609  1  -1.247508  0  -0.323547  -0.227032  0  3.511383  0
N  N82  1  0.32558975  0.67539874  0.80264918  1  -1.223836  0  -0.284293  0.028227  0  3.72513  0
N  N83  1  0.16187632  0.19850818  0.28908137  1  -1.247578  0  -0.323439  -0.227022  0  3.511521  0
N  N84  1  0.67440642  0.32460137  0.19734979  1  -1.223675  0  -0.284287  0.028261  0  3.725035  0
O  O85  1  0.86180116  0.99800549  0.89191172  1  -1.171219  0  -0.355447  -0.621154  0  2.408312  0
O  O86  1  0.87315551  0.14250080  0.79940084  1  -1.184886  0  -0.339678  -0.569904  0  2.076744  0
O  O87  1  0.26207368  0.13454841  0.83691171  1  -1.146721  0  -0.331137  -0.545657  0  2.157145  0
O  O88  1  0.20310795  0.98341525  0.93014807  1  -1.193014  0  -0.346769  -0.619461  0  2.290225  0
O  O89  1  0.85394566  0.66812180  0.86698819  1  -1.186543  0  -0.339555  -0.586646  0  2.292899  0
O  O90  1  0.86493599  0.72721892  0.98836096  1  -1.178082  0  -0.337055  -0.573296  0  2.226398  0
O  O91  1  0.15446415  0.78177687  0.77068834  1  -1.1619  0  -0.319994  -0.475707  0  2.293679  0
O  O92  1  0.13817120  0.00197527  0.10808913  1  -1.171201  0  -0.355377  -0.620974  0  2.408318  0
O  O93  1  0.12686318  0.85750268  0.20060474  1  -1.184778  0  -0.339605  -0.56981  0  2.076532  0
O  O94  1  0.73792277  0.86544557  0.16308972  1  -1.146513  0  -0.331084  -0.545599  0  2.156956  0
O  O95  1  0.79688663  0.01658828  0.06985690  1  -1.1929  0  -0.346817  -0.619512  0  2.290056  0
O  O96  1  0.14605508  0.33188314  0.13301055  1  -1.186278  0  -0.339488  -0.586624  0  2.293014  0
O  O97  1  0.13504555  0.27277156  0.01163781  1  -1.178122  0  -0.337039  -0.573292  0  2.226291  0
O  O98  1  0.84553680  0.21823514  0.22931550  1  -1.161967  0  -0.320037  -0.475709  0  2.293923  0
