# generated using pymatgen
data_CuPH22(C5O)4
_symmetry_space_group_name_H-M   'P 1'
_cell_length_a   8.46125383
_cell_length_b   10.16760884
_cell_length_c   11.15171287
_cell_angle_alpha   84.30880671
_cell_angle_beta   86.49678178
_cell_angle_gamma   81.38525510
_symmetry_Int_Tables_number   1
_chemical_formula_structural   CuPH22(C5O)4
_chemical_formula_sum   'Cu2 P2 H44 C40 O8'
_cell_volume   942.84672211
_cell_formula_units_Z   2
loop_
 _symmetry_equiv_pos_site_id
 _symmetry_equiv_pos_as_xyz
  1  'x, y, z'
loop_
 _atom_site_type_symbol
 _atom_site_label
 _atom_site_symmetry_multiplicity
 _atom_site_fract_x
 _atom_site_fract_y
 _atom_site_fract_z
 _atom_site_occupancy
 _atom_site_hle17_bader_spin_density
 _atom_site_hle17_ddec_charge
 _atom_site_hle17_ddec_spin_density
 _atom_site_hle17_ddec_sum_bond_order
 _atom_site_hle17_magmom
 _atom_site_hse06_10hf_bader_spin_density
 _atom_site_hse06_10hf_ddec_charge
 _atom_site_hse06_10hf_ddec_spin_density
 _atom_site_hse06_10hf_ddec_sum_bond_order
 _atom_site_hse06_10hf_magmom
 _atom_site_hse06_bader_spin_density
 _atom_site_hse06_ddec_charge
 _atom_site_hse06_ddec_spin_density
 _atom_site_hse06_ddec_sum_bond_order
 _atom_site_hse06_magmom
 _atom_site_pbe_bader_spin_density
 _atom_site_pbe_cm5_charge
 _atom_site_pbe_ddec_charge
 _atom_site_pbe_ddec_spin_density
 _atom_site_pbe_ddec_sum_bond_order
 _atom_site_pbe_magmom
Cu  Cu0  1  0.50000061  0.50000126  0.49999945  1  0  0.637714  0  1.518487  0  0  0.52144  0  1.957461  0  0  0.539216  0  1.905564  0  0  0.471794  0.512222  0  1.989949  0
Cu  Cu1  1  0.00000207  0.49999604  0.50000030  1  0  0.633066  0  1.419763  0  0  0.510349  0  1.840162  0  0  0.536312  0  1.785015  0  0  0.474376  0.494768  0  1.875773  0
P  P2  1  0.76485223  0.37903841  0.67594267  1  0  0.979507  0  4.623804  0  0  0.861657  0  5.051794  0  0  0.900584  0  5.03148  0  0  0.297057  0.834292  0  5.065983  0
P  P3  1  0.23514967  0.62096012  0.32405747  1  0  0.979587  0  4.623773  0  0  0.861709  0  5.051805  0  0  0.900633  0  5.031488  0  0  0.297084  0.834342  0  5.065993  0
H  H4  1  0.23051804  0.62289847  0.85575063  1  0  0.10332  0  0.950237  0  0  0.117774  0  1.006426  0  0  0.120624  0  1.005551  0  0  0.101557  0.11576  0  1.00714  0
H  H5  1  0.76948082  0.37710406  0.14424839  1  0  0.103318  0  0.950203  0  0  0.117777  0  1.006395  0  0  0.120628  0  1.005519  0  0  0.101549  0.115765  0  1.007111  0
H  H6  1  0.42036590  0.18760319  0.36110501  1  0  0.104939  0  0.950991  0  0  0.121483  0  1.004874  0  0  0.123167  0  1.006099  0  0  0.102415  0.120035  0  1.004501  0
H  H7  1  0.57963278  0.81239335  0.63889456  1  0  0.104972  0  0.95095  0  0  0.121501  0  1.004842  0  0  0.123206  0  1.00604  0  0  0.102415  0.120042  0  1.004479  0
H  H8  1  0.80207318  0.25748125  0.47396658  1  0  0.106011  0  1.008471  0  0  0.12384  0  1.075501  0  0  0.125758  0  1.074212  0  0  0.087831  0.122227  0  1.076853  0
H  H9  1  0.19792720  0.74251230  0.52603408  1  0  0.10595  0  1.008527  0  0  0.123781  0  1.075562  0  0  0.1257  0  1.074272  0  0  0.087818  0.122167  0  1.076913  0
H  H10  1  0.67060397  0.29627250  0.35345890  1  0  0.107558  0  0.963408  0  0  0.12687  0  1.031786  0  0  0.129306  0  1.029618  0  0  0.088744  0.125013  0  1.03349  0
H  H11  1  0.32939658  0.70372704  0.64654210  1  0  0.107541  0  0.963388  0  0  0.126862  0  1.031749  0  0  0.129298  0  1.029582  0  0  0.088748  0.125004  0  1.033451  0
H  H12  1  0.76192181  0.13011269  0.38902545  1  0  0.121136  0  0.945091  0  0  0.148205  0  0.997627  0  0  0.148797  0  0.999513  0  0  0.09561  0.147637  0  0.996622  0
H  H13  1  0.23807552  0.86988486  0.61097230  1  0  0.121176  0  0.945094  0  0  0.148211  0  0.997667  0  0  0.148803  0  0.999552  0  0  0.095619  0.147642  0  0.996661  0
H  H14  1  0.77842429  0.87818197  0.87577490  1  0  0.098689  0  0.966811  0  0  0.108513  0  1.031544  0  0  0.111504  0  1.030536  0  0  0.097403  0.106144  0  1.032705  0
H  H15  1  0.22157575  0.12182056  0.12422406  1  0  0.098636  0  0.966901  0  0  0.108467  0  1.031637  0  0  0.111458  0  1.030629  0  0  0.097381  0.106098  0  1.032797  0
H  H16  1  0.19729316  0.10311489  0.71051089  1  0  0.098202  0  0.959158  0  0  0.109902  0  1.021187  0  0  0.11231  0  1.021018  0  0  0.100604  0.107899  0  1.022199  0
H  H17  1  0.80270468  0.89688665  0.28948916  1  0  0.098225  0  0.959138  0  0  0.109936  0  1.021148  0  0  0.112334  0  1.020991  0  0  0.100608  0.107935  0  1.022163  0
H  H18  1  0.11874167  0.88237612  0.98150167  1  0  0.119865  0  0.940245  0  0  0.141171  0  1.000606  0  0  0.14246  0  1.000523  0  0  0.094159  0.140412  0  1.000699  0
H  H19  1  0.88125973  0.11762541  0.01850091  1  0  0.119909  0  0.940236  0  0  0.141185  0  1.000637  0  0  0.14247  0  1.000559  0  0  0.094162  0.140432  0  1.000725  0
H  H20  1  0.02987949  0.97500829  0.85311795  1  0  0.113699  0  0.964846  0  0  0.132524  0  1.029963  0  0  0.134524  0  1.028514  0  0  0.089447  0.130663  0  1.032111  0
H  H21  1  0.97012055  0.02499424  0.14688371  1  0  0.113707  0  0.964758  0  0  0.132535  0  1.029873  0  0  0.134536  0  1.028421  0  0  0.089438  0.130673  0  1.032023  0
H  H22  1  0.21832829  0.87015951  0.83834785  1  0  0.103773  0  0.957513  0  0  0.126779  0  1.018094  0  0  0.127787  0  1.018609  0  0  0.089595  0.126091  0  1.017525  0
H  H23  1  0.78167311  0.12984202  0.16165383  1  0  0.103786  0  0.957522  0  0  0.126792  0  1.018107  0  0  0.1278  0  1.018622  0  0  0.089589  0.126105  0  1.017541  0
H  H24  1  0.53832055  0.64207899  0.79453748  1  0  0.114713  0  0.960854  0  0  0.136402  0  1.022901  0  0  0.137884  0  1.022598  0  0  0.089324  0.135233  0  1.023256  0
H  H25  1  0.46168236  0.35792054  0.20545983  1  0  0.114681  0  0.960873  0  0  0.136363  0  1.022935  0  0  0.137847  0  1.02263  0  0  0.089284  0.135195  0  1.023293  0
H  H26  1  0.53520904  0.79548637  0.86009873  1  0  0.103029  0  0.956877  0  0  0.126387  0  1.017101  0  0  0.127703  0  1.016868  0  0  0.089255  0.125379  0  1.017317  0
H  H27  1  0.46479404  0.20451216  0.13989866  1  0  0.103109  0  0.956865  0  0  0.126439  0  1.017108  0  0  0.127762  0  1.016869  0  0  0.089289  0.125433  0  1.017323  0
H  H28  1  0.53806874  0.64293469  0.95239486  1  0  0.129565  0  0.959695  0  0  0.1479  0  1.023513  0  0  0.150311  0  1.0216  0  0  0.095015  0.14622  0  1.024853  0
H  H29  1  0.46193164  0.35706584  0.04760337  1  0  0.129549  0  0.95968  0  0  0.147887  0  1.023499  0  0  0.150298  0  1.021587  0  0  0.095003  0.146207  0  1.024839  0
H  H30  1  0.05392738  0.31049790  0.84089659  1  0  0.107984  0  0.950641  0  0  0.128413  0  1.012335  0  0  0.129725  0  1.012052  0  0  0.089015  0.126853  0  1.013876  0
H  H31  1  0.94607723  0.68950562  0.15910117  1  0  0.108036  0  0.950574  0  0  0.128455  0  1.012267  0  0  0.129768  0  1.011983  0  0  0.089045  0.126895  0  1.013807  0
H  H32  1  0.21690678  0.37530520  0.89373383  1  0  0.113433  0  0.955754  0  0  0.137256  0  1.012856  0  0  0.137983  0  1.014343  0  0  0.093309  0.136807  0  1.011634  0
H  H33  1  0.78309546  0.62469832  0.10626584  1  0  0.113419  0  0.955756  0  0  0.137239  0  1.012869  0  0  0.137966  0  1.014354  0  0  0.093299  0.13679  0  1.011648  0
H  H34  1  0.18469631  0.38948343  0.73700906  1  0  0.10642  0  0.954788  0  0  0.126405  0  1.024022  0  0  0.128855  0  1.021665  0  0  0.087779  0.124592  0  1.025456  0
H  H35  1  0.81530678  0.61052209  0.26299128  1  0  0.106392  0  0.95479  0  0  0.126396  0  1.024007  0  0  0.128845  0  1.021651  0  0  0.087788  0.124583  0  1.025451  0
H  H36  1  0.52243014  0.02693735  0.87737807  1  0  0.107961  0  0.956881  0  0  0.128671  0  1.020152  0  0  0.130123  0  1.019615  0  0  0.090577  0.127631  0  1.020544  0
H  H37  1  0.47756770  0.97306419  0.12262378  1  0  0.107948  0  0.956888  0  0  0.128657  0  1.020163  0  0  0.130109  0  1.019627  0  0  0.090562  0.127617  0  1.020556  0
H  H38  1  0.32393678  0.11322238  0.88695589  1  0  0.109991  0  0.950311  0  0  0.133296  0  1.007588  0  0  0.134601  0  1.007995  0  0  0.092626  0.132162  0  1.007648  0
H  H39  1  0.67606054  0.88677517  0.11304276  1  0  0.11001  0  0.950327  0  0  0.133318  0  1.007601  0  0  0.134625  0  1.008008  0  0  0.092638  0.132185  0  1.007659  0
H  H40  1  0.49135345  0.20115376  0.88383457  1  0  0.120041  0  0.955383  0  0  0.137207  0  1.020968  0  0  0.138922  0  1.02058  0  0  0.093049  0.135933  0  1.021305  0
H  H41  1  0.50864085  0.79884779  0.11616834  1  0  0.120044  0  0.955382  0  0  0.137208  0  1.020963  0  0  0.138924  0  1.020574  0  0  0.09303  0.135933  0  1.021299  0
H  H42  1  0.09203892  0.22196654  0.41981639  1  0  0.108636  0  0.953059  0  0  0.128362  0  1.021549  0  0  0.130028  0  1.020593  0  0  0.089525  0.127093  0  1.022317  0
H  H43  1  0.90796196  0.77803100  0.58018209  1  0  0.108614  0  0.953065  0  0  0.128334  0  1.021571  0  0  0.130002  0  1.020615  0  0  0.089509  0.127065  0  1.022338  0
H  H44  1  0.05022773  0.09859545  0.53682349  1  0  0.109012  0  0.954014  0  0  0.129898  0  1.01433  0  0  0.130936  0  1.014879  0  0  0.089436  0.129142  0  1.014003  0
H  H45  1  0.94977179  0.90140309  0.46317497  1  0  0.109007  0  0.954021  0  0  0.1299  0  1.014335  0  0  0.130939  0  1.014882  0  0  0.089462  0.129145  0  1.014008  0
H  H46  1  0.16655574  0.05297773  0.40411707  1  0  0.112435  0  0.953003  0  0  0.133071  0  1.015122  0  0  0.133713  0  1.016299  0  0  0.090723  0.132828  0  1.013922  0
H  H47  1  0.83344853  0.94702079  0.59588385  1  0  0.112413  0  0.953037  0  0  0.133092  0  1.0151  0  0  0.133731  0  1.01629  0  0  0.090723  0.132849  0  1.013901  0
C  C48  1  0.56566494  0.19439586  0.51085235  1  0  0.116412  0  3.793011  0  0  0.137598  0  4.040226  0  0  0.140971  0  4.062723  0  0  -0.010758  0.135635  0  4.023678  0
C  C49  1  0.43433459  0.80560268  0.48914700  1  0  0.116318  0  3.793092  0  0  0.137505  0  4.040304  0  0  0.140884  0  4.062795  0  0  -0.010802  0.135546  0  4.023747  0
C  C50  1  0.76476030  0.67102924  0.86019332  1  0  0.1461  0  3.741848  0  0  0.165946  0  3.985801  0  0  0.169054  0  4.010109  0  0  -0.002173  0.163856  0  3.969287  0
C  C51  1  0.23524093  0.32897329  0.13980738  1  0  0.146135  0  3.74179  0  0  0.165988  0  3.985793  0  0  0.169095  0  4.010104  0  0  -0.002127  0.163897  0  3.969281  0
C  C52  1  0.85588681  0.54446935  0.84535557  1  0  -0.141319  0  3.743532  0  0  -0.140688  0  3.981164  0  0  -0.149398  0  4.006277  0  0  -0.029322  -0.134857  0  3.964759  0
C  C53  1  0.14411340  0.45553218  0.15464527  1  0  -0.141364  0  3.743579  0  0  -0.140841  0  3.981309  0  0  -0.149551  0  4.006421  0  0  -0.029367  -0.13501  0  3.964901  0
C  C54  1  0.10036632  0.63747930  0.85270962  1  0  -0.196751  0  3.698983  0  0  -0.224478  0  3.941781  0  0  -0.231282  0  3.964313  0  0  -0.099061  -0.21966  0  3.926315  0
C  C55  1  0.89963051  0.36252124  0.14729237  1  0  -0.196744  0  3.698898  0  0  -0.224514  0  3.941661  0  0  -0.231319  0  3.96419  0  0  -0.099054  -0.219696  0  3.926203  0
C  C56  1  0.01432262  0.76390145  0.86679381  1  0  0.17796  0  3.761427  0  0  0.205208  0  3.996804  0  0  0.208328  0  4.021653  0  0  -0.003174  0.203291  0  3.979438  0
C  C57  1  0.98567624  0.23610109  0.13320790  1  0  0.177945  0  3.76139  0  0  0.205257  0  3.996694  0  0  0.208377  0  4.021541  0  0  -0.003142  0.203338  0  3.979334  0
C  C58  1  0.02435041  0.52712763  0.83959004  1  0  0.136759  0  3.764021  0  0  0.156317  0  4.011802  0  0  0.159505  0  4.035887  0  0  -0.003066  0.154053  0  3.995501  0
C  C59  1  0.97564878  0.47287291  0.16041094  1  0  0.136764  0  3.764003  0  0  0.156406  0  4.011726  0  0  0.159595  0  4.035808  0  0  -0.003047  0.15414  0  3.995425  0
C  C60  1  0.57334515  0.17461833  0.63798824  1  0  -0.144696  0  3.756118  0  0  -0.14383  0  3.991579  0  0  -0.153227  0  4.017091  0  0  -0.031414  -0.137137  0  3.973583  0
C  C61  1  0.42665303  0.82538121  0.36201109  1  0  -0.144623  0  3.756105  0  0  -0.143746  0  3.991558  0  0  -0.153143  0  4.017067  0  0  -0.031384  -0.137055  0  3.973564  0
C  C62  1  0.42545401  0.17603486  0.45907104  1  0  -0.181646  0  3.690839  0  0  -0.211734  0  3.936225  0  0  -0.217603  0  3.958023  0  0  -0.096722  -0.207714  0  3.920374  0
C  C63  1  0.57454569  0.82396268  0.54092840  1  0  -0.181693  0  3.690834  0  0  -0.211764  0  3.936203  0  0  -0.21765  0  3.957992  0  0  -0.096736  -0.207735  0  3.920348  0
C  C64  1  0.76890971  0.43047179  0.83284221  1  0  0.22941  0  3.669937  0  0  0.232713  0  3.932745  0  0  0.247152  0  3.937753  0  0  0.17127  0.221979  0  3.930368  0
C  C65  1  0.23108932  0.56952974  0.16715869  1  0  0.229336  0  3.670066  0  0  0.232697  0  3.932838  0  0  0.247136  0  3.937846  0  0  0.171303  0.221963  0  3.930455  0
C  C66  1  0.44114662  0.13818163  0.71133506  1  0  0.150756  0  3.723171  0  0  0.171314  0  3.96376  0  0  0.174307  0  3.988608  0  0  0.000427  0.169362  0  3.946643  0
C  C67  1  0.55885257  0.86181891  0.28866592  1  0  0.150729  0  3.723203  0  0  0.171266  0  3.963817  0  0  0.174258  0  3.988665  0  0  0.000454  0.169316  0  3.946706  0
C  C68  1  0.70731623  0.22206662  0.42871573  1  0  -0.359721  0  3.728962  0  0  -0.442452  0  3.964286  0  0  -0.444906  0  3.972243  0  0  -0.248283  -0.440714  0  3.959418  0
C  C69  1  0.29268229  0.77793092  0.57128376  1  0  -0.359685  0  3.729008  0  0  -0.442388  0  3.964342  0  0  -0.444844  0  3.972296  0  0  -0.248302  -0.440654  0  3.959471  0
C  C70  1  0.29175354  0.14367362  0.52912888  1  0  0.176807  0  3.765895  0  0  0.201492  0  4.007613  0  0  0.205139  0  4.030405  0  0  -0.000526  0.199021  0  3.991532  0
C  C71  1  0.70824701  0.85632592  0.47087123  1  0  0.176813  0  3.765911  0  0  0.201502  0  4.007626  0  0  0.205148  0  4.030421  0  0  -0.00052  0.199032  0  3.991546  0
C  C72  1  0.84667142  0.77909025  0.86801993  1  0  -0.209247  0  3.710247  0  0  -0.23573  0  3.953659  0  0  -0.24297  0  3.976519  0  0  -0.100196  -0.230772  0  3.938213  0
C  C73  1  0.15332862  0.22091228  0.13198083  1  0  -0.209152  0  3.710244  0  0  -0.235657  0  3.953655  0  0  -0.242896  0  3.976517  0  0  -0.100185  -0.230698  0  3.938209  0
C  C74  1  0.71368087  0.20343367  0.69824527  1  0  0.21789  0  3.673274  0  0  0.221729  0  3.935403  0  0  0.237058  0  3.938736  0  0  0.165226  0.210518  0  3.933904  0
C  C75  1  0.28631714  0.79656687  0.30175487  1  0  0.217985  0  3.673163  0  0  0.22181  0  3.935296  0  0  0.237141  0  3.938629  0  0  0.165253  0.2106  0  3.933796  0
C  C76  1  0.30200582  0.12589555  0.65470965  1  0  -0.199747  0  3.704745  0  0  -0.227999  0  3.948955  0  0  -0.234647  0  3.971575  0  0  -0.097099  -0.223435  0  3.933724  0
C  C77  1  0.69799320  0.87410598  0.34529125  1  0  -0.199755  0  3.704696  0  0  -0.228013  0  3.948907  0  0  -0.23465  0  3.971527  0  0  -0.09711  -0.223447  0  3.93368  0
C  C78  1  0.09963527  0.87939786  0.88500654  1  0  -0.34664  0  3.7112  0  0  -0.426037  0  3.941108  0  0  -0.428558  0  3.95027  0  0  -0.239624  -0.42381  0  3.934637  0
C  C79  1  0.90036495  0.12060367  0.11499520  1  0  -0.346697  0  3.711122  0  0  -0.426103  0  3.941035  0  0  -0.428619  0  3.950197  0  0  -0.239622  -0.423882  0  3.934577  0
C  C80  1  0.58473228  0.68911149  0.86700620  1  0  -0.354409  0  3.718715  0  0  -0.437834  0  3.958583  0  0  -0.440227  0  3.966684  0  0  -0.246448  -0.435866  0  3.952932  0
C  C81  1  0.41527250  0.31088404  0.13299228  1  0  -0.354456  0  3.718709  0  0  -0.437844  0  3.958557  0  0  -0.440243  0  3.966651  0  0  -0.246448  -0.435874  0  3.952911  0
C  C82  1  0.12430172  0.39346917  0.82694340  1  0  -0.336222  0  3.726375  0  0  -0.41927  0  3.962322  0  0  -0.422164  0  3.972926  0  0  -0.243659  -0.416666  0  3.955043  0
C  C83  1  0.87570069  0.60653335  0.17305724  1  0  -0.336227  0  3.726357  0  0  -0.419295  0  3.962286  0  0  -0.422187  0  3.972891  0  0  -0.243702  -0.416695  0  3.955007  0
C  C84  1  0.44456960  0.11915774  0.84690113  1  0  -0.342656  0  3.718393  0  0  -0.423202  0  3.954959  0  0  -0.425865  0  3.964485  0  0  -0.242221  -0.421101  0  3.948217  0
C  C85  1  0.55542723  0.88084280  0.15309996  1  0  -0.342663  0  3.718437  0  0  -0.423208  0  3.955016  0  0  -0.425872  0  3.964543  0  0  -0.242192  -0.421106  0  3.948273  0
C  C86  1  0.14199155  0.12786781  0.47007708  1  0  -0.336529  0  3.709838  0  0  -0.416774  0  3.942074  0  0  -0.419352  0  3.951853  0  0  -0.241484  -0.414781  0  3.935191  0
C  C87  1  0.85800917  0.87213073  0.52992311  1  0  -0.336454  0  3.709905  0  0  -0.416747  0  3.942152  0  0  -0.419326  0  3.95193  0  0  -0.241473  -0.414754  0  3.93527  0
O  O88  1  0.67909682  0.38300484  0.91040801  1  0  -0.36971  0  1.99906  0  0  -0.328215  0  2.197285  0  0  -0.34454  0  2.198306  0  0  -0.21738  -0.317207  0  2.196968  0
O  O89  1  0.32089950  0.61699870  0.08959194  1  0  -0.369684  0  1.999176  0  0  -0.328189  0  2.197361  0  0  -0.344515  0  2.198387  0  0  -0.217396  -0.31718  0  2.197039  0
O  O90  1  0.79321065  0.12676020  0.77165389  1  0  -0.378528  0  1.984513  0  0  -0.34167  0  2.188088  0  0  -0.356096  0  2.186471  0  0  -0.226085  -0.3322  0  2.190332  0
O  O91  1  0.20678398  0.87323935  0.22834829  1  0  -0.3786  0  1.984506  0  0  -0.341715  0  2.188059  0  0  -0.356146  0  2.186457  0  0  -0.226105  -0.332244  0  2.190303  0
O  O92  1  0.62586246  0.48211451  0.63002819  1  0  -0.755134  0  2.301486  0  0  -0.664025  0  2.626191  0  0  -0.690886  0  2.601811  0  0  -0.385492  -0.645374  0  2.641812  0
O  O93  1  0.37414147  0.51788602  0.36997077  1  0  -0.755175  0  2.301504  0  0  -0.664052  0  2.626181  0  0  -0.690911  0  2.601797  0  0  -0.385513  -0.6454  0  2.641803  0
O  O94  1  0.92597346  0.37104235  0.60485363  1  0  -0.734445  0  2.305867  0  0  -0.636267  0  2.620525  0  0  -0.665164  0  2.598861  0  0  -0.379892  -0.615972  0  2.633904  0
O  O95  1  0.07402776  0.62895319  0.39514591  1  0  -0.734474  0  2.305853  0  0  -0.636289  0  2.620508  0  0  -0.665201  0  2.598884  0  0  -0.379896  -0.615995  0  2.633887  0
