# generated using pymatgen
data_ZnH13C21N2O7
_symmetry_space_group_name_H-M   'P 1'
_cell_length_a   7.07721810
_cell_length_b   9.30905670
_cell_length_c   14.49992567
_cell_angle_alpha   108.38168487
_cell_angle_beta   96.06162016
_cell_angle_gamma   92.47678833
_symmetry_Int_Tables_number   1
_chemical_formula_structural   ZnH13C21N2O7
_chemical_formula_sum   'Zn2 H26 C42 N4 O14'
_cell_volume   898.50886159
_cell_formula_units_Z   2
loop_
 _symmetry_equiv_pos_site_id
 _symmetry_equiv_pos_as_xyz
  1  'x, y, z'
loop_
 _atom_site_type_symbol
 _atom_site_label
 _atom_site_symmetry_multiplicity
 _atom_site_fract_x
 _atom_site_fract_y
 _atom_site_fract_z
 _atom_site_occupancy
 _atom_site_hle17_bader_spin_density
 _atom_site_hle17_ddec_charge
 _atom_site_hle17_ddec_spin_density
 _atom_site_hle17_ddec_sum_bond_order
 _atom_site_hle17_magmom
 _atom_site_hse06_10hf_bader_spin_density
 _atom_site_hse06_10hf_ddec_charge
 _atom_site_hse06_10hf_ddec_spin_density
 _atom_site_hse06_10hf_ddec_sum_bond_order
 _atom_site_hse06_10hf_magmom
 _atom_site_hse06_bader_spin_density
 _atom_site_hse06_ddec_charge
 _atom_site_hse06_ddec_spin_density
 _atom_site_hse06_ddec_sum_bond_order
 _atom_site_hse06_magmom
 _atom_site_pbe_bader_spin_density
 _atom_site_pbe_cm5_charge
 _atom_site_pbe_ddec_charge
 _atom_site_pbe_ddec_spin_density
 _atom_site_pbe_ddec_sum_bond_order
 _atom_site_pbe_magmom
Zn  Zn0  1  0.19869025  0.56071274  0.43986906  1  0  1.12141  0  1.79739  0  0  0.936589  0  2.284374  0  0  0.984461  0  2.222854  0  0  0.724792  0.902563  0  2.327481  0
Zn  Zn1  1  0.80131548  0.43929034  0.56013163  1  0  1.121393  0  1.797439  0  0  0.936552  0  2.284434  0  0  0.984413  0  2.222908  0  0  0.724782  0.902527  0  2.327528  0
H  H2  1  0.46194612  0.89980832  0.81023226  1  0  0.395494  0  0.898281  0  0  0.363252  0  0.980198  0  0  0.375952  0  0.966784  0  0  0.298487  0.354392  0  0.989332  0
H  H3  1  0.53805282  0.10018456  0.18976326  1  0  0.395578  0  0.898148  0  0  0.363283  0  0.980172  0  0  0.375982  0  0.966762  0  0  0.298485  0.354428  0  0.989296  0
H  H4  1  0.84137297  0.64659508  0.24554439  1  0  0.106356  0  0.940431  0  0  0.116913  0  0.999594  0  0  0.120854  0  0.996672  0  0  0.106003  0.114042  0  1.00183  0
H  H5  1  0.15861401  0.35341826  0.75446435  1  0  0.106395  0  0.940532  0  0  0.116924  0  0.999699  0  0  0.120872  0  0.996765  0  0  0.105975  0.114059  0  1.001932  0
H  H6  1  0.62760131  0.66299916  0.10191235  1  0  0.089755  0  0.965544  0  0  0.098856  0  1.029705  0  0  0.101239  0  1.029269  0  0  0.099069  0.09719  0  1.030004  0
H  H7  1  0.37238413  0.33701304  0.89809746  1  0  0.089838  0  0.965394  0  0  0.098892  0  1.029623  0  0  0.101276  0  1.029186  0  0  0.099066  0.097225  0  1.029925  0
H  H8  1  0.30665845  0.51732041  0.05598837  1  0  0.107907  0  0.962543  0  0  0.117912  0  1.02575  0  0  0.120577  0  1.025267  0  0  0.106291  0.116395  0  1.025279  0
H  H9  1  0.69333723  0.48268155  0.94401435  1  0  0.107891  0  0.962522  0  0  0.117889  0  1.025744  0  0  0.120555  0  1.025262  0  0  0.106266  0.116372  0  1.025274  0
H  H10  1  0.34498839  0.15528911  0.02180696  1  0  0.126632  0  0.944782  0  0  0.135156  0  1.008325  0  0  0.13896  0  1.006036  0  0  0.110459  0.132293  0  1.010224  0
H  H11  1  0.65500438  0.84469926  0.97818595  1  0  0.1266  0  0.944916  0  0  0.135152  0  1.008428  0  0  0.138955  0  1.006139  0  0  0.11042  0.13229  0  1.01033  0
H  H12  1  0.84514140  0.00749774  0.80855811  1  0  0.114349  0  0.959139  0  0  0.119156  0  1.026929  0  0  0.123735  0  1.023445  0  0  0.103758  0.115869  0  1.029372  0
H  H13  1  0.15485152  0.99250541  0.19143437  1  0  0.114226  0  0.959198  0  0  0.118975  0  1.027082  0  0  0.123557  0  1.023588  0  0  0.103674  0.115673  0  1.029536  0
H  H14  1  0.65749732  0.18952182  0.92202205  1  0  0.093596  0  0.960383  0  0  0.104447  0  1.019614  0  0  0.107451  0  1.018119  0  0  0.099749  0.102224  0  1.020932  0
H  H15  1  0.34250021  0.81048473  0.07796928  1  0  0.093589  0  0.960453  0  0  0.104469  0  1.019656  0  0  0.10747  0  1.01817  0  0  0.09976  0.102245  0  1.02097  0
H  H16  1  0.81722260  0.35507978  0.08674001  1  0  0.108125  0  0.969797  0  0  0.118192  0  1.032448  0  0  0.120683  0  1.032357  0  0  0.10153  0.116347  0  1.032543  0
H  H17  1  0.18277126  0.64491882  0.91325297  1  0  0.108051  0  0.969841  0  0  0.118125  0  1.032489  0  0  0.120617  0  1.032397  0  0  0.101515  0.116278  0  1.032585  0
H  H18  1  0.59843021  0.72806499  0.52580673  1  0  0.108944  0  1.005373  0  0  0.114288  0  1.070788  0  0  0.117692  0  1.067306  0  0  0.137266  0.111751  0  1.073367  0
H  H19  1  0.40158072  0.27193351  0.47419468  1  0  0.108877  0  1.005362  0  0  0.114236  0  1.070769  0  0  0.117628  0  1.067276  0  0  0.137237  0.111713  0  1.073326  0
H  H20  1  0.20304030  0.78847705  0.30402197  1  0  0.109117  0  0.93672  0  0  0.123513  0  0.988012  0  0  0.125282  0  0.988179  0  0  0.124938  0.122203  0  0.9881  0
H  H21  1  0.79696025  0.21153059  0.69598008  1  0  0.109232  0  0.937021  0  0  0.123585  0  0.988348  0  0  0.125361  0  0.988495  0  0  0.124978  0.122267  0  0.98844  0
H  H22  1  0.52909880  0.97319849  0.32309710  1  0  0.133983  0  0.970182  0  0  0.141782  0  1.031131  0  0  0.145103  0  1.028923  0  0  0.128645  0.139081  0  1.033189  0
H  H23  1  0.47090983  0.02681820  0.67690928  1  0  0.134079  0  0.970523  0  0  0.141829  0  1.03147  0  0  0.145149  0  1.029261  0  0  0.1287  0.139129  0  1.033529  0
H  H24  1  0.81982940  0.05665798  0.36078538  1  0  0.118405  0  0.980419  0  0  0.12691  0  1.041784  0  0  0.130004  0  1.040331  0  0  0.108064  0.124683  0  1.042917  0
H  H25  1  0.18017920  0.94334507  0.63921891  1  0  0.118514  0  0.980204  0  0  0.127023  0  1.041553  0  0  0.130114  0  1.040107  0  0  0.108113  0.12479  0  1.042703  0
H  H26  1  0.14262410  0.16443769  0.41545514  1  0  0.123842  0  0.968296  0  0  0.130548  0  1.031281  0  0  0.134443  0  1.028578  0  0  0.110831  0.127637  0  1.033381  0
H  H27  1  0.85738426  0.83556308  0.58454936  1  0  0.12383  0  0.968257  0  0  0.130497  0  1.031297  0  0  0.134389  0  1.028595  0  0  0.11083  0.127587  0  1.033401  0
C  C28  1  0.34637091  0.42333503  0.17385366  1  0  0.248937  0  3.786974  0  0  0.233199  0  4.049762  0  0  0.242299  0  4.065274  0  0  0.086696  0.226887  0  4.039408  0
C  C29  1  0.65362392  0.57665899  0.82614671  1  0  0.24889  0  3.78723  0  0  0.233264  0  4.049916  0  0  0.242365  0  4.065431  0  0  0.086699  0.226915  0  4.039568  0
C  C30  1  0.46485084  0.41289617  0.25497099  1  0  -0.166357  0  3.703355  0  0  -0.162472  0  3.951806  0  0  -0.166932  0  3.969192  0  0  -0.013815  -0.15978  0  3.940377  0
C  C31  1  0.53514670  0.58709670  0.74502790  1  0  -0.166479  0  3.703615  0  0  -0.162585  0  3.952001  0  0  -0.167049  0  3.96939  0  0  -0.013833  -0.159903  0  3.940585  0
C  C32  1  0.64579738  0.49404615  0.28008370  1  0  -0.06575  0  3.72668  0  0  -0.054364  0  3.968562  0  0  -0.060837  0  3.989948  0  0  -0.013354  -0.04997  0  3.954091  0
C  C33  1  0.35420386  0.50595466  0.71991768  1  0  -0.065627  0  3.726479  0  0  -0.054297  0  3.968337  0  0  -0.060765  0  3.989717  0  0  -0.013356  -0.049897  0  3.953863  0
C  C34  1  0.70208388  0.58341346  0.22423053  1  0  -0.070313  0  3.728431  0  0  -0.101411  0  3.988143  0  0  -0.10029  0  4.005172  0  0  -0.087185  -0.102182  0  3.976864  0
C  C35  1  0.29790958  0.41659419  0.77577393  1  0  -0.070414  0  3.728609  0  0  -0.101502  0  3.988321  0  0  -0.100384  0  4.00534  0  0  -0.087169  -0.10228  0  3.977049  0
C  C36  1  0.58235257  0.59149814  0.14366979  1  0  -0.061483  0  3.791093  0  0  -0.073937  0  4.047576  0  0  -0.075263  0  4.067521  0  0  -0.091218  -0.073217  0  4.03431  0
C  C37  1  0.41763841  0.40851292  0.85633662  1  0  -0.061498  0  3.791013  0  0  -0.073894  0  4.047464  0  0  -0.075219  0  4.067407  0  0  -0.091138  -0.073177  0  4.034202  0
C  C38  1  0.40394520  0.51067771  0.11767626  1  0  -0.163481  0  3.749166  0  0  -0.187507  0  4.003208  0  0  -0.190571  0  4.022678  0  0  -0.094231  -0.18539  0  3.99003  0
C  C39  1  0.59605487  0.48932537  0.88232691  1  0  -0.163484  0  3.74921  0  0  -0.187528  0  4.003227  0  0  -0.190596  0  4.022702  0  0  -0.094244  -0.185408  0  3.990057  0
C  C40  1  0.08933389  0.26733875  0.06175570  1  0  0.266417  0  3.793096  0  0  0.259125  0  4.057725  0  0  0.267338  0  4.074666  0  0  0.08277  0.253502  0  4.045022  0
C  C41  1  0.91065961  0.73265643  0.93823863  1  0  0.266282  0  3.792984  0  0  0.259002  0  4.057674  0  0  0.267216  0  4.074613  0  0  0.082712  0.253348  0  4.044968  0
C  C42  1  0.19619000  0.16670552  0.99894613  1  0  -0.190588  0  3.717161  0  0  -0.222984  0  3.968163  0  0  -0.225971  0  3.988218  0  0  -0.094896  -0.220456  0  3.954408  0
C  C43  1  0.80379924  0.83328967  0.00104799  1  0  -0.19059  0  3.717303  0  0  -0.222979  0  3.968252  0  0  -0.225964  0  3.988301  0  0  -0.094869  -0.22046  0  3.954516  0
C  C44  1  0.10611280  0.07403322  0.90732861  1  0  -0.056139  0  3.797164  0  0  -0.029676  0  4.026458  0  0  -0.0373  0  4.051842  0  0  -0.01929  -0.0253  0  4.00984  0
C  C45  1  0.89387810  0.92596424  0.09266467  1  0  -0.056266  0  3.797471  0  0  -0.029792  0  4.026781  0  0  -0.037418  0  4.052165  0  0  -0.01937  -0.025414  0  4.010165  0
C  C46  1  0.91261897  0.08360778  0.87915377  1  0  -0.086754  0  3.724607  0  0  -0.11609  0  3.9764  0  0  -0.116486  0  3.996125  0  0  -0.090861  -0.115729  0  3.963513  0
C  C47  1  0.08736932  0.91639197  0.12083778  1  0  -0.086428  0  3.724478  0  0  -0.115718  0  3.976272  0  0  -0.116107  0  3.995994  0  0  -0.090654  -0.115342  0  3.963383  0
C  C48  1  0.80896368  0.18519331  0.94301285  1  0  -0.050577  0  3.772805  0  0  -0.061136  0  4.025417  0  0  -0.063028  0  4.046003  0  0  -0.091793  -0.059946  0  4.011453  0
C  C49  1  0.19103314  0.81480641  0.05697981  1  0  -0.050661  0  3.772711  0  0  -0.06126  0  4.025354  0  0  -0.063153  0  4.045937  0  0  -0.091827  -0.060067  0  4.011377  0
C  C50  1  0.89641496  0.27742989  0.03470902  1  0  -0.159471  0  3.725481  0  0  -0.185753  0  3.978581  0  0  -0.18841  0  3.997544  0  0  -0.097138  -0.183287  0  3.963881  0
C  C51  1  0.10358033  0.72256869  0.96528540  1  0  -0.159265  0  3.72536  0  0  -0.185536  0  3.978481  0  0  -0.188193  0  3.997446  0  0  -0.097106  -0.183076  0  3.963789  0
C  C52  1  0.38958989  0.30838387  0.30635212  1  0  0.722039  0  3.848619  0  0  0.653979  0  4.169241  0  0  0.691089  0  4.156074  0  0  0.23102  0.628549  0  4.177552  0
C  C53  1  0.61041643  0.69161125  0.69364836  1  0  0.722194  0  3.848418  0  0  0.654145  0  4.16902  0  0  0.691252  0  4.155853  0  0  0.231003  0.628727  0  4.177313  0
C  C54  1  0.77989322  0.49128139  0.36651318  1  0  0.697528  0  3.84929  0  0  0.641073  0  4.143198  0  0  0.677678  0  4.133031  0  0  0.232628  0.616114  0  4.149109  0
C  C55  1  0.22010623  0.50871602  0.63348811  1  0  0.697456  0  3.849598  0  0  0.641141  0  4.143289  0  0  0.677749  0  4.133119  0  0  0.232594  0.616184  0  4.149196  0
C  C56  1  0.21021392  0.95970115  0.83846595  1  0  0.627146  0  3.846306  0  0  0.580317  0  4.144267  0  0  0.612269  0  4.136425  0  0  0.221302  0.558757  0  4.14896  0
C  C57  1  0.78978288  0.04028492  0.16152945  1  0  0.627067  0  3.845909  0  0  0.580191  0  4.14393  0  0  0.612144  0  4.136093  0  0  0.221345  0.558617  0  4.148637  0
C  C58  1  0.53433164  0.76847186  0.46812810  1  0  0.173312  0  3.612235  0  0  0.110051  0  3.881967  0  0  0.123985  0  3.894254  0  0  0.143662  0.100908  0  3.873438  0
C  C59  1  0.46567929  0.23152665  0.53187261  1  0  0.173173  0  3.612536  0  0  0.109892  0  3.882313  0  0  0.123847  0  3.894586  0  0  0.143542  0.100741  0  3.873772  0
C  C60  1  0.33496552  0.80194167  0.35219176  1  0  0.023645  0  3.731819  0  0  -0.009445  0  3.995472  0  0  -0.00802  0  4.017599  0  0  0.007348  -0.011082  0  3.981071  0
C  C61  1  0.66506596  0.19807607  0.64781736  1  0  0.02362  0  3.731272  0  0  -0.00943  0  3.994885  0  0  -0.008005  0  4.017016  0  0  0.007424  -0.011056  0  3.980482  0
C  C62  1  0.49774118  0.89232677  0.36010543  1  0  -0.050625  0  3.625918  0  0  -0.092886  0  3.889268  0  0  -0.091818  0  3.907542  0  0  0.007904  -0.093166  0  3.877285  0
C  C63  1  0.50225097  0.10766836  0.63990330  1  0  -0.050808  0  3.625508  0  0  -0.093017  0  3.888868  0  0  -0.091947  0  3.907139  0  0  0.007763  -0.093299  0  3.876893  0
C  C64  1  0.81388222  0.93569292  0.46729211  1  0  0.173101  0  3.783192  0  0  0.163277  0  4.031314  0  0  0.168006  0  4.054947  0  0  0.091441  0.159934  0  4.015181  0
C  C65  1  0.18613146  0.06430443  0.53271264  1  0  0.172989  0  3.783143  0  0  0.163457  0  4.030921  0  0  0.168207  0  4.054525  0  0  0.091527  0.16008  0  4.014834  0
C  C66  1  0.89615433  0.02980758  0.42167495  1  0  -0.135967  0  3.734798  0  0  -0.157138  0  3.987121  0  0  -0.16048  0  4.00768  0  0  -0.091088  -0.154799  0  3.973016  0
C  C67  1  0.10385662  0.97019092  0.57832714  1  0  -0.136184  0  3.734826  0  0  -0.157433  0  3.987057  0  0  -0.160781  0  4.007607  0  0  -0.091214  -0.155082  0  3.972975  0
C  C68  1  0.08209186  0.09371409  0.45395643  1  0  -0.132637  0  3.729549  0  0  -0.152269  0  3.983538  0  0  -0.155944  0  4.004178  0  0  -0.088106  -0.149438  0  3.969481  0
C  C69  1  0.91791779  0.90628555  0.54604652  1  0  -0.132464  0  3.729507  0  0  -0.152008  0  3.983653  0  0  -0.155654  0  4.004264  0  0  -0.088025  -0.149179  0  3.969565  0
N  N70  1  0.35967614  0.72565178  0.41993820  1  0  -0.410401  0  3.339206  0  0  -0.327693  0  3.644333  0  0  -0.349566  0  3.658114  0  0  -0.363562  -0.312611  0  3.634959  0
N  N71  1  0.64032650  0.27434903  0.58006119  1  0  -0.41032  0  3.339395  0  0  -0.327626  0  3.644519  0  0  -0.349504  0  3.658305  0  0  -0.363525  -0.312539  0  3.635128  0
N  N72  1  0.62360376  0.86982961  0.43378515  1  0  -0.084572  0  3.592211  0  0  0.00482  0  3.803112  0  0  -0.010115  0  3.829854  0  0  -0.219336  0.014645  0  3.784975  0
N  N73  1  0.37640531  0.13017799  0.56621664  1  0  -0.084375  0  3.59212  0  0  0.004916  0  3.802932  0  0  -0.010023  0  3.829665  0  0  -0.219275  0.014748  0  3.784809  0
O  O74  1  0.28554619  0.35942903  0.37524098  1  0  -0.650166  0  2.102179  0  0  -0.569889  0  2.383817  0  0  -0.600108  0  2.365194  0  0  -0.315077  -0.548534  0  2.396217  0
O  O75  1  0.71446512  0.64057287  0.62476390  1  0  -0.650182  0  2.102112  0  0  -0.569894  0  2.38374  0  0  -0.600093  0  2.365096  0  0  -0.315026  -0.548547  0  2.396136  0
O  O76  1  0.42358823  0.17127343  0.27671692  1  0  -0.585827  0  1.986477  0  0  -0.528914  0  2.214991  0  0  -0.554834  0  2.204871  0  0  -0.287396  -0.510395  0  2.221217  0
O  O77  1  0.57641302  0.82872737  0.72328653  1  0  -0.585863  0  1.986255  0  0  -0.529006  0  2.214773  0  0  -0.554929  0  2.204657  0  0  -0.287385  -0.510488  0  2.221  0
O  O78  1  0.94110953  0.56661480  0.38050913  1  0  -0.646644  0  2.110298  0  0  -0.573567  0  2.402625  0  0  -0.600691  0  2.38207  0  0  -0.315591  -0.554452  0  2.41611  0
O  O79  1  0.05889652  0.43337805  0.61948880  1  0  -0.646566  0  2.110418  0  0  -0.573505  0  2.402653  0  0  -0.600626  0  2.3821  0  0  -0.31553  -0.55439  0  2.416133  0
O  O80  1  0.72244818  0.41942540  0.42123688  1  0  -0.632897  0  2.099799  0  0  -0.555627  0  2.379739  0  0  -0.583694  0  2.362152  0  0  -0.303374  -0.536121  0  2.391273  0
O  O81  1  0.27755152  0.58057428  0.57876489  1  0  -0.632944  0  2.100062  0  0  -0.555721  0  2.379905  0  0  -0.583809  0  2.362338  0  0  -0.303393  -0.536216  0  2.391441  0
O  O82  1  0.16485498  0.35216966  0.15675898  1  0  -0.288922  0  2.352999  0  0  -0.21992  0  2.575586  0  0  -0.237311  0  2.578427  0  0  -0.151995  -0.207645  0  2.573214  0
O  O83  1  0.83514478  0.64781754  0.84323542  1  0  -0.288806  0  2.352966  0  0  -0.219952  0  2.575635  0  0  -0.237344  0  2.578476  0  0  -0.151982  -0.207577  0  2.573191  0
O  O84  1  0.13021561  0.86565421  0.76248089  1  0  -0.535007  0  1.91862  0  0  -0.495528  0  2.130519  0  0  -0.513983  0  2.123272  0  0  -0.293337  -0.482951  0  2.135194  0
O  O85  1  0.86977764  0.13432503  0.23751846  1  0  -0.53489  0  1.918449  0  0  -0.495371  0  2.130349  0  0  -0.513817  0  2.123084  0  0  -0.293357  -0.482793  0  2.135028  0
O  O86  1  0.39857157  0.97081592  0.86617285  1  0  -0.565529  0  2.08912  0  0  -0.515254  0  2.313066  0  0  -0.537575  0  2.298982  0  0  -0.342077  -0.499622  0  2.322005  0
O  O87  1  0.60141377  0.02918270  0.13382108  1  0  -0.565584  0  2.088671  0  0  -0.515282  0  2.312687  0  0  -0.537603  0  2.298611  0  0  -0.342068  -0.499647  0  2.321621  0
