# generated using pymatgen
data_NiH8(CO2)4
_symmetry_space_group_name_H-M   'P 1'
_cell_length_a   6.67427157
_cell_length_b   7.99838746
_cell_length_c   7.99860497
_cell_angle_alpha   111.90211748
_cell_angle_beta   95.60144471
_cell_angle_gamma   95.60072369
_symmetry_Int_Tables_number   1
_chemical_formula_structural   NiH8(CO2)4
_chemical_formula_sum   'Ni2 H16 C8 O16'
_cell_volume   390.10775474
_cell_formula_units_Z   2
loop_
 _symmetry_equiv_pos_site_id
 _symmetry_equiv_pos_as_xyz
  1  'x, y, z'
loop_
 _atom_site_type_symbol
 _atom_site_label
 _atom_site_symmetry_multiplicity
 _atom_site_fract_x
 _atom_site_fract_y
 _atom_site_fract_z
 _atom_site_occupancy
 _atom_site_pbe_cm5_charge
 _atom_site_pbe_ddec_charge
 _atom_site_pbe_ddec_spin_density
 _atom_site_pbe_ddec_sum_bond_order
 _atom_site_pbe_magmom
Ni  Ni0  1  0.99999643  0.99999828  0.49999937  1  0.623512  0.995543  1.802171  2.205209  1.619
Ni  Ni1  1  0.50000156  0.50000276  0.00000169  1  0.623491  0.995581  1.80215  2.205142  1.619
H  H2  1  0.95018211  0.28066726  0.40608056  1  0.290294  0.37568  0.000412  0.96593  0.0
H  H3  1  0.54981589  0.59392124  0.71933324  1  0.29028  0.375644  0.000412  0.965983  0.0
H  H4  1  0.04981645  0.71933199  0.59391981  1  0.290296  0.375663  0.000412  0.965951  0.0
H  H5  1  0.45018892  0.40607940  0.28066939  1  0.290303  0.375715  0.000412  0.965875  0.0
H  H6  1  0.75858380  0.22843153  0.48494676  1  0.306925  0.392803  7.3e-05  0.920072  0.0
H  H7  1  0.74141364  0.51505400  0.77156811  1  0.306921  0.392801  7.3e-05  0.920075  0.0
H  H8  1  0.24141692  0.77157181  0.51505781  1  0.306937  0.392829  7.3e-05  0.920016  0.0
H  H9  1  0.25859157  0.48494936  0.22842808  1  0.30693  0.3928  7.2e-05  0.919993  0.0
H  H10  1  0.61749351  0.84592729  0.34992056  1  0.299038  0.394841  0.000716  0.939348  0.001
H  H11  1  0.88249707  0.65007816  0.15406171  1  0.299026  0.394803  0.000716  0.939419  0.001
H  H12  1  0.38249711  0.15405967  0.65007459  1  0.299051  0.39487  0.000717  0.939345  0.001
H  H13  1  0.11749891  0.34992379  0.84593822  1  0.299082  0.394901  0.000716  0.939325  0.001
H  H14  1  0.62794917  0.86121720  0.55657025  1  0.29629  0.392529  0.001082  0.93776  0.002
H  H15  1  0.87204830  0.44342766  0.13877574  1  0.296289  0.392565  0.001082  0.937713  0.002
H  H16  1  0.37204769  0.13878068  0.44343197  1  0.296285  0.392514  0.001082  0.93775  0.002
H  H17  1  0.12795305  0.55657024  0.86122185  1  0.296271  0.392477  0.001082  0.937788  0.002
C  C18  1  0.99378599  0.94862584  0.10173785  1  0.101395  0.161407  -0.003121  4.129516  -0.002
C  C19  1  0.50620900  0.89824674  0.05137280  1  0.101621  0.161916  -0.003122  4.129421  -0.002
C  C20  1  0.00620853  0.05137610  0.89827571  1  0.101273  0.161412  -0.003118  4.129511  -0.002
C  C21  1  0.49378597  0.10172935  0.94862738  1  0.10128  0.161338  -0.003112  4.129598  -0.002
C  C22  1  0.99963981  0.86831865  0.90420039  1  0.101607  0.150806  0.00513  4.147448  0.008
C  C23  1  0.50037824  0.09582202  0.13168574  1  0.101595  0.15079  0.005134  4.147513  0.008
C  C24  1  0.00036090  0.13168469  0.09580043  1  0.101565  0.150742  0.005129  4.147798  0.008
C  C25  1  0.49965512  0.90419781  0.86830883  1  0.101525  0.150575  0.005133  4.147876  0.008
O  O26  1  0.98587738  0.87994234  0.22000915  1  -0.277207  -0.410591  0.031489  2.47912  0.054
O  O27  1  0.51412661  0.78000522  0.12004929  1  -0.277303  -0.410858  0.031475  2.47987  0.054
O  O28  1  0.01411364  0.12005688  0.77998562  1  -0.277179  -0.410665  0.0315  2.478809  0.054
O  O29  1  0.48588154  0.22001723  0.87993801  1  -0.277272  -0.410759  0.031512  2.478957  0.055
O  O30  1  0.00054354  0.70866075  0.79006130  1  -0.279904  -0.418423  0.00244  2.317308  0.003
O  O31  1  0.49945258  0.20993084  0.29132677  1  -0.279887  -0.418437  0.002442  2.317777  0.003
O  O32  1  0.99944385  0.29133436  0.20994164  1  -0.27985  -0.418364  0.00244  2.317564  0.003
O  O33  1  0.50055889  0.79006439  0.70866687  1  -0.279848  -0.418308  0.002441  2.317844  0.003
O  O34  1  0.90771061  0.24893458  0.50896007  1  -0.56676  -0.745094  0.03335  2.135251  0.054
O  O35  1  0.59228832  0.49103901  0.75106245  1  -0.566764  -0.745087  0.03335  2.135184  0.054
O  O36  1  0.09229076  0.75106332  0.49104252  1  -0.56678  -0.745111  0.03335  2.135223  0.054
O  O37  1  0.40771692  0.50896435  0.24894249  1  -0.566786  -0.745153  0.033349  2.134973  0.054
O  O38  1  0.69502001  0.90743826  0.47408536  1  -0.583362  -0.791653  0.02734  2.192941  0.045
O  O39  1  0.80497640  0.52591467  0.09255693  1  -0.58337  -0.791706  0.027341  2.193065  0.045
O  O40  1  0.30497105  0.09256095  0.52592315  1  -0.583403  -0.791677  0.02734  2.193056  0.045
O  O41  1  0.19502283  0.47407914  0.90744396  1  -0.583407  -0.791659  0.02734  2.19317  0.045
