# generated using pymatgen
data_Dy2H8C10S(N2O7)2
_symmetry_space_group_name_H-M   'P 1'
_cell_length_a   6.63017745
_cell_length_b   11.03265016
_cell_length_c   13.06041455
_cell_angle_alpha   106.41373598
_cell_angle_beta   89.97365213
_cell_angle_gamma   107.47954371
_symmetry_Int_Tables_number   1
_chemical_formula_structural   Dy2H8C10S(N2O7)2
_chemical_formula_sum   'Dy4 H16 C20 S2 N8 O28'
_cell_volume   870.37043441
_cell_formula_units_Z   2
loop_
 _symmetry_equiv_pos_site_id
 _symmetry_equiv_pos_as_xyz
  1  'x, y, z'
loop_
 _atom_site_type_symbol
 _atom_site_label
 _atom_site_symmetry_multiplicity
 _atom_site_fract_x
 _atom_site_fract_y
 _atom_site_fract_z
 _atom_site_occupancy
 _atom_site_hle17_bader_spin_density
 _atom_site_hle17_ddec_charge
 _atom_site_hle17_ddec_spin_density
 _atom_site_hle17_ddec_sum_bond_order
 _atom_site_hle17_magmom
 _atom_site_hse06_10hf_bader_spin_density
 _atom_site_hse06_10hf_ddec_charge
 _atom_site_hse06_10hf_ddec_spin_density
 _atom_site_hse06_10hf_ddec_sum_bond_order
 _atom_site_hse06_10hf_magmom
 _atom_site_hse06_bader_spin_density
 _atom_site_hse06_ddec_charge
 _atom_site_hse06_ddec_spin_density
 _atom_site_hse06_ddec_sum_bond_order
 _atom_site_hse06_magmom
 _atom_site_pbe_bader_spin_density
 _atom_site_pbe_cm5_charge
 _atom_site_pbe_ddec_charge
 _atom_site_pbe_ddec_spin_density
 _atom_site_pbe_ddec_sum_bond_order
 _atom_site_pbe_magmom
Dy  Dy0  1  0.77926346  0.70509911  0.71454551  1  0  2.247574  0  1.687393  0  0  2.099818  0  2.164551  0  0  2.220495  0  1.981041  0  0  1.553579  2.064811  0  2.196308  0
Dy  Dy1  1  0.07457420  0.29496594  0.78545899  1  0  2.247903  0  1.68732  0  0  2.100657  0  2.16384  0  0  2.220831  0  1.981025  0  0  1.553706  2.065939  0  2.195272  0
Dy  Dy2  1  0.22073755  0.29490330  0.28545499  1  0  2.247546  0  1.687415  0  0  2.099772  0  2.164601  0  0  2.220469  0  1.98106  0  0  1.553568  2.064789  0  2.196355  0
Dy  Dy3  1  0.92542532  0.70503349  0.21454004  1  0  2.247925  0  1.687416  0  0  2.100661  0  2.163923  0  0  2.220827  0  1.981128  0  0  1.55369  2.065939  0  2.195387  0
H  H4  1  0.36821290  0.88634302  0.86737426  1  0  0.111865  0  0.916477  0  0  0.122071  0  0.974238  0  0  0.124983  0  0.970732  0  0  0.146373  0.120054  0  0.976334  0
H  H5  1  0.48211413  0.11355422  0.63260452  1  0  0.112994  0  0.916204  0  0  0.123158  0  0.973653  0  0  0.126102  0  0.970141  0  0  0.146611  0.121145  0  0.975767  0
H  H6  1  0.63179063  0.11365840  0.13262754  1  0  0.111829  0  0.916478  0  0  0.122044  0  0.974226  0  0  0.124956  0  0.970721  0  0  0.146383  0.120032  0  0.976325  0
H  H7  1  0.51788440  0.88644321  0.36739250  1  0  0.113026  0  0.916308  0  0  0.123218  0  0.973706  0  0  0.126161  0  0.970196  0  0  0.146652  0.121209  0  0.975824  0
H  H8  1  0.25087675  0.84731403  0.04626275  1  0  0.337799  0  0.867821  0  0  0.318838  0  0.925914  0  0  0.327027  0  0.919337  0  0  0.334268  0.313083  0  0.93057  0
H  H9  1  0.40404072  0.15250080  0.45369347  1  0  0.336654  0  0.868157  0  0  0.318673  0  0.924947  0  0  0.326873  0  0.918371  0  0  0.334364  0.312922  0  0.92961  0
H  H10  1  0.74912980  0.15268738  0.95373828  1  0  0.337847  0  0.867741  0  0  0.318874  0  0.925831  0  0  0.327064  0  0.91925  0  0  0.334294  0.313119  0  0.930484  0
H  H11  1  0.59596031  0.84749862  0.54630555  1  0  0.336688  0  0.868096  0  0  0.318687  0  0.924892  0  0  0.326886  0  0.918317  0  0  0.334372  0.312934  0  0.929557  0
H  H12  1  0.48263643  0.43309991  0.64517528  1  0  0.448027  0  0.84775  0  0  0.416935  0  0.911037  0  0  0.429098  0  0.893562  0  0  0.306929  0.408423  0  0.923457  0
H  H13  1  0.04974952  0.56705510  0.85483341  1  0  0.447301  0  0.848891  0  0  0.416146  0  0.912074  0  0  0.428329  0  0.894616  0  0  0.306755  0.407586  0  0.924558  0
H  H14  1  0.51736159  0.56689952  0.35482528  1  0  0.448025  0  0.847758  0  0  0.416909  0  0.911079  0  0  0.429074  0  0.8936  0  0  0.306923  0.408396  0  0.9235  0
H  H15  1  0.95025201  0.43294533  0.14516662  1  0  0.447284  0  0.848917  0  0  0.416129  0  0.912101  0  0  0.428313  0  0.894641  0  0  0.306737  0.40757  0  0.924583  0
H  H16  1  0.62174565  0.43832219  0.74086741  1  0  0.44038  0  0.849748  0  0  0.408809  0  0.918886  0  0  0.420041  0  0.902668  0  0  0.311278  0.400817  0  0.930705  0
H  H17  1  0.18394432  0.56170739  0.75918858  1  0  0.439747  0  0.849214  0  0  0.408043  0  0.919806  0  0  0.419279  0  0.903527  0  0  0.31103  0.400135  0  0.931513  0
H  H18  1  0.37825487  0.56167922  0.25913362  1  0  0.440379  0  0.849761  0  0  0.408805  0  0.918891  0  0  0.420037  0  0.902675  0  0  0.311272  0.400813  0  0.930711  0
H  H19  1  0.81606122  0.43829503  0.24081345  1  0  0.439783  0  0.849231  0  0  0.408063  0  0.919804  0  0  0.4193  0  0.903522  0  0  0.311045  0.400154  0  0.931513  0
C  C20  1  0.63456311  0.73792974  0.96669128  1  0  0.002545  0  3.759781  0  0  -0.00389  0  4.021232  0  0  -0.006409  0  4.04362  0  0  0.092851  -0.002751  0  4.0091  0
C  C21  1  0.89691755  0.26223886  0.53334217  1  0  0.002757  0  3.76055  0  0  -0.00292  0  4.021347  0  0  -0.005415  0  4.043649  0  0  0.093009  -0.001717  0  4.009182  0
C  C22  1  0.36543792  0.26206969  0.03330851  1  0  0.002498  0  3.759598  0  0  -0.003919  0  4.021182  0  0  -0.006447  0  4.043586  0  0  0.092868  -0.00279  0  4.009051  0
C  C23  1  0.10308047  0.73776057  0.46665762  1  0  0.002743  0  3.760461  0  0  -0.002924  0  4.021221  0  0  -0.005414  0  4.043528  0  0  0.092984  -0.001727  0  4.009055  0
C  C24  1  0.80074926  0.67264094  0.95656835  1  0  0.709274  0  3.878581  0  0  0.659109  0  4.172752  0  0  0.695407  0  4.163958  0  0  0.241745  0.634758  0  4.181024  0
C  C25  1  0.12831670  0.32762837  0.54344922  1  0  0.708166  0  3.879257  0  0  0.656969  0  4.174783  0  0  0.693258  0  4.166038  0  0  0.240547  0.632563  0  4.183054  0
C  C26  1  0.19924424  0.32735549  0.04342384  1  0  0.70974  0  3.877865  0  0  0.659366  0  4.172386  0  0  0.695664  0  4.16359  0  0  0.241849  0.635017  0  4.18066  0
C  C27  1  0.87167782  0.67236709  0.45655575  1  0  0.708203  0  3.879608  0  0  0.657011  0  4.175052  0  0  0.693288  0  4.166326  0  0  0.240604  0.632607  0  4.183326  0
C  C28  1  0.43910008  0.83810335  0.91255061  1  0  0.288332  0  3.598501  0  0  0.224752  0  3.886505  0  0  0.240154  0  3.896114  0  0  0.171932  0.215057  0  3.880504  0
C  C29  1  0.60130250  0.16186770  0.58744518  1  0  0.286266  0  3.599715  0  0  0.222998  0  3.88747  0  0  0.238383  0  3.897121  0  0  0.171576  0.213217  0  3.881809  0
C  C30  1  0.56090246  0.16189608  0.08744918  1  0  0.28853  0  3.598432  0  0  0.224925  0  3.886412  0  0  0.240329  0  3.896017  0  0  0.171979  0.215225  0  3.880429  0
C  C31  1  0.39870004  0.83813172  0.41255231  1  0  0.286196  0  3.599635  0  0  0.222883  0  3.887382  0  0  0.238264  0  3.897035  0  0  0.171539  0.213092  0  3.881738  0
C  C32  1  0.42796996  0.69651719  0.13221054  1  0  0.722808  0  3.876519  0  0  0.675815  0  4.167507  0  0  0.713044  0  4.156405  0  0  0.247682  0.651326  0  4.175575  0
C  C33  1  0.73188950  0.30328399  0.36769247  1  0  0.723577  0  3.878144  0  0  0.676191  0  4.169459  0  0  0.71343  0  4.158344  0  0  0.247693  0.651661  0  4.177542  0
C  C34  1  0.57202855  0.30348323  0.86778872  1  0  0.722895  0  3.876536  0  0  0.675875  0  4.167588  0  0  0.713105  0  4.156485  0  0  0.247729  0.651377  0  4.17565  0
C  C35  1  0.26810750  0.69671644  0.63230909  1  0  0.72368  0  3.878106  0  0  0.676294  0  4.169405  0  0  0.713534  0  4.158286  0  0  0.24771  0.651756  0  4.177484  0
C  C36  1  0.48772343  0.75248778  0.04190325  1  0  0.023358  0  3.630723  0  0  0.00761  0  3.88643  0  0  0.006948  0  3.901858  0  0  0.105788  0.008154  0  3.875249  0
C  C37  1  0.73565171  0.24743421  0.45805943  1  0  0.023804  0  3.633448  0  0  0.008631  0  3.888449  0  0  0.008053  0  3.903798  0  0  0.106592  0.009197  0  3.877137  0
C  C38  1  0.51228161  0.24751364  0.95809855  1  0  0.023352  0  3.630818  0  0  0.007583  0  3.886562  0  0  0.006921  0  3.901997  0  0  0.105781  0.008148  0  3.875352  0
C  C39  1  0.26434930  0.75256820  0.54194031  1  0  0.02374  0  3.633568  0  0  0.008548  0  3.888525  0  0  0.007965  0  3.903883  0  0  0.106576  0.009122  0  3.877197  0
S  S40  1  0.97686235  0.00000455  0.74993525  1  0  1.547929  0  5.94741  0  0  1.437029  0  6.488346  0  0  1.489092  0  6.471934  0  0  0.520374  1.39886  0  6.512711  0
S  S41  1  0.02313465  0.99999587  0.25006478  1  0  1.547833  0  5.947482  0  0  1.436927  0  6.48843  0  0  1.488988  0  6.472023  0  0  0.520279  1.398761  0  6.512798  0
N  N42  1  0.59982996  0.78971150  0.88606623  1  0  -0.489371  0  3.16068  0  0  -0.448308  0  3.449507  0  0  -0.472554  0  3.465169  0  0  -0.385191  -0.438014  0  3.439564  0
N  N43  1  0.81034979  0.21042799  0.61397357  1  0  -0.488748  0  3.158848  0  0  -0.448028  0  3.44739  0  0  -0.472204  0  3.462989  0  0  -0.384956  -0.437809  0  3.437748  0
N  N44  1  0.40017509  0.21028992  0.11393557  1  0  -0.489491  0  3.160696  0  0  -0.448408  0  3.449528  0  0  -0.472655  0  3.465191  0  0  -0.385234  -0.438121  0  3.439606  0
N  N45  1  0.18964723  0.78956944  0.38602575  1  0  -0.48866  0  3.158747  0  0  -0.447972  0  3.447322  0  0  -0.472144  0  3.46292  0  0  -0.384933  -0.437757  0  3.437696  0
N  N46  1  0.36801018  0.81691723  0.00526049  1  0  -0.27817  0  3.381614  0  0  -0.215449  0  3.61848  0  0  -0.229821  0  3.629501  0  0  -0.352558  -0.205457  0  3.609798  0
N  N47  1  0.55149659  0.18293500  0.49469088  1  0  -0.277123  0  3.38353  0  0  -0.215417  0  3.619475  0  0  -0.229903  0  3.630639  0  0  -0.352858  -0.205438  0  3.610858  0
N  N48  1  0.63198984  0.18308320  0.99474107  1  0  -0.278339  0  3.381738  0  0  -0.215537  0  3.618555  0  0  -0.229906  0  3.629575  0  0  -0.352582  -0.205544  0  3.609866  0
N  N49  1  0.44849841  0.81706443  0.50530738  1  0  -0.277164  0  3.383561  0  0  -0.215373  0  3.619427  0  0  -0.229857  0  3.6306  0  0  -0.352876  -0.205381  0  3.610794  0
O  O50  1  0.88036308  0.65529824  0.86576419  1  0  -0.721217  0  2.079407  0  0  -0.657463  0  2.322192  0  0  -0.692792  0  2.307858  0  0  -0.381021  -0.638787  0  2.329718  0
O  O51  1  0.22510279  0.34493566  0.63424906  1  0  -0.72123  0  2.078955  0  0  -0.657964  0  2.32342  0  0  -0.693139  0  2.308874  0  0  -0.381111  -0.639381  0  2.330965  0
O  O52  1  0.11963444  0.34470020  0.13423689  1  0  -0.721337  0  2.07891  0  0  -0.657533  0  2.321855  0  0  -0.69287  0  2.307519  0  0  -0.381037  -0.638862  0  2.329387  0
O  O53  1  0.77489272  0.65506178  0.36574720  1  0  -0.72143  0  2.078985  0  0  -0.65804  0  2.323319  0  0  -0.693221  0  2.308786  0  0  -0.38118  -0.639438  0  2.330818  0
O  O54  1  0.05810594  0.91666251  0.80039223  1  0  -0.76395  0  1.942786  0  0  -0.721194  0  2.198342  0  0  -0.75011  0  2.183009  0  0  -0.397461  -0.706165  0  2.208752  0
O  O55  1  0.14188739  0.08340447  0.69968603  1  0  -0.76404  0  1.943042  0  0  -0.721322  0  2.198671  0  0  -0.750207  0  2.183376  0  0  -0.397098  -0.706215  0  2.208917  0
O  O56  1  0.94188754  0.08333991  0.19961134  1  0  -0.763956  0  1.942832  0  0  -0.721206  0  2.198407  0  0  -0.750122  0  2.183076  0  0  -0.397431  -0.706164  0  2.208808  0
O  O57  1  0.85811414  0.91659595  0.30031629  1  0  -0.764022  0  1.943065  0  0  -0.721313  0  2.198686  0  0  -0.750207  0  2.183417  0  0  -0.397087  -0.7062  0  2.208934  0
O  O58  1  0.79926565  0.90351149  0.66893302  1  0  -0.804132  0  2.012413  0  0  -0.753777  0  2.271964  0  0  -0.783398  0  2.256326  0  0  -0.41595  -0.738508  0  2.283136  0
O  O59  1  0.89521543  0.09646721  0.83074854  1  0  -0.804527  0  2.013183  0  0  -0.753559  0  2.272349  0  0  -0.783102  0  2.256698  0  0  -0.41555  -0.73833  0  2.283465  0
O  O60  1  0.20073790  0.09648694  0.33106500  1  0  -0.804111  0  2.012463  0  0  -0.753724  0  2.271968  0  0  -0.783349  0  2.256334  0  0  -0.415931  -0.738455  0  2.283138  0
O  O61  1  0.10478007  0.90353321  0.16924919  1  0  -0.804501  0  2.013148  0  0  -0.753534  0  2.272322  0  0  -0.783073  0  2.256672  0  0  -0.415486  -0.738299  0  2.283439  0
O  O62  1  0.86154481  0.63697561  0.03124239  1  0  -0.686908  0  2.051877  0  0  -0.640818  0  2.307458  0  0  -0.674128  0  2.291409  0  0  -0.393996  -0.6245  0  2.3152  0
O  O63  1  0.22489874  0.36334148  0.46881169  1  0  -0.6858  0  2.051983  0  0  -0.639135  0  2.307686  0  0  -0.672539  0  2.291753  0  0  -0.393115  -0.622707  0  2.31533  0
O  O64  1  0.13845675  0.36301885  0.96876158  1  0  -0.687136  0  2.05192  0  0  -0.640964  0  2.307621  0  0  -0.67427  0  2.291564  0  0  -0.394084  -0.624648  0  2.315363  0
O  O65  1  0.77510529  0.63666092  0.53118345  1  0  -0.685692  0  2.052515  0  0  -0.639079  0  2.308242  0  0  -0.672468  0  2.292313  0  0  -0.393041  -0.622652  0  2.315882  0
O  O66  1  0.24089705  0.68183156  0.15911057  1  0  -0.726603  0  2.087603  0  0  -0.676343  0  2.350643  0  0  -0.711681  0  2.333154  0  0  -0.40611  -0.658777  0  2.358545  0
O  O67  1  0.55933891  0.31770177  0.34071597  1  0  -0.726977  0  2.085685  0  0  -0.676496  0  2.348894  0  0  -0.712024  0  2.331549  0  0  -0.405913  -0.658948  0  2.356791  0
O  O68  1  0.75910144  0.31817185  0.84088940  1  0  -0.726642  0  2.08758  0  0  -0.676364  0  2.350625  0  0  -0.711708  0  2.333144  0  0  -0.406109  -0.658802  0  2.358523  0
O  O69  1  0.44066110  0.68230164  0.65928554  1  0  -0.726984  0  2.085632  0  0  -0.676531  0  2.348896  0  0  -0.712055  0  2.33155  0  0  -0.405907  -0.658981  0  2.356789  0
O  O70  1  0.56129278  0.66123275  0.17746491  1  0  -0.728227  0  2.072478  0  0  -0.672152  0  2.323195  0  0  -0.708048  0  2.30792  0  0  -0.382998  -0.653867  0  2.330399  0
O  O71  1  0.90054526  0.33873789  0.32249860  1  0  -0.728582  0  2.075029  0  0  -0.672402  0  2.326182  0  0  -0.708411  0  2.310897  0  0  -0.383252  -0.654139  0  2.333515  0
O  O72  1  0.43870676  0.33876370  0.82253570  1  0  -0.728278  0  2.072637  0  0  -0.672189  0  2.323364  0  0  -0.708087  0  2.308089  0  0  -0.383062  -0.653898  0  2.330546  0
O  O73  1  0.09945726  0.66126452  0.67750114  1  0  -0.728691  0  2.075113  0  0  -0.67252  0  2.326269  0  0  -0.708525  0  2.310982  0  0  -0.383295  -0.654254  0  2.333597  0
O  O74  1  0.63023556  0.47799968  0.68145794  1  0  -0.907541  0  1.864524  0  0  -0.863573  0  2.072457  0  0  -0.893323  0  2.03268  0  0  -0.65814  -0.849834  0  2.096015  0
O  O75  1  0.15264130  0.52217025  0.81866009  1  0  -0.905827  0  1.864661  0  0  -0.861938  0  2.073849  0  0  -0.891516  0  2.033927  0  0  -0.6574  -0.848301  0  2.097226  0
O  O76  1  0.36976496  0.52200174  0.31854309  1  0  -0.907524  0  1.864514  0  0  -0.863567  0  2.072502  0  0  -0.893308  0  2.032695  0  0  -0.658151  -0.849824  0  2.096059  0
O  O77  1  0.84736224  0.47783117  0.18134093  1  0  -0.905868  0  1.864711  0  0  -0.861981  0  2.073871  0  0  -0.891562  0  2.033956  0  0  -0.657412  -0.848332  0  2.097234  0
