# generated using pymatgen
data_CuH21C23S2N3O5
_symmetry_space_group_name_H-M   'P 1'
_cell_length_a   9.99654480
_cell_length_b   9.99491627
_cell_length_c   30.75858762
_cell_angle_alpha   84.80416333
_cell_angle_beta   84.77100325
_cell_angle_gamma   63.87978340
_symmetry_Int_Tables_number   1
_chemical_formula_structural   CuH21C23S2N3O5
_chemical_formula_sum   'Cu4 H84 C92 S8 N12 O20'
_cell_volume   2743.51197268
_cell_formula_units_Z   4
loop_
 _symmetry_equiv_pos_site_id
 _symmetry_equiv_pos_as_xyz
  1  'x, y, z'
loop_
 _atom_site_type_symbol
 _atom_site_label
 _atom_site_symmetry_multiplicity
 _atom_site_fract_x
 _atom_site_fract_y
 _atom_site_fract_z
 _atom_site_occupancy
 _atom_site_pbe_bader_charge
 _atom_site_pbe_bader_spin_density
 _atom_site_pbe_cm5_charge
 _atom_site_pbe_ddec_charge
 _atom_site_pbe_ddec_spin_density
 _atom_site_pbe_ddec_sum_bond_order
 _atom_site_pbe_magmom
Cu  Cu0  1  0.48437451  0.93602893  0.96739984  1  1.104082  0.553979  0.687106  0.839152  0.707987  2.310661  0.551
Cu  Cu1  1  0.06461767  0.51571917  0.53289844  1  1.072358  0.001985  0.668151  0.809475  0.002531  2.316021  0.008
Cu  Cu2  1  0.51563211  0.06395955  0.03259771  1  1.103874  -0.554008  0.68711  0.839054  -0.708024  2.310759  -0.551
Cu  Cu3  1  0.93536764  0.48428746  0.46710440  1  1.072705  -0.001952  0.668859  0.810598  -0.002495  2.31556  -0.007
H  H4  1  0.16075941  0.50894891  0.00930432  1  0.116403  -0.000322  0.116421  0.12369  -0.000262  0.977013  0.0
H  H5  1  0.49167322  0.83904552  0.49065321  1  0.102029  1e-06  0.116508  0.123983  1e-06  0.977576  0.0
H  H6  1  0.83924717  0.49104357  0.99069539  1  0.116405  0.000322  0.116437  0.123699  0.000262  0.977009  0.0
H  H7  1  0.50831211  0.16095506  0.50935142  1  0.102096  -1e-06  0.11655  0.12406  -1e-06  0.977544  0.0
H  H8  1  0.96466203  0.75047391  0.97630305  1  0.063364  0.000182  0.104956  0.114798  9.3e-05  1.009537  0.0
H  H9  1  0.25001757  0.03501559  0.52370049  1  0.068625  -0.0  0.10493  0.114645  -0.0  1.009083  0.0
H  H10  1  0.03533567  0.24951235  0.02369709  1  0.06369  -0.000182  0.104975  0.11485  -9.3e-05  1.009368  0.0
H  H11  1  0.74996448  0.96497233  0.47630459  1  0.068498  0.0  0.104939  0.114697  -0.0  1.008981  0.0
H  H12  1  0.92335275  0.76117208  0.89663103  1  0.118538  2e-06  0.097372  0.056847  1.4e-05  1.082765  0.0
H  H13  1  0.23922048  0.07624947  0.60342885  1  0.1178  -4e-06  0.097441  0.056776  -2e-06  1.082475  0.0
H  H14  1  0.07663938  0.23881559  0.10336890  1  0.117502  -2e-06  0.097321  0.056766  -1.4e-05  1.08285  0.0
H  H15  1  0.76075598  0.92374286  0.39657691  1  0.117212  4e-06  0.097353  0.056618  2e-06  1.082726  0.0
H  H16  1  0.39145908  0.38668337  0.79905867  1  0.04281  -5e-06  0.09369  0.105047  -5e-06  0.991212  0.0
H  H17  1  0.61324438  0.60856982  0.70086169  1  0.043471  -8e-06  0.09389  0.10538  -5e-06  0.990681  0.0
H  H18  1  0.60853964  0.61332155  0.20094059  1  0.042821  5e-06  0.093676  0.105038  5e-06  0.991184  0.0
H  H19  1  0.38676331  0.39141915  0.29914004  1  0.043589  8e-06  0.093806  0.105291  5e-06  0.99067  0.0
H  H20  1  0.20794500  0.50801090  0.82068204  1  0.123228  6.7e-05  0.102334  0.113929  2.1e-05  1.048975  0.0
H  H21  1  0.49220987  0.79207637  0.67922806  1  0.124603  -2e-06  0.102328  0.114188  -1e-06  1.04915  0.0
H  H22  1  0.79205479  0.49199653  0.17932004  1  0.123295  -6.7e-05  0.102363  0.114002  -2.1e-05  1.04903  0.0
H  H23  1  0.50778330  0.20791177  0.32077768  1  0.124741  2e-06  0.102341  0.114233  1e-06  1.049144  0.0
H  H24  1  0.41442203  0.23384808  0.74096737  1  0.039939  -7e-06  0.094583  0.093015  -4e-06  1.026114  0.0
H  H25  1  0.76604800  0.58558384  0.75895423  1  0.03984  -4e-06  0.09469  0.093134  -2e-06  1.026207  0.0
H  H26  1  0.58556764  0.76618385  0.25903107  1  0.039877  7e-06  0.094552  0.093015  4e-06  1.026146  0.0
H  H27  1  0.23396077  0.41440867  0.24104770  1  0.03984  4e-06  0.094729  0.093201  2e-06  1.026114  0.0
H  H28  1  0.30231353  0.12974267  0.69273207  1  0.077302  -8e-06  0.100618  0.105808  -5e-06  1.010398  0.0
H  H29  1  0.87007790  0.69771903  0.80720760  1  0.075954  -0.0  0.100485  0.105687  -3e-06  1.010966  0.0
H  H30  1  0.69767503  0.87029278  0.30726468  1  0.077189  8e-06  0.10061  0.105755  5e-06  1.010444  0.0
H  H31  1  0.12991972  0.30227829  0.19279451  1  0.075865  0.0  0.10041  0.105497  3e-06  1.011003  0.0
H  H32  1  0.89379324  0.30165138  0.77339720  1  0.04393  -7e-06  0.097725  0.097584  -5e-06  1.007407  0.0
H  H33  1  0.69835031  0.10622898  0.72662519  1  0.046406  -6e-06  0.097721  0.097547  -4e-06  1.00714  0.0
H  H34  1  0.10621892  0.69832453  0.22660899  1  0.043921  7e-06  0.097708  0.097535  5e-06  1.007288  0.0
H  H35  1  0.30164513  0.89376429  0.27337482  1  0.046636  6e-06  0.09775  0.097538  4e-06  1.00716  0.0
H  H36  1  0.00632067  0.40561000  0.82159993  1  0.087565  -6e-06  0.103832  0.109703  -6e-06  0.995652  0.0
H  H37  1  0.59443402  0.99368599  0.67841640  1  0.087172  -8e-06  0.103919  0.109843  -5e-06  0.995827  0.0
H  H38  1  0.99368479  0.59437083  0.17840566  1  0.087687  6e-06  0.103842  0.109724  6e-06  0.99567  0.0
H  H39  1  0.40557819  0.00629402  0.32158286  1  0.087046  8e-06  0.10392  0.109831  5e-06  0.995747  0.0
H  H40  1  0.09145966  0.02791123  0.69524452  1  0.068668  1e-06  0.099719  0.115599  1e-06  0.997615  0.0
H  H41  1  0.97220816  0.90848016  0.80460620  1  0.066596  3e-05  0.099706  0.115597  6e-06  0.997298  0.0
H  H42  1  0.90854798  0.97208578  0.30475764  1  0.068646  -1e-06  0.099687  0.115566  -1e-06  0.99773  0.0
H  H43  1  0.02779396  0.09151324  0.19539361  1  0.066626  -3e-05  0.099672  0.11557  -6e-06  0.997354  0.0
H  H44  1  0.91179737  0.15679582  0.71400402  1  0.061667  3e-06  0.093677  0.102429  3e-06  1.021468  0.0
H  H45  1  0.84339585  0.08817297  0.78587858  1  0.057273  0.000132  0.093671  0.102445  5.9e-05  1.021221  0.0
H  H46  1  0.08821250  0.84319517  0.28599987  1  0.061689  -3e-06  0.093604  0.102329  -3e-06  1.021343  0.0
H  H47  1  0.15660627  0.91182145  0.21412055  1  0.057308  -0.000132  0.093685  0.102471  -5.9e-05  1.021116  0.0
H  H48  1  0.86374164  0.85922218  0.63524050  1  0.086578  -4e-06  0.09986  0.054044  -2e-06  1.062514  0.0
H  H49  1  0.14123410  0.13628095  0.86468708  1  0.082642  -2.2e-05  0.099767  0.054194  -1.2e-05  1.063419  0.0
H  H50  1  0.13625603  0.14077416  0.36475806  1  0.086695  4e-06  0.099846  0.054092  2e-06  1.062556  0.0
H  H51  1  0.85876008  0.86373898  0.13531287  1  0.082169  2.2e-05  0.099722  0.054112  1.2e-05  1.063511  0.0
H  H52  1  0.83165780  0.89453388  0.55521427  1  0.098037  -0.0  0.101197  0.115217  0.0  1.041075  0.0
H  H53  1  0.10568613  0.16850836  0.94468043  1  0.102317  0.000198  0.101121  0.115777  0.000119  1.041627  0.0
H  H54  1  0.16835993  0.10545985  0.44478282  1  0.097951  0.0  0.101198  0.115206  -0.0  1.041174  0.0
H  H55  1  0.89430022  0.83151694  0.05531958  1  0.102162  -0.000198  0.101165  0.115861  -0.000119  1.041503  0.0
H  H56  1  0.87147226  0.10838156  0.51376068  1  0.100347  -1e-06  0.111394  0.115199  -2e-06  1.003699  0.0
H  H57  1  0.89173902  0.12890404  0.98616288  1  0.102212  -0.000344  0.111457  0.115213  -0.000292  1.003616  0.0
H  H58  1  0.12854206  0.89161660  0.48623996  1  0.10033  1e-06  0.111416  0.115222  1e-06  1.003686  0.0
H  H59  1  0.10825521  0.87110683  0.01383634  1  0.102177  0.000344  0.111497  0.115267  0.000292  1.003567  0.0
H  H60  1  0.48850369  0.94873622  0.86346623  1  0.101729  -1.9e-05  0.108881  0.02929  -3.2e-05  1.0519  0.0
H  H61  1  0.05200283  0.51142378  0.63654166  1  0.092269  -4e-06  0.109169  0.029578  -2e-06  1.052211  0.0
H  H62  1  0.51151400  0.05127670  0.13652448  1  0.10154  2e-05  0.108904  0.029349  3.2e-05  1.05194  0.0
H  H63  1  0.94799814  0.48856401  0.36346387  1  0.091874  4e-06  0.109172  0.02964  2e-06  1.052172  0.0
H  H64  1  0.30814738  0.70862906  0.89205368  1  0.117585  -1.1e-05  0.114607  0.140402  4e-06  0.991211  0.0
H  H65  1  0.29145390  0.69199095  0.60810724  1  0.123034  -6e-06  0.114527  0.140462  -3e-06  0.991723  0.0
H  H66  1  0.69186698  0.29138633  0.10793542  1  0.117114  1.1e-05  0.114595  0.140319  -4e-06  0.991032  0.0
H  H67  1  0.70852702  0.30801362  0.39189188  1  0.122855  6e-06  0.114522  0.140436  3e-06  0.99177  0.0
H  H68  1  0.18729402  0.79410788  0.84800503  1  0.057393  -1.9e-05  0.098635  0.109126  -1.3e-05  1.024398  0.0
H  H69  1  0.20610352  0.81310226  0.65215549  1  0.052486  -5e-06  0.098551  0.109293  -2e-06  1.024409  0.0
H  H70  1  0.81271919  0.20591100  0.15198563  1  0.056838  1.9e-05  0.098666  0.109123  1.3e-05  1.024345  0.0
H  H71  1  0.79388411  0.18689438  0.34784432  1  0.052774  5e-06  0.098552  0.109293  2e-06  1.024281  0.0
H  H72  1  0.36044768  0.63314806  0.83914860  1  0.036189  -1.4e-05  0.098798  0.110229  -7e-06  0.995876  0.0
H  H73  1  0.36705745  0.63993955  0.66096337  1  0.037206  -9e-06  0.098286  0.109793  -5e-06  0.996232  0.0
H  H74  1  0.63956892  0.36686637  0.16083982  1  0.036598  1.4e-05  0.098761  0.110165  7e-06  0.995893  0.0
H  H75  1  0.63293573  0.36006680  0.33903308  1  0.037054  9e-06  0.098291  0.10975  5e-06  0.996258  0.0
H  H76  1  0.43763187  0.95862026  0.79629426  1  0.071723  -3e-06  0.104291  0.116437  5e-06  1.022528  0.0
H  H77  1  0.04132699  0.56255868  0.70377978  1  0.07445  -4e-06  0.104021  0.115956  -2e-06  1.022909  0.0
H  H78  1  0.56236471  0.04139481  0.20369210  1  0.052552  3e-06  0.104286  0.116482  -5e-06  1.022396  0.0
H  H79  1  0.95868508  0.43743334  0.29622630  1  0.074824  4e-06  0.104038  0.115996  2e-06  1.022896  0.0
H  H80  1  0.42230177  0.80240149  0.77801479  1  0.03576  -1.3e-05  0.096814  0.110794  -6e-06  0.997355  0.0
H  H81  1  0.19729211  0.57791799  0.72218400  1  0.03208  -2e-06  0.096623  0.110709  0.0  0.997524  0.0
H  H82  1  0.57768806  0.19761743  0.22197588  1  0.035659  1.3e-05  0.096875  0.110962  6e-06  0.99751  0.0
H  H83  1  0.80272442  0.42208121  0.27781785  1  0.031954  2e-06  0.096585  0.110701  -0.0  0.997622  0.0
H  H84  1  0.25734733  0.96564968  0.79243406  1  0.07491  -2.4e-05  0.099809  0.116298  -1.5e-05  1.005038  0.0
H  H85  1  0.03412769  0.74285743  0.70779040  1  0.07201  -4e-06  0.099831  0.116148  -2e-06  1.005791  0.0
H  H86  1  0.74264245  0.03437324  0.20755942  1  0.074546  2.4e-05  0.099819  0.116278  1.5e-05  1.005191  0.0
H  H87  1  0.96587772  0.25713852  0.29221217  1  0.072102  4e-06  0.099825  0.116166  2e-06  1.005718  0.0
C  C88  1  0.32410359  0.25796137  0.96877832  1  1.541968  0.000687  0.209788  0.57117  0.000479  4.191365  0.001
C  C89  1  0.74264127  0.67553740  0.53109135  1  1.533935  1e-06  0.209734  0.567562  0.0  4.195177  0.0
C  C90  1  0.67590521  0.74203015  0.03122136  1  1.541702  -0.000687  0.20985  0.57137  -0.00048  4.19097  -0.001
C  C91  1  0.25734409  0.32446725  0.46890861  1  1.533351  0.0  0.209745  0.567635  0.0  4.195053  0.0
C  C92  1  0.22271501  0.40461051  0.94820867  1  0.006214  -0.000422  -0.018528  -0.118918  -0.000302  3.938856  0.0
C  C93  1  0.59594938  0.77723483  0.55173527  1  0.019215  -9e-06  -0.016669  -0.115342  -5e-06  3.937176  0.0
C  C94  1  0.77729271  0.59538050  0.05178910  1  0.006013  0.000416  -0.018564  -0.119136  0.000299  3.938967  0.0
C  C95  1  0.40404034  0.22277084  0.44827170  1  0.022654  2e-06  -0.016704  -0.11547  1e-06  3.937172  0.0
C  C96  1  0.14049925  0.52412101  0.97459152  1  -0.029961  0.001412  -0.060549  -0.033908  0.000879  3.951386  0.001
C  C97  1  0.47647855  0.85931123  0.52536773  1  -0.017844  2e-06  -0.060963  -0.03579  2e-06  3.952705  0.0
C  C98  1  0.85950399  0.47587091  0.02540798  1  -0.029543  -0.001411  -0.06055  -0.03388  -0.000879  3.951464  -0.001
C  C99  1  0.52351686  0.14067898  0.47463594  1  -0.030058  -1e-06  -0.060979  -0.035895  -1e-06  3.952806  0.0
C  C100  1  0.03334816  0.65659231  0.95646021  1  -0.022682  0.000496  -0.096019  -0.1514  0.000368  3.992617  0.0
C  C101  1  0.34394259  0.96644574  0.54353634  1  -0.031663  -2e-06  -0.095244  -0.149922  -0.0  3.990594  0.0
C  C102  1  0.96665398  0.34339807  0.04353937  1  -0.023098  -0.000497  -0.096038  -0.151402  -0.000368  3.992221  0.0
C  C103  1  0.65604388  0.03354932  0.45646809  1  -0.022684  1e-06  -0.095221  -0.149854  0.0  3.99056  0.0
C  C104  1  0.01218635  0.66385449  0.91202921  1  0.485722  0.00044  0.045365  0.116988  0.000266  3.979726  0.0
C  C105  1  0.33659331  0.98747512  0.58798854  1  0.487877  -7e-06  0.04489  0.116441  -4e-06  3.978481  0.0
C  C106  1  0.98780690  0.33613067  0.08797206  1  0.486692  -0.000441  0.045452  0.117102  -0.000266  3.979624  0.0
C  C107  1  0.66339317  0.01252197  0.41201421  1  0.488242  7e-06  0.045019  0.11671  5e-06  3.978623  0.0
C  C108  1  0.20217307  0.42765241  0.90251751  1  0.452282  -0.000992  0.127351  0.174518  -0.000637  4.015009  -0.001
C  C109  1  0.57288840  0.79759576  0.59745050  1  0.449301  -9e-06  0.12664  0.17249  -5e-06  4.01912  0.0
C  C110  1  0.79782903  0.57234603  0.09748152  1  0.452457  0.000992  0.127354  0.174623  0.000637  4.014892  0.001
C  C111  1  0.42709130  0.20241628  0.40255397  1  0.448567  1e-05  0.126702  0.172556  6e-06  4.018808  0.0
C  C112  1  0.28470979  0.39215850  0.81355048  1  -0.13412  0.000717  -0.153877  -0.250604  0.000442  3.96471  0.0
C  C113  1  0.60797721  0.71524640  0.68637621  1  -0.137334  -3e-06  -0.154039  -0.251892  -2e-06  3.963806  0.0
C  C114  1  0.71529228  0.60784296  0.18644943  1  -0.134022  -0.000716  -0.153911  -0.25068  -0.000441  3.964693  0.0
C  C115  1  0.39201928  0.28474936  0.31362792  1  -0.137602  3e-06  -0.153986  -0.251849  2e-06  3.96372  0.0
C  C116  1  0.21728888  0.32910498  0.78423059  1  -0.013116  -3.6e-05  -0.019119  0.111327  -2.6e-05  4.007528  0.0
C  C117  1  0.67092631  0.78267735  0.71572712  1  0.010375  5.9e-05  -0.018923  0.113206  3.8e-05  4.00511  0.0
C  C118  1  0.78270758  0.67089886  0.21577169  1  -0.013138  3.6e-05  -0.019132  0.111297  2.6e-05  4.007567  0.0
C  C119  1  0.32907914  0.21731358  0.28427494  1  0.010628  -5.9e-05  -0.018881  0.113175  -3.8e-05  4.005037  0.0
C  C120  1  0.29924532  0.25046842  0.74787991  1  -0.043002  8.6e-05  -0.097501  -0.140159  5.5e-05  4.002726  0.0
C  C121  1  0.74945803  0.70075998  0.75206716  1  -0.043482  1.5e-05  -0.09788  -0.14098  9e-06  4.002794  0.0
C  C122  1  0.70074667  0.74954947  0.25211755  1  -0.043062  -8.6e-05  -0.097457  -0.140156  -5.5e-05  4.00259  0.0
C  C123  1  0.25054407  0.29923239  0.24793496  1  -0.043686  -1.5e-05  -0.097921  -0.141052  -9e-06  4.002808  0.0
C  C124  1  0.23653656  0.19147298  0.72078133  1  -0.032792  -4.2e-05  -0.0943  -0.133275  -2.6e-05  3.976229  0.0
C  C125  1  0.80838663  0.76349722  0.77918082  1  -0.051684  6.5e-05  -0.094056  -0.133393  4.4e-05  3.977066  0.0
C  C126  1  0.76346319  0.80854656  0.27921782  1  -0.032717  4.2e-05  -0.094246  -0.133193  2.6e-05  3.976327  0.0
C  C127  1  0.19161325  0.23649208  0.22082177  1  -0.051436  -6.5e-05  -0.09398  -0.133177  -4.4e-05  3.977363  0.0
C  C128  1  0.08947587  0.20960348  0.72947140  1  -0.017065  0.000107  -0.021326  0.107786  7e-05  4.004215  0.0
C  C129  1  0.79033050  0.91054600  0.77050030  1  -0.017333  -1.4e-05  -0.021167  0.107873  -1.2e-05  4.004474  0.0
C  C130  1  0.91052506  0.79039742  0.27053116  1  -0.01702  -0.000107  -0.021342  0.107782  -7e-05  4.004305  0.0
C  C131  1  0.20967051  0.08944789  0.22949888  1  -0.017255  1.4e-05  -0.021177  0.107845  1.2e-05  4.004827  0.0
C  C132  1  0.00767702  0.28827918  0.76584260  1  -0.095042  -4.5e-05  -0.093449  -0.135387  -3.3e-05  4.002854  0.0
C  C133  1  0.71171502  0.99233089  0.73415395  1  -0.098723  6.5e-05  -0.09336  -0.13501  4.2e-05  4.002716  0.0
C  C134  1  0.99232619  0.71171371  0.23415947  1  -0.09486  4.5e-05  -0.093415  -0.135288  3.2e-05  4.002701  0.0
C  C135  1  0.28828486  0.00766144  0.26584758  1  -0.099135  -6.5e-05  -0.093412  -0.135039  -4.2e-05  4.00274  0.0
C  C136  1  0.07051954  0.34678663  0.79297216  1  -0.063274  9e-05  -0.090188  -0.128168  5.4e-05  3.976358  0.0
C  C137  1  0.65324594  0.92947103  0.70701752  1  -0.063769  -1.2e-05  -0.090235  -0.129088  -9e-06  3.976403  0.0
C  C138  1  0.92948142  0.65320620  0.20703160  1  -0.063347  -9e-05  -0.090201  -0.12819  -5.4e-05  3.976639  0.0
C  C139  1  0.34676288  0.07051848  0.29298221  1  -0.06347  1.2e-05  -0.090256  -0.129037  9e-06  3.976339  0.0
C  C140  1  0.02093955  0.14654566  0.70045753  1  -0.099313  8e-06  -0.149756  -0.240246  8e-06  3.974233  0.0
C  C141  1  0.85356604  0.97908835  0.79946113  1  -0.091386  0.001412  -0.149986  -0.240255  0.000876  3.974417  0.001
C  C142  1  0.97905689  0.85345715  0.29954706  1  -0.099406  -8e-06  -0.149664  -0.240134  -8e-06  3.974213  0.0
C  C143  1  0.14643160  0.02090898  0.20053903  1  -0.091536  -0.001411  -0.149948  -0.240174  -0.000876  3.974243  -0.001
C  C144  1  0.94719903  0.14261142  0.61650921  1  0.445804  -9e-06  0.122639  0.16736  -6e-06  4.023226  0.0
C  C145  1  0.85765051  0.05317089  0.88343292  1  0.420893  -0.001264  0.122393  0.168331  -0.000856  4.020487  -0.001
C  C146  1  0.05278741  0.85738766  0.38349608  1  0.424433  1e-05  0.122611  0.167414  7e-06  4.023406  0.0
C  C147  1  0.14235936  0.94683224  0.11656575  1  0.42083  0.001264  0.122308  0.168298  0.000856  4.020455  0.001
C  C148  1  0.88182556  0.94799183  0.61612916  1  0.501719  -8e-06  0.04694  0.120083  -5e-06  3.978907  0.0
C  C149  1  0.05236869  0.11831026  0.88378229  1  0.505574  9.2e-05  0.046408  0.118939  3.6e-05  3.981213  0.0
C  C150  1  0.11817881  0.05200265  0.38386796  1  0.501424  8e-06  0.046881  0.119827  5e-06  3.978908  0.0
C  C151  1  0.94762996  0.88170269  0.11621903  1  0.505663  -9.2e-05  0.046324  0.118823  -3.6e-05  3.981067  0.0
C  C152  1  0.86171598  0.96910132  0.57134260  1  0.048415  -6e-06  -0.096151  -0.143208  -2e-06  3.972026  0.0
C  C153  1  0.03110117  0.13854393  0.92856629  1  0.043903  0.000431  -0.096208  -0.143486  0.000355  3.973827  0.0
C  C154  1  0.13829280  0.03089625  0.42865659  1  0.048576  6e-06  -0.096095  -0.143  2e-06  3.971957  0.0
C  C155  1  0.96888747  0.86147136  0.07143329  1  0.044123  -0.000432  -0.096181  -0.14344  -0.000355  3.973385  0.0
C  C156  1  0.88559499  0.08428812  0.54876678  1  -0.103176  0.0  -0.06417  -0.036809  -1e-06  3.947419  0.0
C  C157  1  0.91586569  0.11482175  0.95114812  1  -0.104594  0.001193  -0.0641  -0.035968  0.000729  3.946859  0.001
C  C158  1  0.11441264  0.91571091  0.45123434  1  -0.103003  0.0  -0.064172  -0.036865  1e-06  3.947495  0.0
C  C159  1  0.08413191  0.88518668  0.04885043  1  -0.104223  -0.001192  -0.064154  -0.036009  -0.000728  3.946938  -0.001
C  C160  1  0.93067026  0.17274916  0.57078657  1  -0.027798  -9e-06  -0.019276  -0.119604  -5e-06  3.939854  0.0
C  C161  1  0.82740810  0.06973371  0.92914673  1  0.024689  -1e-05  -0.021026  -0.122498  4e-06  3.94154  0.0
C  C162  1  0.06933292  0.82724575  0.42921642  1  -0.007018  2e-06  -0.019307  -0.11968  1e-06  3.940188  0.0
C  C163  1  0.17259512  0.93026527  0.07085127  1  0.024324  3e-06  -0.020985  -0.122533  -8e-06  3.941749  0.0
C  C164  1  0.96137204  0.29117544  0.54511822  1  1.559583  -1e-06  0.209226  0.567697  -2e-06  4.191443  0.0
C  C165  1  0.70943657  0.03877430  0.95486511  1  1.529053  -0.000199  0.208421  0.570175  -0.000276  4.188025  0.0
C  C166  1  0.03862336  0.70882184  0.45488297  1  1.559396  2e-06  0.209197  0.567658  2e-06  4.191529  0.0
C  C167  1  0.29057109  0.96121969  0.04513648  1  1.529215  0.000199  0.208508  0.570363  0.000276  4.187792  0.0
C  C168  1  0.43896138  0.87247157  0.87615059  1  1.36654  -0.000418  0.171384  0.305555  -0.00034  4.108463  0.0
C  C169  1  0.12844217  0.56089661  0.62397891  1  1.385606  -7e-06  0.170297  0.304323  -7e-06  4.109183  0.0
C  C170  1  0.56105748  0.12753586  0.12383796  1  1.367549  0.000418  0.171193  0.305184  0.00034  4.108984  0.0
C  C171  1  0.87155550  0.43908862  0.37602451  1  1.386061  7e-06  0.170155  0.304026  7e-06  4.109695  0.0
C  C172  1  0.30419148  0.73638301  0.85679545  1  0.261934  -2.2e-05  -0.135441  -0.267247  -1.5e-05  3.904909  0.0
C  C173  1  0.26374939  0.69616217  0.64337837  1  0.260425  -8e-06  -0.135506  -0.267762  -7e-06  3.906577  0.0
C  C174  1  0.69581618  0.26363425  0.14319477  1  0.262044  2.2e-05  -0.135405  -0.267164  1.5e-05  3.904788  0.0
C  C175  1  0.73623709  0.30384100  0.35662128  1  0.260308  8e-06  -0.135536  -0.267727  7e-06  3.906652  0.0
C  C176  1  0.37317615  0.89316432  0.80066764  1  0.266608  -3.1e-05  -0.134738  -0.274237  -2.2e-05  3.93138  0.0
C  C177  1  0.10673192  0.62709361  0.69949135  1  0.281133  -6e-06  -0.134479  -0.273196  -4e-06  3.933065  0.0
C  C178  1  0.62681916  0.10686425  0.19932553  1  0.28649  3.1e-05  -0.134754  -0.274468  2.2e-05  3.931387  0.0
C  C179  1  0.89327682  0.37290493  0.30051106  1  0.280856  6e-06  -0.134437  -0.273227  4e-06  3.93302  0.0
S  S180  1  0.32414546  0.28973724  0.86677262  1  0.11933  0.001125  0.025557  0.010355  0.000952  2.737162  0.0
S  S181  1  0.71056548  0.67553197  0.63314811  1  0.119104  -3e-06  0.026056  0.011273  1e-06  2.738729  0.0
S  S182  1  0.67586109  0.71026331  0.13322492  1  0.119162  -0.001122  0.025576  0.0104  -0.00095  2.73712  0.0
S  S183  1  0.28941873  0.32447515  0.36685377  1  0.119185  4e-06  0.026066  0.011303  -1e-06  2.738791  0.0
S  S184  1  0.00171139  0.24881906  0.64738094  1  0.112852  7e-06  0.02984  0.014667  8e-06  2.80883  0.0
S  S185  1  0.75136977  0.99860927  0.85257354  1  0.113095  0.002519  0.029725  0.01421  0.002002  2.806284  0.001
S  S186  1  0.99827838  0.75118362  0.35262286  1  0.113777  -6e-06  0.029815  0.014611  -7e-06  2.808928  0.0
S  S187  1  0.24863565  0.00138770  0.14742771  1  0.113018  -0.002517  0.029745  0.014182  -0.002001  2.806186  -0.001
N  N188  1  0.37775453  0.83275346  0.84545411  1  -1.21173  -0.000237  -0.289009  0.017266  -0.000132  3.727993  0.0
N  N189  1  0.16742540  0.62257343  0.65473334  1  -1.224902  -1.1e-05  -0.289689  0.015789  -4e-06  3.730876  0.0
N  N190  1  0.62225646  0.16726640  0.15453529  1  -1.211673  0.000237  -0.289062  0.017513  0.000132  3.727804  0.0
N  N191  1  0.83257001  0.37741981  0.34526894  1  -1.224573  1.1e-05  -0.289628  0.015907  4e-06  3.730896  0.0
N  N192  1  0.09675833  0.55415395  0.88549717  1  -1.240726  -0.002101  -0.324145  -0.3075  -0.001346  3.372139  -0.002
N  N193  1  0.44629143  0.90292560  0.61449065  1  -1.23588  -2e-05  -0.323369  -0.306213  -1e-05  3.372711  0.0
N  N194  1  0.90324157  0.44583840  0.11450241  1  -1.240691  0.002099  -0.324206  -0.30767  0.001345  3.37215  0.002
N  N195  1  0.55369166  0.09707694  0.38551432  1  -1.235189  1.9e-05  -0.323523  -0.306431  9e-06  3.372393  0.0
N  N196  1  0.92231097  0.03231071  0.63832270  1  -1.207924  -2.2e-05  -0.325196  -0.310722  -1.2e-05  3.36206  0.0
N  N197  1  0.96805013  0.07785066  0.86158924  1  -1.212757  -0.00271  -0.325186  -0.311111  -0.001728  3.362274  -0.002
N  N198  1  0.07767886  0.96768696  0.36167929  1  -1.208329  2.1e-05  -0.325184  -0.310687  1.1e-05  3.362014  0.0
N  N199  1  0.03195303  0.92215635  0.13841017  1  -1.212223  0.002708  -0.325119  -0.311048  0.001726  3.362125  0.002
O  O200  1  0.35082818  0.14419407  0.94722769  1  -1.101323  0.079025  -0.303696  -0.526963  0.051386  2.453186  0.072
O  O201  1  0.85600036  0.64865461  0.55279485  1  -1.092987  0.000281  -0.300607  -0.519556  0.000179  2.453735  0.001
O  O202  1  0.64920296  0.85580402  0.05276338  1  -1.101339  -0.079022  -0.303808  -0.527071  -0.051381  2.453148  -0.072
O  O203  1  0.14399274  0.35134256  0.44721291  1  -1.09302  -0.000286  -0.300564  -0.519824  -0.000183  2.454469  -0.001
O  O204  1  0.37148281  0.25693967  0.00577564  1  -1.097712  -0.083556  -0.303432  -0.495215  -0.054074  2.326908  -0.075
O  O205  1  0.74291575  0.62873212  0.49411563  1  -1.092229  -0.000305  -0.29948  -0.486952  -0.000193  2.331199  -0.001
O  O206  1  0.62850040  0.74304780  0.99422584  1  -1.097608  0.083565  -0.303415  -0.495242  0.05408  2.326568  0.075
O  O207  1  0.25707840  0.37128374  0.50588801  1  -1.09201  0.000299  -0.299562  -0.48677  0.000191  2.330385  0.001
O  O208  1  0.02786575  0.35042496  0.56451382  1  -1.091982  0.000294  -0.2971  -0.501554  0.000187  2.424483  0.001
O  O209  1  0.64971853  0.97213932  0.93565204  1  -1.098155  0.083163  -0.300441  -0.509403  0.053806  2.423005  0.076
O  O210  1  0.97214075  0.64957049  0.43549101  1  -1.091916  -0.000299  -0.297012  -0.501724  -0.000191  2.425119  -0.001
O  O211  1  0.35030599  0.02783239  0.06434612  1  -1.09831  -0.083144  -0.300495  -0.509514  -0.053796  2.423228  -0.076
O  O212  1  0.92009028  0.32099441  0.50606799  1  -1.101916  -0.000295  -0.305297  -0.50573  -0.000184  2.360105  -0.001
O  O213  1  0.67975175  0.07933398  0.99403899  1  -1.105056  -0.07995  -0.308532  -0.512627  -0.051798  2.357715  -0.072
O  O214  1  0.07989605  0.67902076  0.49393881  1  -1.10183  0.000289  -0.305338  -0.505457  0.000181  2.359432  0.001
O  O215  1  0.32024365  0.92067240  0.00595805  1  -1.10507  0.079956  -0.30861  -0.512729  0.051802  2.357395  0.072
O  O216  1  0.44050329  0.82878112  0.91541678  1  -1.145298  -0.001346  -0.311804  -0.443578  -0.000647  2.321867  0.0
O  O217  1  0.17285749  0.55901932  0.58476736  1  -1.153906  -1.3e-05  -0.310828  -0.441422  -5e-06  2.322491  0.0
O  O218  1  0.55953681  0.17120709  0.08457301  1  -1.146075  0.001347  -0.311618  -0.443327  0.000647  2.322255  0.0
O  O219  1  0.82714244  0.44096193  0.41523480  1  -1.154189  1.3e-05  -0.310706  -0.441288  6e-06  2.322909  0.0
