# generated using pymatgen
data_CuH2CN5
_symmetry_space_group_name_H-M   'P 1'
_cell_length_a   11.38554790
_cell_length_b   11.38438010
_cell_length_c   18.31543597
_cell_angle_alpha   89.99991006
_cell_angle_beta   90.00024917
_cell_angle_gamma   120.00347021
_symmetry_Int_Tables_number   1
_chemical_formula_structural   CuH2CN5
_chemical_formula_sum   'Cu18 H36 C18 N90'
_cell_volume   2055.87178792
_cell_formula_units_Z   18
loop_
 _symmetry_equiv_pos_site_id
 _symmetry_equiv_pos_as_xyz
  1  'x, y, z'
loop_
 _atom_site_type_symbol
 _atom_site_label
 _atom_site_symmetry_multiplicity
 _atom_site_fract_x
 _atom_site_fract_y
 _atom_site_fract_z
 _atom_site_occupancy
 _atom_site_pbe_bader_charge
 _atom_site_pbe_bader_spin_density
 _atom_site_pbe_cm5_charge
 _atom_site_pbe_ddec_charge
 _atom_site_pbe_ddec_spin_density
 _atom_site_pbe_ddec_sum_bond_order
 _atom_site_pbe_magmom
Cu  Cu0  1  0.69399234  0.58975241  0.05678827  1  0.738228  0  0.582159  0.446592  0  2.513083  0
Cu  Cu1  1  0.41030247  0.10430169  0.38993061  1  0.735263  0  0.582239  0.445882  0  2.514051  0
Cu  Cu2  1  0.89566532  0.30587609  0.72338760  1  0.74121  0  0.582569  0.447766  0  2.514323  0
Cu  Cu3  1  0.30600454  0.41024699  0.55678794  1  0.738218  0  0.582119  0.446435  0  2.513069  0
Cu  Cu4  1  0.58969734  0.89569953  0.88993058  1  0.735241  0  0.58223  0.445892  0  2.514045  0
Cu  Cu5  1  0.10433486  0.69412150  0.22338788  1  0.741237  0  0.582548  0.447706  0  2.514328  0
Cu  Cu6  1  0.58978923  0.69412196  0.27659775  1  0.741519  0  0.582562  0.447791  0  2.514381  0
Cu  Cu7  1  0.10424785  0.41025116  0.94319616  1  0.736623  0  0.582213  0.446568  0  2.512886  0
Cu  Cu8  1  0.30599764  0.89569236  0.61005644  1  0.734146  0  0.582248  0.445899  0  2.514121  0
Cu  Cu9  1  0.41021174  0.30587708  0.77659726  1  0.741523  0  0.582561  0.447762  0  2.514432  0
Cu  Cu10  1  0.89575462  0.58975138  0.44319703  1  0.736633  0  0.582186  0.446541  0  2.512957  0
Cu  Cu11  1  0.69400103  0.10430748  0.11005614  1  0.734168  0  0.582253  0.445921  0  2.514028  0
Cu  Cu12  1  0.18049983  0.59027494  0.08318334  1  0.717337  0  0.57638  0.432052  0  2.505715  0
Cu  Cu13  1  0.40976765  0.59026794  0.41680006  1  0.715167  0  0.576407  0.432179  0  2.505669  0
Cu  Cu14  1  0.40967969  0.81935982  0.74999486  1  0.724565  0  0.576741  0.432523  0  2.505008  0
Cu  Cu15  1  0.81949813  0.40972537  0.58318276  1  0.717404  0  0.576396  0.432075  0  2.505757  0
Cu  Cu16  1  0.59023462  0.40973456  0.91680050  1  0.715138  0  0.576428  0.432215  0  2.505697  0
Cu  Cu17  1  0.59032069  0.18063780  0.24999366  1  0.724642  0  0.57676  0.432533  0  2.505017  0
H  H18  1  0.84447331  0.84422348  0.07900895  1  0.484812  0  0.296786  0.30704  0  0.998447  0
H  H19  1  0.15582056  0.00029874  0.41226995  1  0.488729  0  0.296987  0.307194  0  0.997967  0
H  H20  1  0.99962450  0.15531123  0.74564336  1  0.488406  0  0.297454  0.308541  0  0.99701  0
H  H21  1  0.15552411  0.15577733  0.57900792  1  0.484736  0  0.296773  0.306985  0  0.998453  0
H  H22  1  0.84417992  0.99970200  0.91226941  1  0.488718  0  0.296993  0.307212  0  0.997961  0
H  H23  1  0.00037308  0.84468565  0.24564430  1  0.488413  0  0.297465  0.308533  0  0.997037  0
H  H24  1  0.84431724  0.84468960  0.25434247  1  0.483664  0  0.297417  0.30847  0  0.997165  0
H  H25  1  0.00026057  0.15578576  0.92096135  1  0.488944  0  0.29677  0.307004  0  0.998565  0
H  H26  1  0.15552033  0.99969331  0.58770182  1  0.487028  0  0.297013  0.307197  0  0.998012  0
H  H27  1  0.15568420  0.15530702  0.75434145  1  0.483631  0  0.297409  0.308461  0  0.997179  0
H  H28  1  0.99973583  0.84421388  0.42096280  1  0.48881  0  0.296728  0.306947  0  0.998579  0
H  H29  1  0.84448145  0.00030674  0.08770257  1  0.487032  0  0.297026  0.307226  0  0.997966  0
H  H30  1  0.44087431  0.44072268  0.07327682  1  0.492916  0  0.298948  0.31078  0  0.990184  0
H  H31  1  0.55922402  0.00013848  0.40647210  1  0.485014  0  0.299012  0.310751  0  0.991033  0
H  H32  1  0.99978092  0.55893932  0.73993869  1  0.537334  0  0.299316  0.31166  0  0.989728  0
H  H33  1  0.55912722  0.55927925  0.57327703  1  0.492866  0  0.298934  0.310736  0  0.990246  0
H  H34  1  0.44077439  0.99986429  0.90647212  1  0.48505  0  0.29899  0.310708  0  0.991088  0
H  H35  1  0.00022152  0.44106144  0.23993729  1  0.537298  0  0.299324  0.311693  0  0.989692  0
H  H36  1  0.44084029  0.44105623  0.26005807  1  0.49283  0  0.299287  0.311727  0  0.98963  0
H  H37  1  0.00015763  0.55928326  0.92671313  1  0.485492  0  0.298916  0.310666  0  0.99044  0
H  H38  1  0.55908952  0.99986104  0.59352095  1  0.53924  0  0.299035  0.310822  0  0.991027  0
H  H39  1  0.55915727  0.55894256  0.76005665  1  0.492799  0  0.299315  0.311683  0  0.989701  0
H  H40  1  0.99984435  0.44071788  0.42671279  1  0.485518  0  0.298924  0.310657  0  0.990455  0
H  H41  1  0.44090903  0.00013878  0.09352062  1  0.539241  0  0.299023  0.310799  0  0.99106  0
H  H42  1  0.28474309  0.44106331  0.07346552  1  0.493088  0  0.299165  0.305309  0  0.994662  0
H  H43  1  0.55888417  0.84366667  0.40664477  1  0.492515  0  0.298671  0.304379  0  0.995864  0
H  H44  1  0.15627610  0.71508641  0.74010128  1  0.496639  0  0.298524  0.304232  0  0.995713  0
H  H45  1  0.71525340  0.55893663  0.57346561  1  0.493183  0  0.299189  0.305321  0  0.994693  0
H  H46  1  0.44111401  0.15633281  0.90664506  1  0.49256  0  0.298705  0.30444  0  0.995824  0
H  H47  1  0.84372509  0.28491208  0.24010066  1  0.496615  0  0.298499  0.304219  0  0.995816  0
H  H48  1  0.44119371  0.28491700  0.25989490  1  0.494545  0  0.298485  0.304236  0  0.995765  0
H  H49  1  0.84369161  0.55894193  0.92652754  1  0.494165  0  0.299212  0.305353  0  0.994499  0
H  H50  1  0.71521333  0.15632549  0.59335286  1  0.495894  0  0.298699  0.304359  0  0.996056  0
H  H51  1  0.55880624  0.71508114  0.75989441  1  0.494561  0  0.298487  0.304236  0  0.995784  0
H  H52  1  0.15630571  0.44105859  0.42652765  1  0.49418  0  0.299197  0.305276  0  0.994578  0
H  H53  1  0.28478559  0.84367572  0.09335183  1  0.49589  0  0.298682  0.304351  0  0.996063  0
C  C54  1  0.65837223  0.82919435  0.08339626  1  1.583604  0  0.344338  0.608816  0  4.1328  0
C  C55  1  0.17081699  0.82918505  0.41657195  1  1.648467  0  0.344372  0.609029  0  4.132573  0
C  C56  1  0.17069578  0.34139925  0.74999040  1  1.688687  0  0.344468  0.608715  0  4.131209  0
C  C57  1  0.34162549  0.17080268  0.58339190  1  1.583377  0  0.344256  0.608689  0  4.1326  0
C  C58  1  0.82918352  0.17081569  0.91657381  1  1.648431  0  0.344331  0.60898  0  4.1327  0
C  C59  1  0.82930887  0.65860466  0.24999485  1  1.688434  0  0.344409  0.608526  0  4.131117  0
C  C60  1  0.45582663  0.62669678  0.07940874  1  1.545059  0  0.346228  0.621725  0  4.096516  0
C  C61  1  0.37325202  0.82910852  0.41253028  1  1.603724  0  0.345987  0.621205  0  4.098632  0
C  C62  1  0.17081465  0.54399488  0.74599422  1  1.629666  0  0.347728  0.624589  0  4.095546  0
C  C63  1  0.54417208  0.37329924  0.57940145  1  1.545275  0  0.346179  0.6215  0  4.096825  0
C  C64  1  0.62674810  0.17089084  0.91253432  1  1.603722  0  0.346003  0.621222  0  4.098757  0
C  C65  1  0.82918054  0.45600264  0.24600050  1  1.62985  0  0.347597  0.624528  0  4.095797  0
C  C66  1  0.62682588  0.45600233  0.25400167  1  1.54008  0  0.347622  0.624557  0  4.095696  0
C  C67  1  0.82914542  0.37331009  0.92057471  1  1.602405  0  0.346287  0.621615  0  4.096662  0
C  C68  1  0.54414272  0.17088643  0.58744449  1  1.697546  0  0.346112  0.621369  0  4.098599  0
C  C69  1  0.37317934  0.54399402  0.75399649  1  1.539875  0  0.347648  0.624687  0  4.095412  0
C  C70  1  0.17085323  0.62669080  0.42057359  1  1.602447  0  0.346231  0.621538  0  4.096712  0
C  C71  1  0.45585841  0.82911602  0.08744995  1  1.698016  0  0.346046  0.621258  0  4.098785  0
N  N72  1  0.59339771  0.69177160  0.07782990  1  -1.204779  0  -0.391852  -0.542561  0  3.498446  0
N  N73  1  0.30819316  0.90161097  0.41096808  1  -1.259623  0  -0.391579  -0.54193  0  3.498202  0
N  N74  1  0.09829940  0.40641359  0.74441137  1  -1.266376  0  -0.392489  -0.543131  0  3.497728  0
N  N75  1  0.40660260  0.30822807  0.57783267  1  -1.204739  0  -0.391807  -0.542313  0  3.498343  0
N  N76  1  0.69180857  0.09839204  0.91096855  1  -1.259583  0  -0.391612  -0.541944  0  3.498364  0
N  N77  1  0.90170537  0.59358136  0.24440625  1  -1.266216  0  -0.392435  -0.543077  0  3.497614  0
N  N78  1  0.69188860  0.59358633  0.25558287  1  -1.261511  0  -0.392394  -0.54302  0  3.497516  0
N  N79  1  0.90163351  0.30823738  0.92216202  1  -1.260466  0  -0.391845  -0.54237  0  3.498422  0
N  N80  1  0.40659110  0.09838649  0.58902606  1  -1.293273  0  -0.391553  -0.541854  0  3.498362  0
N  N81  1  0.30811233  0.40641079  0.75558747  1  -1.261539  0  -0.392484  -0.543199  0  3.497677  0
N  N82  1  0.09836705  0.69176337  0.42216174  1  -1.260497  0  -0.391843  -0.542346  0  3.498421  0
N  N83  1  0.59340842  0.90161231  0.08902199  1  -1.293813  0  -0.391542  -0.541751  0  3.498376  0
N  N84  1  0.38305527  0.69152574  0.08340851  1  -1.250867  0  -0.396567  -0.528621  0  3.501042  0
N  N85  1  0.30846162  0.69152097  0.41658312  1  -1.151671  0  -0.396551  -0.528685  0  3.501244  0
N  N86  1  0.30838239  0.61677564  0.75000028  1  -1.242294  0  -0.397848  -0.53132  0  3.501017  0
N  N87  1  0.61694458  0.30847444  0.58341185  1  -1.251005  0  -0.396618  -0.528549  0  3.501079  0
N  N88  1  0.69153700  0.30847992  0.91658339  1  -1.151649  0  -0.396559  -0.528691  0  3.501328  0
N  N89  1  0.69161722  0.38322627  0.24999425  1  -1.242705  0  -0.39782  -0.531202  0  3.50122  0
N  N90  1  0.59356801  0.29678608  0.08329979  1  -0.266689  0  0.082684  0.467667  0  4.43945  0
N  N91  1  0.70320751  0.29677842  0.41669468  1  -0.288707  0  0.08263  0.467499  0  4.439096  0
N  N92  1  0.70314242  0.40628877  0.74999545  1  -0.264918  0  0.082492  0.466328  0  4.441789  0
N  N93  1  0.40643109  0.70321133  0.58329781  1  -0.266638  0  0.082656  0.467572  0  4.439537  0
N  N94  1  0.29678834  0.70322172  0.91669623  1  -0.288743  0  0.082609  0.467433  0  4.439231  0
N  N95  1  0.29685733  0.59371126  0.24999471  1  -0.264912  0  0.082479  0.466289  0  4.441807  0
N  N96  1  0.58935684  0.39527559  0.06686224  1  -0.269215  0  -0.317895  -0.500231  0  3.278305  0
N  N97  1  0.60469522  0.19410203  0.40028876  1  -0.259578  0  -0.317593  -0.499474  0  3.278229  0
N  N98  1  0.80590138  0.41047682  0.73377102  1  -0.266417  0  -0.317746  -0.499784  0  3.279495  0
N  N99  1  0.41064011  0.60472383  0.56686037  1  -0.269187  0  -0.31786  -0.500102  0  3.278515  0
N  N100  1  0.39530365  0.80590022  0.90028884  1  -0.259551  0  -0.317579  -0.499418  0  3.278041  0
N  N101  1  0.19410050  0.58952443  0.23376946  1  -0.266418  0  -0.317743  -0.499765  0  3.279562  0
N  N102  1  0.39542708  0.58952187  0.26621995  1  -0.266567  0  -0.317888  -0.499954  0  3.279489  0
N  N103  1  0.19408729  0.60472983  0.93313309  1  -0.256516  0  -0.317963  -0.500201  0  3.278046  0
N  N104  1  0.41059346  0.80589512  0.59970251  1  -0.271138  0  -0.317709  -0.499629  0  3.278018  0
N  N105  1  0.60457329  0.41047766  0.76622043  1  -0.266539  0  -0.317873  -0.499941  0  3.279511  0
N  N106  1  0.80591524  0.39527080  0.43313336  1  -0.25653  0  -0.317966  -0.500237  0  3.277819  0
N  N107  1  0.58940601  0.19410559  0.09970403  1  -0.271097  0  -0.317695  -0.499647  0  3.278184  0
N  N108  1  0.79371703  0.89688070  0.08336474  1  -1.290939  0  -0.567768  -0.617814  0  3.331587  0
N  N109  1  0.10315255  0.89686865  0.41661114  1  -1.268692  0  -0.567701  -0.617847  0  3.3315  0
N  N110  1  0.10302376  0.20605084  0.74999529  1  -1.299836  0  -0.568113  -0.620079  0  3.333193  0
N  N111  1  0.20627816  0.10311888  0.58336554  1  -1.290958  0  -0.567664  -0.617639  0  3.331391  0
N  N112  1  0.89684570  0.10313085  0.91661161  1  -1.268809  0  -0.567727  -0.617902  0  3.331577  0
N  N113  1  0.89697899  0.79395320  0.24999542  1  -1.299733  0  -0.568103  -0.619967  0  3.333215  0
N  N114  1  0.98399695  0.68858258  0.07765844  1  -0.310443  0  0.079358  0.457569  0  4.422485  0
N  N115  1  0.31140289  0.29538556  0.41099623  1  -0.244192  0  0.079432  0.457068  0  4.422749  0
N  N116  1  0.70454869  0.01585797  0.74428243  1  -0.246765  0  0.080082  0.45874  0  4.422744  0
N  N117  1  0.01600336  0.31141709  0.57765907  1  -0.310807  0  0.079307  0.457518  0  4.422261  0
N  N118  1  0.68859518  0.70461583  0.91099774  1  -0.244207  0  0.079464  0.457269  0  4.422838  0
N  N119  1  0.29545000  0.98414306  0.24428076  1  -0.246755  0  0.080065  0.458718  0  4.422787  0
N  N120  1  0.68869267  0.98414328  0.25570225  1  -0.272426  0  0.080014  0.458938  0  4.422939  0
N  N121  1  0.29542488  0.31141658  0.92232882  1  -0.305938  0  0.079229  0.457468  0  4.422207  0
N  N122  1  0.01601642  0.70460813  0.58898703  1  -0.251309  0  0.079389  0.457205  0  4.422499  0
N  N123  1  0.31130901  0.01585662  0.75570232  1  -0.272463  0  0.080027  0.458911  0  4.422887  0
N  N124  1  0.70457392  0.68858242  0.42232799  1  -0.305933  0  0.079214  0.457507  0  4.422135  0
N  N125  1  0.98398574  0.29539331  0.08898787  1  -0.251305  0  0.079319  0.457115  0  4.422683  0
N  N126  1  0.08078041  0.68429067  0.09837691  1  -0.279361  0  -0.338979  -0.499183  0  3.392583  0
N  N127  1  0.31570114  0.39645057  0.43174972  1  -0.299142  0  -0.339121  -0.499429  0  3.392856  0
N  N128  1  0.60346700  0.91909880  0.76502229  1  -0.296077  0  -0.339107  -0.498975  0  3.393533  0
N  N129  1  0.91921554  0.31570653  0.59837832  1  -0.279054  0  -0.338925  -0.499179  0  3.392291  0
N  N130  1  0.68429621  0.60354996  0.93174967  1  -0.299049  0  -0.339185  -0.499563  0  3.392935  0
N  N131  1  0.39653411  0.08090350  0.26502121  1  -0.296151  0  -0.339106  -0.499014  0  3.393584  0
N  N132  1  0.68437101  0.08090187  0.23496499  1  -0.283703  0  -0.338941  -0.498817  0  3.393673  0
N  N133  1  0.39649071  0.31569749  0.90161255  1  -0.289822  0  -0.338899  -0.499223  0  3.392348  0
N  N134  1  0.91924655  0.60354524  0.56823530  1  -0.290715  0  -0.33905  -0.499402  0  3.392659  0
N  N135  1  0.31562926  0.91909573  0.73496419  1  -0.283764  0  -0.33901  -0.498865  0  3.393585  0
N  N136  1  0.60351108  0.68430361  0.40161473  1  -0.289692  0  -0.338887  -0.499213  0  3.392448  0
N  N137  1  0.08075660  0.39645326  0.06823580  1  -0.290725  0  -0.338999  -0.499323  0  3.392715  0
N  N138  1  0.38803901  0.49141127  0.07657941  1  -1.25277  0  -0.56807  -0.618472  0  3.327642  0
N  N139  1  0.50852235  0.89660579  0.40970712  1  -1.328437  0  -0.567715  -0.617653  0  3.329917  0
N  N140  1  0.10332857  0.61177064  0.74318772  1  -1.336309  0  -0.568496  -0.619631  0  3.32878  0
N  N141  1  0.61195866  0.50858575  0.57657926  1  -1.252858  0  -0.568058  -0.618424  0  3.32791  0
N  N142  1  0.49147849  0.10339634  0.90970869  1  -1.328505  0  -0.567708  -0.617662  0  3.329925  0
N  N143  1  0.89666900  0.38822623  0.24318496  1  -1.336288  0  -0.568494  -0.619711  0  3.328795  0
N  N144  1  0.49156452  0.38822902  0.25681008  1  -1.254921  0  -0.56837  -0.619724  0  3.328846  0
N  N145  1  0.89663705  0.50859473  0.92341278  1  -1.331323  0  -0.56812  -0.618374  0  3.327673  0
N  N146  1  0.61191643  0.10339223  0.59028375  1  -1.336877  0  -0.567861  -0.617864  0  3.330138  0
N  N147  1  0.50844045  0.61177111  0.75681066  1  -1.254859  0  -0.568434  -0.619713  0  3.328786  0
N  N148  1  0.10336302  0.49140654  0.42341215  1  -1.331339  0  -0.568108  -0.618271  0  3.327732  0
N  N149  1  0.38808384  0.89660934  0.09028241  1  -1.337012  0  -0.567818  -0.617784  0  3.330181  0
N  N150  1  0.89009082  0.69976666  0.05990934  1  -0.202969  0  -0.305527  -0.469756  0  3.176051  0
N  N151  1  0.30022084  0.19029847  0.39321891  1  -0.246411  0  -0.30564  -0.468937  0  3.174992  0
N  N152  1  0.80964015  0.10977153  0.72651172  1  -0.245549  0  -0.306657  -0.47194  0  3.176264  0
N  N153  1  0.10990594  0.30023464  0.55990969  1  -0.202958  0  -0.305505  -0.469674  0  3.176074  0
N  N154  1  0.69977849  0.80970326  0.89321980  1  -0.246427  0  -0.305632  -0.469079  0  3.175148  0
N  N155  1  0.19036080  0.89022884  0.22651150  1  -0.245563  0  -0.306624  -0.471896  0  3.176261  0
N  N156  1  0.69986698  0.89022376  0.27346929  1  -0.233278  0  -0.306752  -0.472278  0  3.176426  0
N  N157  1  0.19033181  0.30023885  0.94007656  1  -0.197263  0  -0.305434  -0.469582  0  3.175792  0
N  N158  1  0.10992244  0.80969552  0.60676555  1  -0.248056  0  -0.305663  -0.469155  0  3.175028  0
N  N159  1  0.30013636  0.10977464  0.77346979  1  -0.233166  0  -0.306702  -0.472176  0  3.176395  0
N  N160  1  0.80967152  0.69976457  0.44007927  1  -0.197399  0  -0.305434  -0.469619  0  3.175594  0
N  N161  1  0.89007898  0.19030506  0.10676515  1  -0.248022  0  -0.305639  -0.469142  0  3.175015  0
