# generated using pymatgen
data_CdH14(C7O4)2
_symmetry_space_group_name_H-M   'P 1'
_cell_length_a   6.87678057
_cell_length_b   8.26561591
_cell_length_c   13.23867555
_cell_angle_alpha   89.67703947
_cell_angle_beta   82.70092914
_cell_angle_gamma   68.77930659
_symmetry_Int_Tables_number   1
_chemical_formula_structural   CdH14(C7O4)2
_chemical_formula_sum   'Cd2 H28 C28 O16'
_cell_volume   695.12558019
_cell_formula_units_Z   2
loop_
 _symmetry_equiv_pos_site_id
 _symmetry_equiv_pos_as_xyz
  1  'x, y, z'
loop_
 _atom_site_type_symbol
 _atom_site_label
 _atom_site_symmetry_multiplicity
 _atom_site_fract_x
 _atom_site_fract_y
 _atom_site_fract_z
 _atom_site_occupancy
 _atom_site_hle17_bader_spin_density
 _atom_site_hle17_ddec_charge
 _atom_site_hle17_ddec_spin_density
 _atom_site_hle17_ddec_sum_bond_order
 _atom_site_hle17_magmom
 _atom_site_hse06_10hf_bader_spin_density
 _atom_site_hse06_10hf_ddec_charge
 _atom_site_hse06_10hf_ddec_spin_density
 _atom_site_hse06_10hf_ddec_sum_bond_order
 _atom_site_hse06_10hf_magmom
 _atom_site_hse06_bader_spin_density
 _atom_site_hse06_ddec_charge
 _atom_site_hse06_ddec_spin_density
 _atom_site_hse06_ddec_sum_bond_order
 _atom_site_hse06_magmom
 _atom_site_pbe_bader_spin_density
 _atom_site_pbe_cm5_charge
 _atom_site_pbe_ddec_charge
 _atom_site_pbe_ddec_spin_density
 _atom_site_pbe_ddec_sum_bond_order
 _atom_site_pbe_magmom
Cd  Cd0  1  0.12148513  0.76389256  0.01461869  1  0  1.291048  0  1.506856  0  0  1.113185  0  1.937597  0  0  1.171437  0  1.878249  0  0  0.790932  1.071346  0  1.978481  0
Cd  Cd1  1  0.87851605  0.23610584  0.98537826  1  0  1.291048  0  1.506879  0  0  1.113173  0  1.937632  0  0  1.17143  0  1.878272  0  0  0.790926  1.071333  0  1.978509  0
H  H2  1  0.20323405  0.50490658  0.34723885  1  0  0.083651  0  0.956917  0  0  0.095191  0  1.023009  0  0  0.095308  0  1.024073  0  0  0.109327  0.095163  0  1.022347  0
H  H3  1  0.79676245  0.49509586  0.65276212  1  0  0.083686  0  0.956905  0  0  0.095229  0  1.022973  0  0  0.095347  0  1.024037  0  0  0.109346  0.095199  0  1.022308  0
H  H4  1  0.30882851  0.31637319  0.26237474  1  0  0.100031  0  0.937073  0  0  0.10586  0  1.005632  0  0  0.108149  0  1.003677  0  0  0.112085  0.104237  0  1.007183  0
H  H5  1  0.69116947  0.68362924  0.73762614  1  0  0.100033  0  0.937079  0  0  0.105855  0  1.005635  0  0  0.108144  0  1.003679  0  0  0.112077  0.104229  0  1.00719  0
H  H6  1  0.86341329  0.46174672  0.31519558  1  0  0.111817  0  0.970492  0  0  0.119143  0  1.036848  0  0  0.124023  0  1.033199  0  0  0.09939  0.115672  0  1.039518  0
H  H7  1  0.13658435  0.53825308  0.68480385  1  0  0.111886  0  0.970458  0  0  0.1192  0  1.036819  0  0  0.124081  0  1.033167  0  0  0.099418  0.11573  0  1.039488  0
H  H8  1  0.06217004  0.33258972  0.45877102  1  0  0.078093  0  0.979205  0  0  0.090004  0  1.044353  0  0  0.092392  0  1.042958  0  0  0.094021  0.088212  0  1.045515  0
H  H9  1  0.93782851  0.66741136  0.54122833  1  0  0.078088  0  0.979208  0  0  0.090002  0  1.044351  0  0  0.092389  0  1.042958  0  0  0.094008  0.088212  0  1.045512  0
H  H10  1  0.09283579  0.16551391  0.61606334  1  0  0.078301  0  0.979295  0  0  0.091212  0  1.043138  0  0  0.093645  0  1.041628  0  0  0.095632  0.089364  0  1.04447  0
H  H11  1  0.90716720  0.83448711  0.38393497  1  0  0.078259  0  0.979316  0  0  0.091137  0  1.043208  0  0  0.093569  0  1.041699  0  0  0.095619  0.089296  0  1.044529  0
H  H12  1  0.93593653  0.02206713  0.75200460  1  0  0.12063  0  0.976769  0  0  0.127962  0  1.04154  0  0  0.132571  0  1.03858  0  0  0.100791  0.124672  0  1.043801  0
H  H13  1  0.06406792  0.97793390  0.24799437  1  0  0.120635  0  0.976739  0  0  0.127938  0  1.041537  0  0  0.132548  0  1.038574  0  0  0.10079  0.124651  0  1.043794  0
H  H14  1  0.39624823  0.12196000  0.59358838  1  0  0.099632  0  0.996287  0  0  0.110605  0  1.062471  0  0  0.113694  0  1.06102  0  0  0.096293  0.108341  0  1.063714  0
H  H15  1  0.60375435  0.87803853  0.40641300  1  0  0.099669  0  0.996189  0  0  0.110608  0  1.062428  0  0  0.113697  0  1.060976  0  0  0.096296  0.108348  0  1.063658  0
H  H16  1  0.37749396  0.26816838  0.43211861  1  0  0.10072  0  0.991317  0  0  0.110582  0  1.059473  0  0  0.113573  0  1.058195  0  0  0.096853  0.108404  0  1.060543  0
H  H17  1  0.62250568  0.73183018  0.56788297  1  0  0.100717  0  0.991353  0  0  0.110578  0  1.059506  0  0  0.11357  0  1.058226  0  0  0.096853  0.108393  0  1.060595  0
H  H18  1  0.32414435  0.95885271  0.70890463  1  0  0.083353  0  0.952988  0  0  0.09356  0  1.021083  0  0  0.094052  0  1.021968  0  0  0.108514  0.093213  0  1.020605  0
H  H19  1  0.67585955  0.04114960  0.29109360  1  0  0.083385  0  0.952946  0  0  0.093636  0  1.020974  0  0  0.094137  0  1.021862  0  0  0.108561  0.093289  0  1.020495  0
H  H20  1  0.26425966  0.15999771  0.77780690  1  0  0.106048  0  0.937291  0  0  0.11455  0  1.002036  0  0  0.116675  0  1.000665  0  0  0.112949  0.113024  0  1.003187  0
H  H21  1  0.73574185  0.84000332  0.22219150  1  0  0.106103  0  0.937243  0  0  0.114607  0  1.001967  0  0  0.11674  0  1.000602  0  0  0.112958  0.113076  0  1.003127  0
H  H22  1  0.77151993  0.66154739  0.01665162  1  0  0.426825  0  0.877855  0  0  0.398039  0  0.937121  0  0  0.409087  0  0.921164  0  0  0.288248  0.39018  0  0.948466  0
H  H23  1  0.22848023  0.33844992  0.98335145  1  0  0.426822  0  0.877853  0  0  0.398048  0  0.937109  0  0  0.409094  0  0.921148  0  0  0.288259  0.390206  0  0.948436  0
H  H24  1  0.69181214  0.81496214  0.94220666  1  0  0.451551  0  0.83106  0  0  0.420666  0  0.892257  0  0  0.432064  0  0.875569  0  0  0.300564  0.412526  0  0.904158  0
H  H25  1  0.30818917  0.18503253  0.05779486  1  0  0.451639  0  0.830936  0  0  0.420728  0  0.892191  0  0  0.432126  0  0.875502  0  0  0.30057  0.412586  0  0.904098  0
H  H26  1  0.16202884  0.49671563  0.86383224  1  0  0.446166  0  0.838379  0  0  0.415582  0  0.90151  0  0  0.425635  0  0.886846  0  0  0.309177  0.408358  0  0.912055  0
H  H27  1  0.83797102  0.50327900  0.13616787  1  0  0.446174  0  0.838417  0  0  0.41558  0  0.901527  0  0  0.425634  0  0.886861  0  0  0.309168  0.408351  0  0.912081  0
H  H28  1  0.40339979  0.46423722  0.88262657  1  0  0.447614  0  0.847766  0  0  0.407733  0  0.92467  0  0  0.420241  0  0.906588  0  0  0.297513  0.398792  0  0.93757  0
H  H29  1  0.59660098  0.53575869  0.11737346  1  0  0.447619  0  0.847764  0  0  0.407736  0  0.924666  0  0  0.420244  0  0.906585  0  0  0.297519  0.398791  0  0.937566  0
C  C30  1  0.21664116  0.55863159  0.18962931  1  0  0.684737  0  3.866122  0  0  0.628118  0  4.173139  0  0  0.661718  0  4.167143  0  0  0.211971  0.605287  0  4.176429  0
C  C31  1  0.78335793  0.44136825  0.81037153  1  0  0.684731  0  3.866165  0  0  0.628095  0  4.173191  0  0  0.661696  0  4.167194  0  0  0.211969  0.605258  0  4.176482  0
C  C32  1  0.30793498  0.44821230  0.27618102  1  0  -0.074381  0  3.631211  0  0  -0.128592  0  3.885298  0  0  -0.126175  0  3.887918  0  0  -0.067102  -0.130504  0  3.883852  0
C  C33  1  0.69206208  0.55178885  0.72381994  1  0  -0.074433  0  3.631286  0  0  -0.128629  0  3.885337  0  0  -0.126198  0  3.887962  0  0  -0.067102  -0.130523  0  3.883878  0
C  C34  1  0.60906001  0.37115239  0.36505917  1  0  0.279784  0  3.810721  0  0  0.268523  0  4.073947  0  0  0.281007  0  4.088844  0  0  0.079564  0.260074  0  4.063657  0
C  C35  1  0.39093908  0.62884744  0.63494167  1  0  0.279812  0  3.810748  0  0  0.268518  0  4.073997  0  0  0.281018  0  4.088892  0  0  0.079567  0.260072  0  4.063703  0
C  C36  1  0.80404334  0.38979472  0.37255883  1  0  -0.174617  0  3.738998  0  0  -0.198306  0  3.999149  0  0  -0.203329  0  4.016512  0  0  -0.108753  -0.194933  0  3.987389  0
C  C37  1  0.19595429  0.61020510  0.62744135  1  0  -0.174722  0  3.739054  0  0  -0.198406  0  3.99923  0  0  -0.203425  0  4.016585  0  0  -0.108808  -0.195032  0  3.987466  0
C  C38  1  0.91268549  0.31828300  0.45210541  1  0  -0.093514  0  3.784072  0  0  -0.113225  0  4.037733  0  0  -0.112736  0  4.058474  0  0  -0.093459  -0.113284  0  4.023608  0
C  C39  1  0.08731471  0.68171424  0.54789539  1  0  -0.093539  0  3.784117  0  0  -0.113258  0  4.037762  0  0  -0.112769  0  4.058503  0  0  -0.093457  -0.113316  0  4.023636  0
C  C40  1  0.83357538  0.22778323  0.52790727  1  0  0.017401  0  3.821015  0  0  0.032092  0  4.04683  0  0  0.028685  0  4.072181  0  0  -0.022914  0.034261  0  4.02964  0
C  C41  1  0.16642463  0.77221789  0.47209349  1  0  0.017424  0  3.820956  0  0  0.03215  0  4.046726  0  0  0.028743  0  4.072077  0  0  -0.022888  0.034314  0  4.029541  0
C  C42  1  0.94116805  0.15432430  0.61126991  1  0  -0.088715  0  3.772467  0  0  -0.108125  0  4.025119  0  0  -0.107687  0  4.045341  0  0  -0.092152  -0.108194  0  4.011421  0
C  C43  1  0.05883344  0.84567678  0.38873000  1  0  -0.088577  0  3.772478  0  0  -0.107986  0  4.025124  0  0  -0.107547  0  4.045346  0  0  -0.092133  -0.108064  0  4.011438  0
C  C44  1  0.85611381  0.07507063  0.68658353  1  0  -0.168027  0  3.738011  0  0  -0.194013  0  3.999498  0  0  -0.198852  0  4.017086  0  0  -0.108078  -0.190873  0  3.987732  0
C  C45  1  0.14388675  0.92492919  0.31341722  1  0  -0.168142  0  3.738082  0  0  -0.194074  0  3.999545  0  0  -0.198912  0  4.01713  0  0  -0.108119  -0.190931  0  3.987783  0
C  C46  1  0.65525208  0.06693788  0.68163259  1  0  0.278082  0  3.803966  0  0  0.268288  0  4.069824  0  0  0.280973  0  4.083792  0  0  0.079753  0.259624  0  4.060197  0
C  C47  1  0.34474993  0.93306197  0.31836957  1  0  0.278131  0  3.803826  0  0  0.268294  0  4.069699  0  0  0.280983  0  4.083661  0  0  0.079857  0.259623  0  4.060083  0
C  C48  1  0.54829115  0.13090354  0.59955911  1  0  -0.264502  0  3.728088  0  0  -0.293133  0  3.982276  0  0  -0.300612  0  4.001828  0  0  -0.119346  -0.288062  0  3.969113  0
C  C49  1  0.45171088  0.86909627  0.40044154  1  0  -0.264482  0  3.727898  0  0  -0.293091  0  3.982135  0  0  -0.300569  0  4.001684  0  0  -0.119375  -0.288026  0  3.968978  0
C  C50  1  0.63489933  0.21267862  0.52116572  1  0  0.112515  0  3.818018  0  0  0.129524  0  4.043931  0  0  0.132604  0  4.068441  0  0  -0.007753  0.127559  0  4.027257  0
C  C51  1  0.36510034  0.78731986  0.47883359  1  0  0.112495  0  3.818014  0  0  0.12949  0  4.043925  0  0  0.13257  0  4.068435  0  0  -0.007745  0.127537  0  4.027241  0
C  C52  1  0.52662750  0.28331730  0.43732264  1  0  -0.272838  0  3.745639  0  0  -0.300327  0  4.001774  0  0  -0.307897  0  4.021893  0  0  -0.119544  -0.295201  0  3.988251  0
C  C53  1  0.47337251  0.71668382  0.56267812  1  0  -0.272856  0  3.745663  0  0  -0.300334  0  4.001804  0  0  -0.307905  0  4.021924  0  0  -0.119561  -0.295205  0  3.98827  0
C  C54  1  0.36129568  0.02045087  0.77402258  1  0  -0.075647  0  3.631712  0  0  -0.127099  0  3.885253  0  0  -0.125045  0  3.886971  0  0  -0.066775  -0.128719  0  3.884255  0
C  C55  1  0.63870529  0.97955144  0.22597508  1  0  -0.075863  0  3.631762  0  0  -0.127341  0  3.88529  0  0  -0.125327  0  3.88705  0  0  -0.066877  -0.12896  0  3.884299  0
C  C56  1  0.29763940  0.93722851  0.86793007  1  0  0.68427  0  3.86423  0  0  0.626544  0  4.171122  0  0  0.660976  0  4.163827  0  0  0.206589  0.602992  0  4.175424  0
C  C57  1  0.70236083  0.06276866  0.13206846  1  0  0.684399  0  3.864029  0  0  0.626658  0  4.170923  0  0  0.661101  0  4.163626  0  0  0.20665  0.603105  0  4.175227  0
O  O58  1  0.02673866  0.58853467  0.18043766  1  0  -0.656717  0  1.975288  0  0  -0.598193  0  2.211905  0  0  -0.625845  0  2.202395  0  0  -0.317977  -0.578682  0  2.217836  0
O  O59  1  0.97325637  0.41146779  0.81956342  1  0  -0.656676  0  1.975352  0  0  -0.598155  0  2.211995  0  0  -0.625808  0  2.202488  0  0  -0.317944  -0.578644  0  2.217924  0
O  O60  1  0.33428383  0.61799558  0.12942114  1  0  -0.641903  0  2.031099  0  0  -0.562588  0  2.272761  0  0  -0.594028  0  2.261214  0  0  -0.308544  -0.540521  0  2.279983  0
O  O61  1  0.66571380  0.38200424  0.87057905  1  0  -0.641904  0  2.03107  0  0  -0.562591  0  2.272743  0  0  -0.594032  0  2.261196  0  0  -0.308558  -0.540524  0  2.279968  0
O  O62  1  0.51439032  0.44592226  0.28262518  1  0  -0.267872  0  2.360872  0  0  -0.191443  0  2.588535  0  0  -0.209272  0  2.592707  0  0  -0.177738  -0.178926  0  2.585448  0
O  O63  1  0.48560767  0.55408014  0.71737494  1  0  -0.267866  0  2.361025  0  0  -0.191389  0  2.588649  0  0  -0.209255  0  2.592842  0  0  -0.17773  -0.178883  0  2.585564  0
O  O64  1  0.58011858  0.99290837  0.76353711  1  0  -0.259566  0  2.314862  0  0  -0.190256  0  2.54414  0  0  -0.206248  0  2.544115  0  0  -0.180279  -0.178751  0  2.543678  0
O  O65  1  0.41988436  0.00709274  0.23646421  1  0  -0.25953  0  2.314787  0  0  -0.190173  0  2.544039  0  0  -0.206153  0  2.544025  0  0  -0.180282  -0.178661  0  2.543574  0
O  O66  1  0.42920259  0.83365757  0.91788551  1  0  -0.610785  0  1.972936  0  0  -0.549924  0  2.203131  0  0  -0.576518  0  2.191868  0  0  -0.297131  -0.531423  0  2.210408  0
O  O67  1  0.57079361  0.16634217  0.08211175  1  0  -0.610872  0  1.972834  0  0  -0.550007  0  2.203044  0  0  -0.576602  0  2.19178  0  0  -0.297189  -0.531502  0  2.210319  0
O  O68  1  0.09726561  0.97107829  0.88958784  1  0  -0.708231  0  2.049841  0  0  -0.625723  0  2.309716  0  0  -0.659962  0  2.296936  0  0  -0.334692  -0.601501  0  2.317576  0
O  O69  1  0.90273502  0.02892138  0.11040837  1  0  -0.708228  0  2.049743  0  0  -0.625719  0  2.309626  0  0  -0.659972  0  2.296875  0  0  -0.334676  -0.601504  0  2.317494  0
O  O70  1  0.80730204  0.75675094  0.98234441  1  0  -0.873205  0  1.868265  0  0  -0.806053  0  2.065765  0  0  -0.829605  0  2.030037  0  0  -0.6038  -0.789374  0  2.090702  0
O  O71  1  0.19269403  0.24324907  0.01766116  1  0  -0.873328  0  1.868234  0  0  -0.806147  0  2.065646  0  0  -0.829693  0  2.029923  0  0  -0.603833  -0.78949  0  2.09054  0
O  O72  1  0.25221245  0.50334094  0.91472537  1  0  -0.851744  0  1.930854  0  0  -0.779967  0  2.131907  0  0  -0.804705  0  2.096276  0  0  -0.564136  -0.762359  0  2.156754  0
O  O73  1  0.74778774  0.49665634  0.08527695  1  0  -0.851745  0  1.930876  0  0  -0.779952  0  2.131922  0  0  -0.804686  0  2.096278  0  0  -0.564127  -0.762326  0  2.156785  0
