# generated using pymatgen
data_Cd3H62C72S2(N8O7)2
_symmetry_space_group_name_H-M   'P 1'
_cell_length_a   10.20753495
_cell_length_b   13.10645692
_cell_length_c   17.44887951
_cell_angle_alpha   79.67280026
_cell_angle_beta   85.61703717
_cell_angle_gamma   78.05080915
_symmetry_Int_Tables_number   1
_chemical_formula_structural   Cd3H62C72S2(N8O7)2
_chemical_formula_sum   'Cd3 H62 C72 S2 N16 O14'
_cell_volume   2244.93716713
_cell_formula_units_Z   1
loop_
 _symmetry_equiv_pos_site_id
 _symmetry_equiv_pos_as_xyz
  1  'x, y, z'
loop_
 _atom_site_type_symbol
 _atom_site_label
 _atom_site_symmetry_multiplicity
 _atom_site_fract_x
 _atom_site_fract_y
 _atom_site_fract_z
 _atom_site_occupancy
 _atom_site_pbe_bader_charge
 _atom_site_pbe_bader_spin_density
 _atom_site_pbe_cm5_charge
 _atom_site_pbe_ddec_charge
 _atom_site_pbe_ddec_spin_density
 _atom_site_pbe_ddec_sum_bond_order
 _atom_site_pbe_magmom
Cd  Cd0  1  0.95386773  0.90141007  0.79939710  1  1.219276  0  0.775055  0.829685  0  2.244364  0
Cd  Cd1  1  0.04613176  0.09858873  0.20060355  1  1.21925  0  0.775052  0.829698  0  2.244288  0
Cd  Cd2  1  0.49999854  0.50000020  0.50000227  1  1.271445  0  0.797675  0.852243  0  2.23404  0
H  H3  1  0.59733460  0.19414883  0.69651329  1  0.117571  0  0.107127  0.109596  0  1.030177  0
H  H4  1  0.46788343  0.90557143  0.79956326  1  0.095951  0  0.103414  0.110056  0  1.021742  0
H  H5  1  0.17764761  0.18042654  0.70921910  1  0.098149  0  0.108654  0.115774  0  1.022324  0
H  H6  1  0.22313454  0.73908683  0.72723356  1  0.120877  0  0.115271  0.115252  0  1.029943  0
H  H7  1  0.19470033  0.56555733  0.66123480  1  0.183661  0  0.124779  0.135366  0  1.0348  0
H  H8  1  0.81474483  0.72007083  0.73974006  1  0.127187  0  0.137488  0.111466  0  1.009764  0
H  H9  1  0.82616109  0.58407519  0.64199388  1  0.049501  0  0.11048  0.09184  0  1.0121  0
H  H10  1  0.98720197  0.51751515  0.61520040  1  0.091373  0  0.114836  0.101361  0  1.010741  0
H  H11  1  0.07890095  0.45962425  0.79244956  1  0.090338  0  0.103971  0.11403  0  1.008152  0
H  H12  1  0.06108998  0.30115263  0.88828704  1  0.088338  0  0.099317  0.099508  0  1.024836  0
H  H13  1  0.72885495  0.25574952  0.76892191  1  0.055802  0  0.099918  0.105734  0  1.020283  0
H  H14  1  0.74126451  0.41963230  0.67465323  1  0.09085  0  0.09905  0.104831  0  1.024325  0
H  H15  1  0.90500696  0.09970054  0.85488844  1  0.123487  0  0.11227  0.104507  0  1.029517  0
H  H16  1  0.78299703  0.16700227  0.91525526  1  0.060509  0  0.121635  0.107357  0  0.950094  0
H  H17  1  0.16539561  0.09510216  0.89031178  1  0.148011  0  0.12622  0.12936  0  1.020996  0
H  H18  1  0.26197347  0.07161822  0.03945905  1  0.121702  0  0.123799  0.122517  0  0.987774  0
H  H19  1  0.84151671  0.16742965  0.05144337  1  0.19484  0  0.140664  0.119096  0  0.992961  0
H  H20  1  0.40266574  0.80584677  0.30348375  1  0.117479  0  0.10713  0.109605  0  1.030219  0
H  H21  1  0.53211664  0.09442500  0.20043826  1  0.096013  0  0.103439  0.110118  0  1.02175  0
H  H22  1  0.82235210  0.81956749  0.29078047  1  0.098131  0  0.108671  0.115788  0  1.022329  0
H  H23  1  0.77687142  0.26091355  0.27276718  1  0.120962  0  0.115295  0.115295  0  1.029863  0
H  H24  1  0.80530696  0.43444150  0.33876954  1  0.183696  0  0.124713  0.135308  0  1.03481  0
H  H25  1  0.18526275  0.27993506  0.26025642  1  0.127071  0  0.137469  0.11143  0  1.00979  0
H  H26  1  0.17384310  0.41593231  0.35800539  1  0.049483  0  0.110443  0.091794  0  1.012159  0
H  H27  1  0.01280046  0.48248760  0.38479959  1  0.091282  0  0.114836  0.101344  0  1.010744  0
H  H28  1  0.92109772  0.54038168  0.20755186  1  0.090346  0  0.104005  0.114076  0  1.008136  0
H  H29  1  0.93891128  0.69885091  0.11171232  1  0.088284  0  0.099363  0.099598  0  1.024788  0
H  H30  1  0.27114651  0.74425718  0.23107643  1  0.055696  0  0.099949  0.105775  0  1.020253  0
H  H31  1  0.25873714  0.58037361  0.32534578  1  0.090857  0  0.099057  0.104787  0  1.024354  0
H  H32  1  0.09499927  0.90030297  0.14510670  1  0.12357  0  0.112279  0.104542  0  1.029444  0
H  H33  1  0.21700742  0.83299651  0.08474175  1  0.060418  0  0.121716  0.107472  0  0.949945  0
H  H34  1  0.83461116  0.90489900  0.10968768  1  0.148064  0  0.126229  0.129404  0  1.021008  0
H  H35  1  0.73802875  0.92838533  0.96054141  1  0.121726  0  0.123773  0.122442  0  0.987709  0
H  H36  1  0.15848558  0.83256992  0.94855362  1  0.194803  0  0.140664  0.119063  0  0.993023  0
H  H37  1  0.84305325  0.51300159  0.47774349  1  0.123322  0  0.10976  0.109041  0  1.061099  0
H  H38  1  0.04352842  0.34531904  0.54516653  1  0.174924  0  0.120972  0.138801  0  1.041237  0
H  H39  1  0.67179475  0.24669332  0.56193632  1  0.137945  0  0.137006  0.112799  0  0.999497  0
H  H40  1  0.03467120  0.16999922  0.62427844  1  0.102889  0  0.121685  0.120363  0  0.970102  0
H  H41  1  0.87847476  0.13519954  0.65115596  1  0.135011  0  0.117677  0.122568  0  0.99805  0
H  H42  1  0.03465790  0.95322183  0.64188255  1  0.068389  0  0.0941  0.09411  0  1.058316  0
H  H43  1  0.91647317  0.18680300  0.43957735  1  0.095711  0  0.094239  0.091631  0  1.057591  0
H  H44  1  0.64549273  0.70678330  0.50756732  1  0.215668  0  0.131722  0.108073  0  1.033099  0
H  H45  1  0.51957253  0.71550607  0.74397149  1  0.138603  0  0.129872  0.136482  0  0.988964  0
H  H46  1  0.45557957  0.53793978  0.69774557  1  0.161077  0  0.121685  0.129349  0  1.005878  0
H  H47  1  0.75055782  0.82733828  0.60512597  1  0.089879  0  0.109956  0.09363  0  0.984819  0
H  H48  1  0.62593853  0.86204647  0.67703758  1  0.122035  0  0.114574  0.107037  0  1.021739  0
H  H49  1  0.37091605  0.90028476  0.60299300  1  0.076678  0  0.102736  0.107091  0  0.996728  0
H  H50  1  0.74897299  0.96308205  0.49835514  1  0.047133  0  0.095464  0.097246  0  1.045292  0
H  H51  1  0.15694564  0.48699563  0.52225797  1  0.123247  0  0.109762  0.109095  0  1.061089  0
H  H52  1  0.95647127  0.65467501  0.45483476  1  0.174618  0  0.120949  0.138755  0  1.041312  0
H  H53  1  0.32819958  0.75330628  0.43806729  1  0.138002  0  0.136983  0.112787  0  0.999542  0
H  H54  1  0.96532913  0.82999639  0.37571918  1  0.102837  0  0.121672  0.120307  0  0.970218  0
H  H55  1  0.12152552  0.86479609  0.34884509  1  0.135022  0  0.117701  0.122596  0  0.998038  0
H  H56  1  0.96533612  0.04677537  0.35811624  1  0.068397  0  0.094074  0.094103  0  1.058296  0
H  H57  1  0.08352065  0.81319499  0.56042135  1  0.095678  0  0.094227  0.091585  0  1.057683  0
H  H58  1  0.35450715  0.29321392  0.49243410  1  0.215637  0  0.131718  0.108103  0  1.033077  0
H  H59  1  0.48042281  0.28450143  0.25602870  1  0.138368  0  0.129908  0.136497  0  0.988962  0
H  H60  1  0.54441594  0.46206695  0.30225701  1  0.160919  0  0.121659  0.129284  0  1.006012  0
H  H61  1  0.24944247  0.17266129  0.39487339  1  0.08989  0  0.109952  0.09363  0  0.98485  0
H  H62  1  0.37406293  0.13795627  0.32296130  1  0.122081  0  0.11459  0.107086  0  1.021757  0
H  H63  1  0.62908662  0.09971322  0.39700476  1  0.076655  0  0.102722  0.107069  0  0.996729  0
H  H64  1  0.25102829  0.03691752  0.50164361  1  0.047166  0  0.095486  0.097289  0  1.045274  0
C  C65  1  0.38414028  0.19871183  0.69871430  1  -0.097638  0  -0.018491  -0.074738  0  3.959253  0
C  C66  1  0.51696508  0.15051169  0.71364635  1  -0.121777  0  -0.07447  -0.09462  0  3.929471  0
C  C67  1  0.54739700  0.04457040  0.75036524  1  0.026973  0  -0.021404  -0.030535  0  3.988761  0
C  C68  1  0.68909553  0.99082696  0.76720737  1  1.524369  0  0.181737  0.542884  0  4.246267  0
C  C69  1  0.44454375  0.98791459  0.77124379  1  -0.046601  0  -0.07832  -0.108918  0  3.945125  0
C  C70  1  0.31159138  0.03615368  0.75619153  1  -0.011054  0  -0.021131  -0.033806  0  3.98928  0
C  C71  1  0.20279437  0.97293721  0.77684905  1  1.546356  0  0.182961  0.539229  0  4.272993  0
C  C72  1  0.28132269  0.14239979  0.72039282  1  -0.010824  0  -0.071572  -0.093238  0  3.928648  0
C  C73  1  0.13443412  0.70993765  0.71846364  1  0.389004  0  -0.006094  -0.037481  0  3.99709  0
C  C74  1  0.12155257  0.62556437  0.68489629  1  0.310372  0  0.007868  -0.091816  0  3.894173  0
C  C75  1  0.92165235  0.70355007  0.72628297  1  0.990276  0  0.136468  0.080669  0  3.923799  0
C  C76  1  0.92462590  0.54447478  0.66449382  1  0.324971  0  -0.045726  -0.111827  0  3.905507  0
C  C77  1  0.91130572  0.45086908  0.72693534  1  -0.057339  0  -0.01838  0.078723  0  3.986948  0
C  C78  1  0.99969303  0.41701540  0.78766209  1  -0.032942  0  -0.093584  -0.121738  0  3.987783  0
C  C79  1  0.99038991  0.32612661  0.84162732  1  -0.012423  0  -0.098775  -0.140514  0  4.010296  0
C  C80  1  0.89405799  0.26693519  0.83499541  1  -0.035844  0  -0.01498  0.090538  0  3.976472  0
C  C81  1  0.80433329  0.30166147  0.77446384  1  -0.056372  0  -0.093261  -0.126196  0  3.97282  0
C  C82  1  0.81217913  0.39315528  0.72128840  1  -0.06097  0  -0.093448  -0.132129  0  3.994525  0
C  C83  1  0.88466356  0.16446201  0.88893515  1  0.293886  0  -0.042772  -0.113824  0  3.903314  0
C  C84  1  0.11452852  0.10590286  0.94590645  1  0.230726  0  0.006707  -0.097592  0  3.916925  0
C  C85  1  0.16042012  0.09486966  0.01951017  1  0.443692  0  -0.005085  -0.043688  0  4.022168  0
C  C86  1  0.94326987  0.14591298  0.02817047  1  0.936875  0  0.143971  0.086153  0  3.926661  0
C  C87  1  0.61585884  0.80128458  0.30128496  1  -0.097565  0  -0.018478  -0.074733  0  3.959162  0
C  C88  1  0.48303265  0.84948630  0.28635333  1  -0.121778  0  -0.074492  -0.094632  0  3.929592  0
C  C89  1  0.45260210  0.95542602  0.24963575  1  0.026911  0  -0.021407  -0.030521  0  3.988793  0
C  C90  1  0.31090353  0.00916948  0.23279591  1  1.524325  0  0.181701  0.542802  0  4.246393  0
C  C91  1  0.55545634  0.01208182  0.22875601  1  -0.046531  0  -0.078346  -0.109005  0  3.945171  0
C  C92  1  0.68840793  0.96384194  0.24380898  1  -0.010805  0  -0.021084  -0.033791  0  3.989377  0
C  C93  1  0.79720514  0.02705762  0.22315099  1  1.545753  0  0.182926  0.539173  0  4.27324  0
C  C94  1  0.71867683  0.85759504  0.27960608  1  -0.010808  0  -0.071599  -0.09319  0  3.928684  0
C  C95  1  0.86557066  0.29006352  0.28153761  1  0.389178  0  -0.006119  -0.037587  0  3.997045  0
C  C96  1  0.87845416  0.37443681  0.31510545  1  0.309824  0  0.008003  -0.091658  0  3.894095  0
C  C97  1  0.07835538  0.29645506  0.27371648  1  0.990461  0  0.136463  0.080613  0  3.923964  0
C  C98  1  0.07537691  0.45553035  0.33550640  1  0.325104  0  -0.045696  -0.111752  0  3.905694  0
C  C99  1  0.08869435  0.54913526  0.27306453  1  -0.057234  0  -0.018374  0.07865  0  3.986964  0
C  C100  1  0.00030447  0.58299131  0.21233812  1  -0.03294  0  -0.093636  -0.121791  0  3.987765  0
C  C101  1  0.00960956  0.67388009  0.15837224  1  -0.012479  0  -0.098877  -0.140687  0  4.010408  0
C  C102  1  0.10594288  0.73306993  0.16500317  1  -0.035764  0  -0.014893  0.090759  0  3.976228  0
C  C103  1  0.19566658  0.69834365  0.22553593  1  -0.056183  0  -0.093286  -0.126257  0  3.972893  0
C  C104  1  0.18782053  0.60685065  0.27871241  1  -0.061187  0  -0.093479  -0.132078  0  3.994696  0
C  C105  1  0.11534107  0.83553993  0.11106199  1  0.293901  0  -0.042856  -0.114074  0  3.903178  0
C  C106  1  0.88547608  0.89409909  0.05409241  1  0.230761  0  0.006697  -0.097705  0  3.917014  0
C  C107  1  0.83958389  0.90513467  0.98048896  1  0.443744  0  -0.005036  -0.043552  0  4.022152  0
C  C108  1  0.05673123  0.85408738  0.97182703  1  0.937335  0  0.143984  0.086169  0  3.926637  0
C  C109  1  0.83871601  0.43245103  0.50487256  1  0.412297  0  -0.015321  -0.058177  0  4.041346  0
C  C110  1  0.93809140  0.35090921  0.53607546  1  0.224974  0  -0.002088  -0.115106  0  3.906541  0
C  C111  1  0.74476745  0.29715140  0.54653164  1  0.9812  0  0.138481  0.095351  0  3.910712  0
C  C112  1  0.94167107  0.16149496  0.60058595  1  0.291866  0  -0.04562  -0.120305  0  3.874593  0
C  C113  1  0.97124574  0.07970921  0.54718621  1  -0.046593  0  -0.013694  0.086668  0  3.976769  0
C  C114  1  0.01829023  0.97376806  0.57953993  1  -0.098197  0  -0.096975  -0.130657  0  3.9862  0
C  C115  1  0.95345725  0.10512467  0.46676441  1  -0.036394  0  -0.101072  -0.150128  0  4.018557  0
C  C116  1  0.60262191  0.68366130  0.56541683  1  0.921509  0  0.132553  0.081719  0  3.913338  0
C  C117  1  0.53607626  0.68598152  0.68908535  1  0.244633  0  0.000344  -0.120659  0  3.925251  0
C  C118  1  0.50464896  0.59948131  0.66538066  1  0.415894  0  -0.000865  -0.030075  0  3.995249  0
C  C119  1  0.64213667  0.83918937  0.61896032  1  0.246792  0  -0.048081  -0.118679  0  3.89959  0
C  C120  1  0.56812325  0.92274882  0.55767330  1  -0.048484  0  -0.014777  0.085567  0  3.985248  0
C  C121  1  0.42792325  0.94393814  0.55788204  1  -0.023172  0  -0.092154  -0.124783  0  3.982932  0
C  C122  1  0.63959422  0.97935575  0.49933329  1  -0.027762  0  -0.092816  -0.128908  0  3.982461  0
C  C123  1  0.16128402  0.56754541  0.49513183  1  0.412222  0  -0.015294  -0.058253  0  4.041439  0
C  C124  1  0.06190731  0.64908483  0.46392530  1  0.22542  0  -0.002176  -0.115079  0  3.906754  0
C  C125  1  0.25522690  0.70284820  0.45347140  1  0.981315  0  0.138455  0.095385  0  3.910772  0
C  C126  1  0.05832490  0.83850225  0.39941391  1  0.291805  0  -0.045637  -0.120258  0  3.874787  0
C  C127  1  0.02874749  0.92028720  0.45281272  1  -0.046585  0  -0.013654  0.086781  0  3.976821  0
C  C128  1  0.98170221  0.02622756  0.42045972  1  -0.097903  0  -0.097  -0.130745  0  3.986147  0
C  C129  1  0.04653599  0.89487174  0.53323453  1  -0.036091  0  -0.101137  -0.150172  0  4.018794  0
C  C130  1  0.39737835  0.31633829  0.43458425  1  0.921787  0  0.132503  0.08163  0  3.913358  0
C  C131  1  0.46392143  0.31402441  0.31091554  1  0.244982  0  0.000327  -0.120685  0  3.925306  0
C  C132  1  0.49534833  0.40052224  0.33462171  1  0.415882  0  -0.000844  -0.030001  0  3.995323  0
C  C133  1  0.35786440  0.16081100  0.38103890  1  0.246774  0  -0.048066  -0.118734  0  3.899607  0
C  C134  1  0.43187898  0.07725076  0.44232713  1  -0.048481  0  -0.014829  0.085559  0  3.985264  0
C  C135  1  0.57207922  0.05606063  0.44211563  1  -0.023453  0  -0.092132  -0.124732  0  3.982898  0
C  C136  1  0.36040726  0.02064303  0.50066556  1  -0.028066  0  -0.092789  -0.128904  0  3.982501  0
S  S137  1  0.34155657  0.33390996  0.65160091  1  3.192113  0  0.499378  1.167115  0  6.217876  0
S  S138  1  0.65843589  0.66608170  0.34839871  1  3.192305  0  0.499393  1.16696  0  6.217988  0
N  N139  1  0.00887967  0.75792412  0.74366876  1  -1.224635  0  -0.366416  -0.293095  0  3.595719  0
N  N140  1  0.98635813  0.62303225  0.69004299  1  -1.243976  0  -0.239103  0.047812  0  3.782829  0
N  N141  1  0.97681773  0.13818926  0.95251328  1  -1.226862  0  -0.240031  0.048887  0  3.792671  0
N  N142  1  0.05243987  0.11971576  0.07018972  1  -1.214826  0  -0.366771  -0.294871  0  3.581841  0
N  N143  1  0.99112727  0.24208022  0.25633140  1  -1.224785  0  -0.36638  -0.292997  0  3.595676  0
N  N144  1  0.01364820  0.37697052  0.30995855  1  -1.243593  0  -0.239146  0.047825  0  3.782856  0
N  N145  1  0.02318789  0.86181268  0.04748382  1  -1.227431  0  -0.240071  0.048909  0  3.792688  0
N  N146  1  0.94755864  0.88028698  0.92980985  1  -1.214855  0  -0.366781  -0.294855  0  3.581871  0
N  N147  1  0.71872753  0.39784892  0.51161689  1  -1.208223  0  -0.358  -0.304929  0  3.512305  0
N  N148  1  0.87655371  0.26599967  0.56256333  1  -1.244867  0  -0.244675  0.046097  0  3.800927  0
N  N149  1  0.54673085  0.59940424  0.58821632  1  -1.215576  0  -0.354219  -0.289861  0  3.521463  0
N  N150  1  0.59841214  0.73820369  0.62509538  1  -1.252196  0  -0.248116  0.033493  0  3.796404  0
N  N151  1  0.28126976  0.60215068  0.48838660  1  -1.208179  0  -0.358037  -0.30493  0  3.512281  0
N  N152  1  0.12344026  0.73399755  0.43743890  1  -1.245  0  -0.244526  0.046039  0  3.800977  0
N  N153  1  0.45326723  0.40059615  0.41178646  1  -1.215506  0  -0.354233  -0.289852  0  3.521434  0
N  N154  1  0.40158538  0.26179906  0.37490480  1  -1.252466  0  -0.248073  0.033538  0  3.79637  0
O  O155  1  0.46200997  0.35207686  0.60192324  1  -1.342462  0  -0.357835  -0.632366  0  2.301882  0
O  O156  1  0.31386997  0.39902688  0.71289059  1  -1.33327  0  -0.351481  -0.597554  0  2.143496  0
O  O157  1  0.22562924  0.33824511  0.60500161  1  -1.350294  0  -0.356159  -0.622133  0  2.196434  0
O  O158  1  0.77955670  0.04715808  0.75715234  1  -1.151214  0  -0.327696  -0.548599  0  2.216473  0
O  O159  1  0.71481941  0.89119559  0.79098640  1  -1.174848  0  -0.343114  -0.571964  0  2.148476  0
O  O160  1  0.23077881  0.87801377  0.81040497  1  -1.191324  0  -0.341981  -0.572382  0  2.112369  0
O  O161  1  0.08356138  0.02223779  0.75785079  1  -1.15226  0  -0.338122  -0.554696  0  2.262559  0
O  O162  1  0.53797990  0.64792113  0.39807676  1  -1.34266  0  -0.357808  -0.632312  0  2.301676  0
O  O163  1  0.68611369  0.60096871  0.28710541  1  -1.333462  0  -0.351511  -0.597513  0  2.143451  0
O  O164  1  0.77436717  0.66174258  0.39499724  1  -1.350179  0  -0.35615  -0.622066  0  2.19663  0
O  O165  1  0.22044217  0.95283915  0.24285084  1  -1.151196  0  -0.327677  -0.548588  0  2.216643  0
O  O166  1  0.28518007  0.10880321  0.20901482  1  -1.174782  0  -0.34309  -0.571914  0  2.148416  0
O  O167  1  0.76922068  0.12198107  0.18959622  1  -1.191157  0  -0.342035  -0.572415  0  2.112564  0
O  O168  1  0.91643951  0.97775942  0.24214887  1  -1.152028  0  -0.338067  -0.554618  0  2.262611  0
