# generated using pymatgen
data_Ag2H10C15NO4
_symmetry_space_group_name_H-M   'P 1'
_cell_length_a   8.01807504
_cell_length_b   10.28828549
_cell_length_c   17.37800000
_cell_angle_alpha   98.84059965
_cell_angle_beta   96.77053933
_cell_angle_gamma   104.98020735
_symmetry_Int_Tables_number   1
_chemical_formula_structural   Ag2H10C15NO4
_chemical_formula_sum   'Ag8 H40 C60 N4 O16'
_cell_volume   1349.59470198
_cell_formula_units_Z   4
loop_
 _symmetry_equiv_pos_site_id
 _symmetry_equiv_pos_as_xyz
  1  'x, y, z'
loop_
 _atom_site_type_symbol
 _atom_site_label
 _atom_site_symmetry_multiplicity
 _atom_site_fract_x
 _atom_site_fract_y
 _atom_site_fract_z
 _atom_site_occupancy
 _atom_site_hle17_bader_spin_density
 _atom_site_hle17_ddec_charge
 _atom_site_hle17_ddec_spin_density
 _atom_site_hle17_ddec_sum_bond_order
 _atom_site_hle17_magmom
 _atom_site_hse06_10hf_bader_spin_density
 _atom_site_hse06_10hf_ddec_charge
 _atom_site_hse06_10hf_ddec_spin_density
 _atom_site_hse06_10hf_ddec_sum_bond_order
 _atom_site_hse06_10hf_magmom
 _atom_site_hse06_bader_spin_density
 _atom_site_hse06_ddec_charge
 _atom_site_hse06_ddec_spin_density
 _atom_site_hse06_ddec_sum_bond_order
 _atom_site_hse06_magmom
 _atom_site_pbe_bader_charge
 _atom_site_pbe_bader_spin_density
 _atom_site_pbe_cm5_charge
 _atom_site_pbe_ddec_charge
 _atom_site_pbe_ddec_spin_density
 _atom_site_pbe_ddec_sum_bond_order
 _atom_site_pbe_magmom
Ag  Ag0  1  0.41754753  0.95514098  0.41613620  1  0  0.481192  0  1.621146  0  0  0.361764  0  2.11273  0  0  0.400539  0  2.043039  0  0.545016  0  0.401587  0.335455  0  2.159969  0
Ag  Ag1  1  0.58245093  0.04485956  0.58386342  1  0  0.481196  0  1.621167  0  0  0.361747  0  2.112793  0  0  0.40052  0  2.043099  0  0.544893  0  0.401578  0.335437  0  2.160031  0
Ag  Ag2  1  0.24448034  0.09019277  0.51963239  1  0  0.554282  0  1.511788  0  0  0.443138  0  1.977839  0  0  0.475324  0  1.916075  0  0.615411  0  0.421007  0.421601  0  2.019449  0
Ag  Ag3  1  0.75552063  0.90980776  0.48036852  1  0  0.554301  0  1.511771  0  0  0.443165  0  1.977798  0  0  0.475349  0  1.916036  0  0.615405  0  0.421017  0.421629  0  2.019408  0
Ag  Ag4  1  0.42293944  0.53575258  0.91581650  1  0  0.489087  0  1.593357  0  0  0.365259  0  2.081864  0  0  0.402689  0  2.014827  0  0.576055  0  0.402675  0.339986  0  2.127429  0
Ag  Ag5  1  0.57706101  0.46425001  0.08418342  1  0  0.489089  0  1.593369  0  0  0.365274  0  2.081891  0  0  0.402705  0  2.01485  0  0.576047  0  0.402676  0.340003  0  2.127452  0
Ag  Ag6  1  0.35892712  0.64618162  0.06284016  1  0  0.51615  0  1.573722  0  0  0.412217  0  2.041534  0  0  0.442178  0  1.985361  0  0.564265  0  0.416872  0.391625  0  2.08014  0
Ag  Ag7  1  0.64107547  0.35381994  0.93716035  1  0  0.51615  0  1.573692  0  0  0.412235  0  2.04149  0  0  0.442195  0  1.98532  0  0.564294  0  0.416866  0.391645  0  2.080095  0
H  H8  1  0.66938969  0.47846809  0.54232229  1  0  0.098665  0  0.949603  0  0  0.109856  0  1.012011  0  0  0.112977  0  1.009808  0  0.074244  0  0.104888  0.107545  0  1.013755  0
H  H9  1  0.33060802  0.52153039  0.45767652  1  0  0.098648  0  0.949651  0  0  0.109848  0  1.012048  0  0  0.112966  0  1.009852  0  0.074227  0  0.104879  0.107536  0  1.013793  0
H  H10  1  0.06338375  0.64532554  0.28823409  1  0  0.090933  0  0.998671  0  0  0.102626  0  1.059675  0  0  0.105129  0  1.059121  0  0.077197  0  0.096068  0.100777  0  1.060229  0
H  H11  1  0.93662010  0.35467602  0.71176764  1  0  0.090898  0  0.998692  0  0  0.102615  0  1.05967  0  0  0.105119  0  1.059118  0  0.077236  0  0.096064  0.100766  0  1.060225  0
H  H12  1  0.75299406  0.24332016  0.16778043  1  0  0.086666  0  0.972758  0  0  0.098023  0  1.034898  0  0  0.100391  0  1.034448  0  0.07205  0  0.097443  0.096225  0  1.035473  0
H  H13  1  0.24700802  0.75668346  0.83221909  1  0  0.086646  0  0.972834  0  0  0.097999  0  1.034977  0  0  0.100367  0  1.034527  0  0.072034  0  0.09745  0.0962  0  1.03555  0
H  H14  1  0.62525020  0.20531743  0.28782289  1  0  0.094968  0  1.002036  0  0  0.10629  0  1.062569  0  0  0.108876  0  1.061609  0  0.081638  0  0.100002  0.104401  0  1.063377  0
H  H15  1  0.37475113  0.79468413  0.71217583  1  0  0.094955  0  1.002055  0  0  0.106286  0  1.062574  0  0  0.10887  0  1.06162  0  0.081615  0  0.1  0.104397  0  1.063383  0
H  H16  1  0.89509215  0.69570809  0.54462141  1  0  0.10285  0  0.932415  0  0  0.117651  0  0.985635  0  0  0.120731  0  0.983612  0  0.097907  0  0.106834  0.115315  0  0.987162  0
H  H17  1  0.10490505  0.30429245  0.45537872  1  0  0.102862  0  0.932429  0  0  0.117678  0  0.985632  0  0  0.120758  0  0.983607  0  0.097897  0  0.106855  0.115343  0  0.987158  0
H  H18  1  0.97374380  0.46334677  0.16767101  1  0  0.097411  0  0.972529  0  0  0.105374  0  1.039053  0  0  0.108965  0  1.036566  0  0.104465  0  0.098467  0.102699  0  1.041027  0
H  H19  1  0.02625916  0.53665582  0.83232904  1  0  0.097362  0  0.972559  0  0  0.105305  0  1.039106  0  0  0.108913  0  1.036599  0  0.104483  0  0.098447  0.102632  0  1.041078  0
H  H20  1  0.52040652  0.35856374  0.61331728  1  0  0.105009  0  0.949868  0  0  0.110677  0  1.017559  0  0  0.113792  0  1.015323  0  0.13006  0  0.119036  0.108305  0  1.019537  0
H  H21  1  0.47959999  0.64143474  0.38668490  1  0  0.10498  0  0.949929  0  0  0.110605  0  1.017665  0  0  0.113721  0  1.015428  0  0.130023  0  0.119022  0.108237  0  1.019638  0
H  H22  1  0.23205001  0.22954395  0.83159908  1  0  0.113011  0  0.947501  0  0  0.117427  0  1.013823  0  0  0.120946  0  1.011279  0  0.142508  0  0.120553  0.114842  0  1.015895  0
H  H23  1  0.76795059  0.77045556  0.16840171  1  0  0.113024  0  0.947518  0  0  0.117424  0  1.013864  0  0  0.120943  0  1.011317  0  0.142531  0  0.120544  0.114835  0  1.015945  0
H  H24  1  0.73123532  0.56358488  0.80225814  1  0  0.137578  0  0.953851  0  0  0.156448  0  1.01804  0  0  0.158118  0  1.017283  0  0.099287  0  0.09997  0.155141  0  1.018677  0
H  H25  1  0.26876601  0.43641668  0.19774173  1  0  0.137593  0  0.953826  0  0  0.156464  0  1.018014  0  0  0.158133  0  1.017258  0  0.099392  0  0.099973  0.155157  0  1.018652  0
H  H26  1  0.69404576  0.57316374  0.70000018  1  0  0.126372  0  0.930347  0  0  0.15026  0  0.98193  0  0  0.151533  0  0.982225  0  0.051668  0  0.098094  0.149334  0  0.981688  0
H  H27  1  0.30595610  0.42683577  0.29999953  1  0  0.126384  0  0.930337  0  0  0.150273  0  0.981913  0  0  0.151547  0  0.982207  0  0.051679  0  0.098101  0.149348  0  0.981671  0
H  H28  1  0.56991869  0.63885318  0.76735093  1  0  0.132932  0  0.95137  0  0  0.152571  0  1.014044  0  0  0.153422  0  1.014799  0  0.096773  0  0.098597  0.151869  0  1.013645  0
H  H29  1  0.43008066  0.36114633  0.23264864  1  0  0.132915  0  0.951387  0  0  0.152559  0  1.014054  0  0  0.15341  0  1.014809  0  0.096755  0  0.098586  0.151857  0  1.013655  0
H  H30  1  0.18021356  0.95028338  0.66332188  1  0  0.141285  0  0.943429  0  0  0.159238  0  1.007224  0  0  0.161309  0  1.006156  0  0.099929  0  0.10047  0.15751  0  1.008359  0
H  H31  1  0.81978578  0.04971614  0.33667769  1  0  0.141287  0  0.943415  0  0  0.159247  0  1.007207  0  0  0.161318  0  1.00614  0  0.099951  0  0.100473  0.157519  0  1.00834  0
H  H32  1  0.09290854  0.99982112  0.74992735  1  0  0.124457  0  0.936626  0  0  0.148516  0  0.988418  0  0  0.149808  0  0.988877  0  0.069194  0  0.0985  0.147645  0  0.987939  0
H  H33  1  0.90709080  0.00017839  0.25007280  1  0  0.124472  0  0.93663  0  0  0.148534  0  0.988418  0  0  0.149827  0  0.988875  0  0.069213  0  0.098519  0.147663  0  0.987937  0
H  H34  1  0.00733986  0.02792662  0.65665985  1  0  0.126644  0  0.944995  0  0  0.143468  0  1.016069  0  0  0.145455  0  1.01378  0  0.093105  0  0.095834  0.141981  0  1.017705  0
H  H35  1  0.99266148  0.97207494  0.34334060  1  0  0.126662  0  0.945014  0  0  0.143495  0  1.01608  0  0  0.145476  0  1.013797  0  0.093113  0  0.095837  0.142006  0  1.017718  0
H  H36  1  0.94884575  0.33041464  0.85738540  1  0  0.110517  0  0.984689  0  0  0.120695  0  1.044295  0  0  0.123557  0  1.043353  0  0.116302  0  0.102748  0.118807  0  1.044801  0
H  H37  1  0.05115145  0.66958589  0.14261358  1  0  0.110514  0  0.984649  0  0  0.120694  0  1.044254  0  0  0.123555  0  1.043318  0  0.116309  0  0.102765  0.118807  0  1.04476  0
H  H38  1  0.05747610  0.23246282  0.11615567  1  0  0.104742  0  0.939988  0  0  0.118485  0  0.995089  0  0  0.121362  0  0.994073  0  0.120343  0  0.10865  0.116517  0  0.995711  0
H  H39  1  0.94252560  0.76753977  0.88384374  1  0  0.104747  0  0.939989  0  0  0.118492  0  0.995089  0  0  0.121368  0  0.994075  0  0.120347  0  0.108636  0.116524  0  0.995711  0
H  H40  1  0.53459639  0.87280055  0.84552277  1  0  0.09791  0  0.998914  0  0  0.10715  0  1.063109  0  0  0.110201  0  1.061551  0  0.131495  0  0.100394  0.105022  0  1.064259  0
H  H41  1  0.46540761  0.12719793  0.15447696  1  0  0.097913  0  0.998829  0  0  0.107161  0  1.063016  0  0  0.110202  0  1.06147  0  0.131514  0  0.1004  0.10503  0  1.064175  0
H  H42  1  0.83860185  0.00801228  0.11193639  1  0  0.095132  0  0.950144  0  0  0.107129  0  1.010325  0  0  0.110403  0  1.008475  0  0.088497  0  0.103233  0.104786  0  1.011828  0
H  H43  1  0.16139771  0.99199133  0.88806357  1  0  0.09512  0  0.950125  0  0  0.107102  0  1.010322  0  0  0.11038  0  1.008471  0  0.088474  0  0.10323  0.104759  0  1.011825  0
H  H44  1  0.73315706  0.21619117  0.73630805  1  0  0.080284  0  0.990939  0  0  0.090216  0  1.05769  0  0  0.092839  0  1.05657  0  0.057925  0  0.09006  0.088419  0  1.058368  0
H  H45  1  0.26683637  0.78380936  0.26369187  1  0  0.080348  0  0.990867  0  0  0.090233  0  1.057665  0  0  0.092856  0  1.056545  0  0.057895  0  0.090071  0.088439  0  1.058334  0
H  H46  1  0.52887841  0.98578348  0.72980000  1  0  0.08053  0  1.00082  0  0  0.091009  0  1.066123  0  0  0.093736  0  1.06466  0  0.068461  0  0.088525  0.089051  0  1.067246  0
H  H47  1  0.47111768  0.01421398  0.27019921  1  0  0.080561  0  1.000839  0  0  0.091046  0  1.066134  0  0  0.093779  0  1.06466  0  0.068504  0  0.088542  0.089087  0  1.067262  0
C  C48  1  0.77007828  0.40267282  0.35800268  1  0  0.044178  0  3.736826  0  0  0.0551  0  3.961322  0  0  0.055005  0  3.986717  0  -0.022727  0  -0.002963  0.055269  0  3.944531  0
C  C49  1  0.22992143  0.59732772  0.64199643  1  0  0.044163  0  3.73679  0  0  0.055115  0  3.961274  0  0  0.055008  0  3.986659  0  -0.022745  0  -0.002934  0.055287  0  3.944481  0
C  C50  1  0.89817531  0.53044284  0.35829517  1  0  0.045105  0  3.737312  0  0  0.055316  0  3.964405  0  0  0.055381  0  3.989514  0  -0.018992  0  -0.004512  0.055404  0  3.947493  0
C  C51  1  0.10182692  0.46955770  0.64170465  1  0  0.045054  0  3.737356  0  0  0.055272  0  3.964449  0  0  0.055335  0  3.989563  0  -0.018954  0  -0.004517  0.055359  0  3.947537  0
C  C52  1  0.94450161  0.63531096  0.42804113  1  0  -0.103053  0  3.72285  0  0  -0.086265  0  3.962315  0  0  -0.093576  0  3.984076  0  -0.038827  0  -0.014042  -0.08194  0  3.947655  0
C  C53  1  0.05549988  0.36468753  0.57195905  1  0  -0.103115  0  3.722808  0  0  -0.086329  0  3.962319  0  0  -0.093641  0  3.984078  0  -0.038911  0  -0.014051  -0.082003  0  3.947659  0
C  C54  1  0.73367845  0.49156661  0.49119741  1  0  -0.046051  0  3.724975  0  0  -0.076046  0  3.98885  0  0  -0.075153  0  4.006786  0  0.014424  0  -0.079446  -0.076445  0  3.976675  0
C  C55  1  0.26632001  0.50843393  0.50880164  1  0  -0.046125  0  3.725094  0  0  -0.076114  0  3.988999  0  0  -0.075235  0  4.006921  0  0.014348  0  -0.079448  -0.076513  0  3.976824  0
C  C56  1  0.96837665  0.54867681  0.28812834  1  0  -0.112286  0  3.735903  0  0  -0.133221  0  3.982522  0  0  -0.13597  0  4.004685  0  0.013163  0  -0.098195  -0.131636  0  3.967964  0
C  C57  1  0.03162594  0.45132475  0.71187218  1  0  -0.112259  0  3.736001  0  0  -0.133215  0  3.982616  0  0  -0.135971  0  4.004791  0  0.013162  0  -0.098223  -0.13163  0  3.968058  0
C  C58  1  0.56262972  0.25332756  0.43386779  1  0  0.646642  0  3.895821  0  0  0.59538  0  4.179732  0  0  0.631942  0  4.173966  0  1.548204  0  0.204737  0.57068  0  4.182591  0
C  C59  1  0.43736962  0.74667195  0.56613179  1  0  0.646651  0  3.895783  0  0  0.59541  0  4.179688  0  0  0.631971  0  4.173904  0  1.54821  0  0.204747  0.57071  0  4.182547  0
C  C60  1  0.69046498  0.38486126  0.42670393  1  0  -0.084857  0  3.682898  0  0  -0.067376  0  3.918091  0  0  -0.074694  0  3.939587  0  -0.02817  0  -0.00926  -0.06282  0  3.903805  0
C  C61  1  0.30953185  0.61513826  0.57329493  1  0  -0.084755  0  3.682896  0  0  -0.067333  0  3.918143  0  0  -0.074608  0  3.939575  0  -0.028106  0  -0.009245  -0.062778  0  3.903856  0
C  C62  1  0.79330622  0.32272019  0.22099258  1  0  -0.078927  0  3.798157  0  0  -0.090479  0  4.046592  0  0  -0.092899  0  4.068367  0  -0.150714  0  -0.098534  -0.089085  0  4.032067  0
C  C63  1  0.20669549  0.67728240  0.77900740  1  0  -0.078847  0  3.798177  0  0  -0.090391  0  4.046602  0  0  -0.092812  0  4.068382  0  -0.150608  0  -0.09847  -0.088998  0  4.032078  0
C  C64  1  0.72168556  0.30120236  0.28785386  1  0  -0.118481  0  3.755139  0  0  -0.136558  0  3.997463  0  0  -0.13903  0  4.018769  0  0.027673  0  -0.09606  -0.134974  0  3.983444  0
C  C65  1  0.27831755  0.69879715  0.71214592  1  0  -0.118502  0  3.755115  0  0  -0.13659  0  3.997441  0  0  -0.139066  0  4.018749  0  0.027678  0  -0.096119  -0.135008  0  3.983422  0
C  C66  1  0.86047973  0.61496191  0.49219239  1  0  -0.05634  0  3.74184  0  0  -0.084408  0  4.00358  0  0  -0.083896  0  4.021507  0  -0.038481  0  -0.082457  -0.084628  0  3.991241  0
C  C67  1  0.13951836  0.38503760  0.50780654  1  0  -0.056281  0  3.741797  0  0  -0.084351  0  4.003538  0  0  -0.08384  0  4.021471  0  -0.038466  0  -0.082464  -0.084571  0  3.991199  0
C  C68  1  0.91799263  0.44772102  0.22098743  1  0  -0.077107  0  3.785379  0  0  -0.089209  0  4.038663  0  0  -0.091703  0  4.059911  0  -0.105678  0  -0.097663  -0.08742  0  4.024647  0
C  C69  1  0.08200908  0.55228157  0.77901256  1  0  -0.077046  0  3.785427  0  0  -0.089128  0  4.038719  0  0  -0.091636  0  4.05996  0  -0.105766  0  -0.097636  -0.087341  0  4.024704  0
C  C70  1  0.08230770  0.76891052  0.43622792  1  0  0.650638  0  3.865895  0  0  0.59627  0  4.150325  0  0  0.632683  0  4.145896  0  1.544262  0  0.210197  0.571763  0  4.15212  0
C  C71  1  0.91769253  0.23108797  0.56377161  1  0  0.65083  0  3.865765  0  0  0.596398  0  4.150268  0  0  0.632814  0  4.145835  0  1.544379  0  0.21028  0.571891  0  4.152063  0
C  C72  1  0.45752677  0.33077758  0.66305353  1  0  0.03363  0  3.63689  0  0  -0.003337  0  3.897447  0  0  -0.001552  0  3.915955  0  0.45148  0  0.049583  -0.004735  0  3.885247  0
C  C73  1  0.54247612  0.66921783  0.33694817  1  0  0.033595  0  3.636928  0  0  -0.003352  0  3.897493  0  0  -0.001567  0  3.916  0  0.451332  0  0.049579  -0.004754  0  3.885297  0
C  C74  1  0.49756642  0.41991333  0.73633740  1  0  0.269261  0  3.708388  0  0  0.274625  0  3.96028  0  0  0.279258  0  3.98233  0  0.544382  0  0.127816  0.271426  0  3.945605  0
C  C75  1  0.50243757  0.58008516  0.26366406  1  0  0.26925  0  3.708512  0  0  0.274625  0  3.960396  0  0  0.279257  0  3.982447  0  0.544462  0  0.127808  0.271425  0  3.945722  0
C  C76  1  0.29637368  0.25687183  0.78210453  1  0  0.042032  0  3.624163  0  0  0.008317  0  3.875702  0  0  0.010799  0  3.892924  0  0.506125  0  0.053069  0.006185  0  3.865195  0
C  C77  1  0.70362618  0.74312563  0.21789604  1  0  0.042049  0  3.624225  0  0  0.008327  0  3.875735  0  0  0.010813  0  3.892951  0  0.506138  0  0.053118  0.006195  0  3.865226  0
C  C78  1  0.25811922  0.16677441  0.70913583  1  0  0.264927  0  3.701906  0  0  0.273196  0  3.949093  0  0  0.277098  0  3.971968  0  0.50898  0  0.125125  0.270015  0  3.934117  0
C  C79  1  0.74188226  0.83322408  0.29086549  1  0  0.264833  0  3.701993  0  0  0.27317  0  3.949082  0  0  0.277071  0  3.971956  0  0.508902  0  0.125152  0.269988  0  3.934104  0
C  C80  1  0.63085838  0.55636614  0.75165691  1  0  -0.378166  0  3.687001  0  0  -0.459861  0  3.91903  0  0  -0.463116  0  3.928177  0  -0.087787  0  -0.238985  -0.457385  0  3.912856  0
C  C81  1  0.36914348  0.44363337  0.24834338  1  0  -0.378158  0  3.687025  0  0  -0.459855  0  3.919041  0  0  -0.463112  0  3.928191  0  -0.087882  0  -0.238977  -0.45738  0  3.912866  0
C  C82  1  0.12802697  0.02852332  0.69449771  1  0  -0.372647  0  3.687518  0  0  -0.452917  0  3.916626  0  0  -0.456145  0  3.925632  0  -0.125082  0  -0.236238  -0.450234  0  3.910474  0
C  C83  1  0.87197488  0.97147620  0.30550315  1  0  -0.372669  0  3.687569  0  0  -0.452982  0  3.91666  0  0  -0.456206  0  3.925671  0  -0.125124  0  -0.236286  -0.450301  0  3.910516  0
C  C84  1  0.85639365  0.23135966  0.85501255  1  0  -0.138144  0  3.768973  0  0  -0.150507  0  4.013101  0  0  -0.153589  0  4.03302  0  -0.125043  0  -0.111071  -0.148014  0  3.999206  0
C  C85  1  0.14360517  0.76864190  0.14498661  1  0  -0.138092  0  3.768895  0  0  -0.150444  0  4.013016  0  0  -0.153528  0  4.032935  0  -0.125433  0  -0.111093  -0.14795  0  3.999122  0
C  C86  1  0.97930982  0.23788431  0.99519994  1  0  -0.091307  0  3.706455  0  0  -0.074869  0  3.948492  0  0  -0.081829  0  3.968911  0  -0.039811  0  -0.012277  -0.070748  0  3.935505  0
C  C87  1  0.02068900  0.76211725  0.00479921  1  0  -0.091302  0  3.706488  0  0  -0.074836  0  3.948524  0  0  -0.081791  0  3.968936  0  -0.040129  0  -0.012261  -0.070714  0  3.935537  0
C  C88  1  0.86276236  0.16927805  0.92297773  1  0  0.031666  0  3.74278  0  0  0.044813  0  3.965779  0  0  0.044509  0  3.98979  0  -0.032504  0  -0.012349  0.044861  0  3.949864  0
C  C89  1  0.13723484  0.83072248  0.07702125  1  0  0.031597  0  3.74276  0  0  0.044732  0  3.965798  0  0  0.044428  0  3.989807  0  -0.032199  0  -0.012393  0.044775  0  3.94989  0
C  C90  1  0.96766319  0.17969658  0.06176492  1  0  -0.067523  0  3.749453  0  0  -0.094637  0  4.008316  0  0  -0.094782  0  4.028123  0  -0.050533  0  -0.0829  -0.094187  0  3.994983  0
C  C91  1  0.03233741  0.82030293  0.93823529  1  0  -0.067615  0  3.749485  0  0  -0.09473  0  4.008346  0  0  -0.094879  0  4.028153  0  -0.050208  0  -0.082938  -0.094279  0  3.995011  0
C  C92  1  0.12055667  0.36815695  0.99911019  1  0  0.652034  0  3.889439  0  0  0.595438  0  4.181145  0  0  0.632117  0  4.175117  0  1.566786  0  0.205328  0.570353  0  4.184821  0
C  C93  1  0.87944341  0.63184461  0.00088846  1  0  0.652019  0  3.889298  0  0  0.595378  0  4.181073  0  0  0.632055  0  4.175047  0  1.566776  0  0.205316  0.570294  0  4.184748  0
C  C94  1  0.73707630  0.97929471  0.98956724  1  0  -0.073182  0  3.674631  0  0  -0.057286  0  3.910439  0  0  -0.063222  0  3.930903  0  -0.083392  0  -0.004353  -0.053159  0  3.896494  0
C  C95  1  0.26292541  0.02070788  0.01043389  1  0  -0.073344  0  3.674788  0  0  -0.057394  0  3.910552  0  0  -0.063336  0  3.93102  0  -0.083002  0  -0.004288  -0.053265  0  3.896607  0
C  C96  1  0.74169357  0.03702054  0.91962609  1  0  0.055691  0  3.716979  0  0  0.066234  0  3.941192  0  0  0.066728  0  3.964489  0  0.00523  0  0.000862  0.065964  0  3.925413  0
C  C97  1  0.25830164  0.96297795  0.08037374  1  0  0.055749  0  3.716987  0  0  0.066243  0  3.941269  0  0  0.06674  0  3.964562  0  0.005213  0  0.000822  0.065975  0  3.925489  0
C  C98  1  0.62445561  0.97291461  0.84801494  1  0  -0.08375  0  3.706153  0  0  -0.107147  0  3.952028  0  0  -0.107695  0  3.970811  0  -0.005202  0  -0.089151  -0.106755  0  3.939223  0
C  C99  1  0.37554211  0.02708387  0.15198503  1  0  -0.083689  0  3.706024  0  0  -0.107075  0  3.951908  0  0  -0.107617  0  3.970697  0  -0.005094  0  -0.089111  -0.106684  0  3.939099  0
C  C100  1  0.84621109  0.05242483  0.05901583  1  0  -0.065508  0  3.740426  0  0  -0.092048  0  3.999261  0  0  -0.092684  0  4.018805  0  0.004446  0  -0.0821  -0.09186  0  3.986371  0
C  C101  1  0.15379062  0.94757776  0.94098358  1  0  -0.065404  0  3.740316  0  0  -0.091942  0  3.99913  0  0  -0.092579  0  4.018678  0  0.004088  0  -0.082102  -0.091755  0  3.98624  0
C  C102  1  0.73776219  0.16634996  0.78721299  1  0  -0.079823  0  3.805319  0  0  -0.092415  0  4.053744  0  0  -0.094745  0  4.076877  0  -0.022429  0  -0.106007  -0.090631  0  4.037755  0
C  C103  1  0.26223250  0.83365058  0.21278758  1  0  -0.079873  0  3.805252  0  0  -0.09242  0  4.053677  0  0  -0.094749  0  4.07681  0  -0.022368  0  -0.105994  -0.090634  0  4.037688  0
C  C104  1  0.61687302  0.84086830  0.99112837  1  0  0.644267  0  3.88054  0  0  0.590241  0  4.168765  0  0  0.626174  0  4.164054  0  1.576351  0  0.209448  0.565916  0  4.171021  0
C  C105  1  0.38312455  0.15913326  0.00887244  1  0  0.644466  0  3.88048  0  0  0.590435  0  4.168708  0  0  0.62637  0  4.163988  0  1.576336  0  0.209498  0.566107  0  4.17097  0
C  C106  1  0.62199477  0.03594198  0.78368674  1  0  -0.082933  0  3.79828  0  0  -0.093536  0  4.045285  0  0  -0.097389  0  4.068467  0  -0.101745  0  -0.104444  -0.090777  0  4.029468  0
C  C107  1  0.37800206  0.96405753  0.21631327  1  0  -0.082999  0  3.798361  0  0  -0.093608  0  4.045354  0  0  -0.097461  0  4.068534  0  -0.101839  0  -0.104457  -0.090848  0  4.029534  0
N  N108  1  0.34094915  0.20656310  0.64975269  1  0  -0.317417  0  3.253677  0  0  -0.24924  0  3.529242  0  0  -0.26571  0  3.546786  0  -1.191185  0  -0.322218  -0.237752  0  3.517077  0
N  N109  1  0.65905448  0.79343436  0.35024866  1  0  -0.317337  0  3.253717  0  0  -0.249161  0  3.529225  0  0  -0.26563  0  3.546768  0  -1.191042  0  -0.322236  -0.237673  0  3.517062  0
N  N110  1  0.41387993  0.38055728  0.79558498  1  0  -0.309402  0  3.2189  0  0  -0.240761  0  3.488836  0  0  -0.256501  0  3.504773  0  -1.216647  0  -0.314779  -0.230346  0  3.478642  0
N  N111  1  0.58612318  0.61944223  0.20441595  1  0  -0.309406  0  3.219056  0  0  -0.240783  0  3.489011  0  0  -0.256522  0  3.50495  0  -1.216682  0  -0.314804  -0.230369  0  3.47882  0
O  O112  1  0.59374534  0.14150317  0.40334816  1  0  -0.607426  0  2.145248  0  0  -0.527154  0  2.414651  0  0  -0.561372  0  2.404121  0  -1.104532  0  -0.32679  -0.503546  0  2.420852  0
O  O113  1  0.40625275  0.85849635  0.59665077  1  0  -0.607444  0  2.14526  0  0  -0.527181  0  2.414672  0  0  -0.561394  0  2.404124  0  -1.104516  0  -0.326788  -0.503573  0  2.420873  0
O  O114  1  0.43859938  0.26194679  0.47111173  1  0  -0.62026  0  2.077644  0  0  -0.554037  0  2.33569  0  0  -0.584509  0  2.326056  0  -1.144547  0  -0.315544  -0.532852  0  2.341282  0
O  O115  1  0.56139960  0.73805170  0.52888773  1  0  -0.620271  0  2.077626  0  0  -0.554048  0  2.335661  0  0  -0.584525  0  2.326028  0  -1.144541  0  -0.315542  -0.532864  0  2.341252  0
O  O116  1  0.22082231  0.76673495  0.40679041  1  0  -0.582291  0  2.120305  0  0  -0.501109  0  2.389516  0  0  -0.535276  0  2.381074  0  -1.108325  0  -0.318421  -0.477451  0  2.394195  0
O  O117  1  0.77917666  0.23326354  0.59320848  1  0  -0.582365  0  2.120322  0  0  -0.501171  0  2.389598  0  0  -0.53533  0  2.381132  0  -1.108363  0  -0.318469  -0.477511  0  2.394277  0
O  O118  1  0.05410205  0.87573788  0.47363554  1  0  -0.621767  0  2.159478  0  0  -0.539551  0  2.442264  0  0  -0.572475  0  2.429169  0  -1.1367  0  -0.322054  -0.516849  0  2.450169  0
O  O119  1  0.94589818  0.12426061  0.52636456  1  0  -0.62187  0  2.159449  0  0  -0.539607  0  2.442234  0  0  -0.572532  0  2.429137  0  -1.136753  0  -0.322114  -0.516906  0  2.450141  0
O  O120  1  0.15577201  0.45875060  0.06247720  1  0  -0.600692  0  2.086344  0  0  -0.52424  0  2.353766  0  0  -0.556657  0  2.344325  0  -1.11992  0  -0.320369  -0.501822  0  2.35977  0
O  O121  1  0.84422896  0.54124994  0.93752141  1  0  -0.600658  0  2.086188  0  0  -0.524211  0  2.353635  0  0  -0.556629  0  2.344202  0  -1.119952  0  -0.320355  -0.501793  0  2.359639  0
O  O122  1  0.55943101  0.82792152  0.05567264  1  0  -0.59382  0  2.126016  0  0  -0.519438  0  2.393338  0  0  -0.552714  0  2.387926  0  -1.113688  0  -0.319254  -0.496384  0  2.396211  0
O  O123  1  0.44057247  0.17207902  0.94433013  1  0  -0.5939  0  2.126014  0  0  -0.519517  0  2.393351  0  0  -0.552794  0  2.387933  0  -1.113642  0  -0.319279  -0.496465  0  2.396231  0
O  O124  1  0.58509067  0.74856967  0.92915159  1  0  -0.598428  0  2.121486  0  0  -0.521137  0  2.390322  0  0  -0.553643  0  2.3805  0  -1.136028  0  -0.319752  -0.498727  0  2.396233  0
O  O125  1  0.41489796  0.25143496  0.07084730  1  0  -0.598492  0  2.121432  0  0  -0.521247  0  2.390335  0  0  -0.553752  0  2.38051  0  -1.136069  0  -0.319787  -0.498834  0  2.396246  0
O  O126  1  0.19617162  0.37600417  0.93915017  1  0  -0.607095  0  2.151212  0  0  -0.531621  0  2.421798  0  0  -0.563442  0  2.410943  0  -1.136564  0  -0.314481  -0.509522  0  2.42845  0
O  O127  1  0.80382934  0.62399637  0.06084901  1  0  -0.607062  0  2.15118  0  0  -0.531579  0  2.421813  0  0  -0.5634  0  2.410958  0  -1.13651  0  -0.314474  -0.50948  0  2.428464  0
