# generated using pymatgen
data_CuH26C24N4O5
_symmetry_space_group_name_H-M   'P 1'
_cell_length_a   8.97630399
_cell_length_b   10.33267581
_cell_length_c   13.67124395
_cell_angle_alpha   106.32849109
_cell_angle_beta   102.49467612
_cell_angle_gamma   98.01288994
_symmetry_Int_Tables_number   1
_chemical_formula_structural   CuH26C24N4O5
_chemical_formula_sum   'Cu2 H52 C48 N8 O10'
_cell_volume   1160.59003415
_cell_formula_units_Z   2
loop_
 _symmetry_equiv_pos_site_id
 _symmetry_equiv_pos_as_xyz
  1  'x, y, z'
loop_
 _atom_site_type_symbol
 _atom_site_label
 _atom_site_symmetry_multiplicity
 _atom_site_fract_x
 _atom_site_fract_y
 _atom_site_fract_z
 _atom_site_occupancy
 _atom_site_pbe_cm5_charge
 _atom_site_pbe_ddec_charge
 _atom_site_pbe_ddec_spin_density
 _atom_site_pbe_ddec_sum_bond_order
 _atom_site_pbe_magmom
Cu  Cu0  1  0.52767769  0.60391891  0.75611787  1  0.734354  0.764884  -0.752241  2.222173  -0.562
Cu  Cu1  1  0.47229924  0.39609015  0.24388831  1  0.73431  0.764797  0.752228  2.221965  0.562
H  H2  1  0.68439307  0.63697136  0.99520674  1  0.303554  0.387311  1.2e-05  0.91012  0.0
H  H3  1  0.31552523  0.36303647  0.00473804  1  0.303429  0.387079  -1.2e-05  0.910018  0.0
H  H4  1  0.66276086  0.50068703  0.89970686  1  0.269195  0.360687  6.1e-05  0.999892  0.0
H  H5  1  0.33726202  0.49932274  0.10026458  1  0.269149  0.360449  -6.1e-05  1.000216  0.0
H  H6  1  0.83001128  0.78452519  0.84414436  1  0.121837  0.099249  -0.001107  0.990092  -0.002
H  H7  1  0.16997152  0.21550026  0.15585648  1  0.121812  0.099191  0.001107  0.99013  0.002
H  H8  1  0.07481263  0.71412545  0.60137636  1  0.107545  0.112658  -0.000104  1.007861  0.0
H  H9  1  0.92516310  0.28585887  0.39862455  1  0.107551  0.112692  0.000104  1.007841  0.0
H  H10  1  0.83912225  0.52518165  0.48554887  1  0.107499  0.119077  -0.000443  1.025631  -0.001
H  H11  1  0.16084131  0.47480883  0.51445536  1  0.107504  0.11917  0.000442  1.025509  0.001
H  H12  1  0.61497776  0.47772259  0.55731945  1  0.123519  0.10553  -0.000988  1.008009  -0.002
H  H13  1  0.38498871  0.52228963  0.44269479  1  0.123478  0.105554  0.000988  1.007908  0.002
H  H14  1  0.11019258  0.89570181  0.88639571  1  0.102291  0.079872  -1e-06  0.995419  0.0
H  H15  1  0.88980533  0.10427961  0.11360972  1  0.102313  0.079887  1e-06  0.995486  0.0
H  H16  1  0.21154658  0.87285410  0.78685108  1  0.106828  0.099216  -0.000282  0.985447  0.0
H  H17  1  0.78845474  0.12712221  0.21315521  1  0.106806  0.099183  0.000282  0.985546  0.0
H  H18  1  0.96145036  0.95761639  0.62589080  1  0.086174  0.052714  -4.7e-05  1.018241  0.0
H  H19  1  0.03858220  0.04238172  0.37412047  1  0.086215  0.05276  4.7e-05  1.018257  0.0
H  H20  1  0.16909104  0.99207086  0.66161979  1  0.097498  0.073521  2.8e-05  1.058098  0.0
H  H21  1  0.83094127  0.00792531  0.33839910  1  0.097402  0.073444  -2.8e-05  1.058091  0.0
H  H22  1  0.18939986  0.23711616  0.73409640  1  0.085865  0.048787  -3.6e-05  1.028645  0.0
H  H23  1  0.81063014  0.76288933  0.26592776  1  0.085835  0.048806  3.6e-05  1.02871  0.0
H  H24  1  0.06122044  0.17694506  0.60335436  1  0.101593  0.081651  -3e-06  0.978268  0.0
H  H25  1  0.93881816  0.82305416  0.39666087  1  0.10162  0.081634  3e-06  0.978266  0.0
H  H26  1  0.84056727  0.24699920  0.84429436  1  0.101741  0.082247  4.9e-05  1.022337  0.0
H  H27  1  0.15942146  0.75297791  0.15570091  1  0.101743  0.08215  -4.9e-05  1.022462  0.0
H  H28  1  0.04945301  0.28327437  0.88879004  1  0.084626  0.052558  -2.8e-05  1.020946  0.0
H  H29  1  0.95053657  0.71671013  0.11121786  1  0.084613  0.052498  2.8e-05  1.020985  0.0
H  H30  1  0.95127613  0.06236496  0.90588370  1  0.100637  0.07729  2e-06  0.97539  0.0
H  H31  1  0.04871055  0.93761317  0.09411152  1  0.100606  0.077263  -2e-06  0.975372  0.0
H  H32  1  0.82867677  0.99997598  0.77359079  1  0.090223  0.061052  -6.1e-05  1.004618  0.0
H  H33  1  0.17132840  0.00000418  0.22639705  1  0.09023  0.061033  6.1e-05  1.00463  0.0
H  H34  1  0.82864179  0.38787672  0.73545257  1  0.109311  0.101424  -0.000173  0.989197  0.0
H  H35  1  0.17133962  0.61209317  0.26454318  1  0.10929  0.101391  0.000173  0.989207  0.0
H  H36  1  0.92150346  0.35693012  0.63130010  1  0.102848  0.08128  3e-06  1.007003  0.0
H  H37  1  0.07849652  0.64305541  0.36870500  1  0.102856  0.081286  -3e-06  1.006844  0.0
H  H38  1  0.21728347  0.43240005  0.67379137  1  0.119374  0.091204  -0.000838  1.021754  -0.001
H  H39  1  0.78269684  0.56759878  0.32621607  1  0.119391  0.091212  0.000837  1.021754  0.001
H  H40  1  0.97127807  0.55315170  0.91222147  1  0.110069  0.121961  -9.4e-05  1.002335  0.0
H  H41  1  0.02869361  0.44684403  0.08778712  1  0.10995  0.121973  9.4e-05  1.002546  0.0
H  H42  1  0.21854014  0.72626646  0.02451990  1  0.109363  0.114582  -0.000572  1.02845  -0.001
H  H43  1  0.78144292  0.27373956  0.97548647  1  0.109383  0.114624  0.000572  1.02834  0.001
H  H44  1  0.45054388  0.74407032  0.95324267  1  0.124998  0.096602  -0.001103  0.977064  -0.001
H  H45  1  0.54942290  0.25592519  0.04675351  1  0.125032  0.096643  0.001103  0.976819  0.001
H  H46  1  0.54472358  0.07188027  0.79055832  1  0.10484  0.112946  -0.000444  1.005074  0.0
H  H47  1  0.45530755  0.92815862  0.20943340  1  0.104854  0.113024  0.000444  1.005074  0.0
H  H48  1  0.29358753  0.78275740  0.48534141  1  0.101943  0.101876  2.3e-05  1.029368  0.0
H  H49  1  0.70644713  0.21723640  0.51465608  1  0.102045  0.101989  -2.3e-05  1.029397  0.0
H  H50  1  0.25048432  0.97470663  0.41531185  1  0.095864  0.087263  -0.000121  1.067397  0.0
H  H51  1  0.74957735  0.02526843  0.58466192  1  0.095986  0.087399  0.000121  1.067189  0.0
H  H52  1  0.35563564  0.22026907  0.53614885  1  0.101081  0.103052  -0.000266  1.011227  0.0
H  H53  1  0.64439820  0.77971492  0.46381285  1  0.101083  0.103061  0.000266  1.011257  0.0
C  C54  1  0.83815586  0.73188678  0.76494310  1  0.049225  0.042838  -0.000116  3.903738  0.0
C  C55  1  0.16182250  0.26812335  0.23506496  1  0.049193  0.042823  0.000116  3.903301  0.0
C  C56  1  0.97013562  0.76706822  0.73184141  1  -0.008413  0.049003  -0.004159  3.955017  -0.005
C  C57  1  0.02984710  0.23292647  0.26816330  1  -0.008402  0.049021  0.004157  3.95487  0.005
C  C58  1  0.97191629  0.69218261  0.62936377  1  -0.067989  -0.088237  0.002449  3.930219  0.002
C  C59  1  0.02805885  0.30780894  0.37063929  1  -0.067957  -0.088101  -0.002447  3.929901  -0.002
C  C60  1  0.84353074  0.58791721  0.56522589  1  -0.083643  -0.12341  -0.003927  3.966292  -0.005
C  C61  1  0.15643374  0.41208250  0.43477671  1  -0.083703  -0.123816  0.003927  3.966319  0.005
C  C62  1  0.71611221  0.55985973  0.60452660  1  0.05189  0.094836  0.000122  3.89678  0.001
C  C63  1  0.28385502  0.44014627  0.39548352  1  0.052024  0.094943  -0.00012  3.897403  -0.001
C  C64  1  0.09952831  0.88839165  0.80324216  1  -0.064481  -0.116533  -0.00078  3.981406  -0.001
C  C65  1  0.90046856  0.11159493  0.19676566  1  -0.064467  -0.116423  0.00078  3.981811  0.001
C  C66  1  0.06833959  0.02665666  0.68510412  1  -0.077305  -0.088361  2.3e-05  3.95847  0.0
C  C67  1  0.93169149  0.97334457  0.31491053  1  -0.077144  -0.088153  -2.3e-05  3.958091  0.0
C  C68  1  0.07306151  0.17383191  0.68452833  1  -0.070614  -0.079478  5e-06  3.963688  0.0
C  C69  1  0.92696744  0.82616518  0.31548445  1  -0.070666  -0.079564  -5e-06  3.963732  0.0
C  C70  1  0.94578132  0.21478985  0.82587063  1  -0.071402  -0.084544  2.6e-05  3.945585  0.0
C  C71  1  0.05421104  0.78519252  0.17413134  1  -0.071411  -0.084304  -2.6e-05  3.94532  0.0
C  C72  1  0.94248491  0.06667311  0.82525263  1  -0.068602  -0.075161  -0.000108  3.953245  0.0
C  C73  1  0.05751328  0.93331538  0.17474479  1  -0.068447  -0.074874  0.000108  3.953217  0.0
C  C74  1  0.93498541  0.36275215  0.71441424  1  -0.064463  -0.120199  -0.000632  3.962196  -0.001
C  C75  1  0.06500811  0.63723535  0.28558748  1  -0.064337  -0.119947  0.000632  3.962069  0.001
C  C76  1  0.21077418  0.49422494  0.75114175  1  0.045579  0.03632  0.000584  3.906657  0.001
C  C77  1  0.78920864  0.50578005  0.24886437  1  0.045458  0.036241  -0.000584  3.906498  -0.001
C  C78  1  0.07451488  0.47615583  0.78388889  1  -0.008127  0.048498  -0.003687  3.948716  -0.004
C  C79  1  0.92546620  0.52384701  0.21611217  1  -0.008116  0.048485  0.003688  3.948747  0.004
C  C80  1  0.07620947  0.56133819  0.88407340  1  -0.065524  -0.083276  0.002625  3.90997  0.002
C  C81  1  0.92376780  0.43866262  0.11593039  1  -0.065323  -0.08321  -0.002625  3.910432  -0.002
C  C82  1  0.21145646  0.65907641  0.94593337  1  -0.079548  -0.106635  -0.003869  3.971972  -0.004
C  C83  1  0.78852608  0.34092240  0.05407217  1  -0.079658  -0.106769  0.003869  3.972188  0.004
C  C84  1  0.34246209  0.66923540  0.90757651  1  0.050277  0.087698  -0.000142  3.93677  0.0
C  C85  1  0.65751437  0.33076227  0.09242360  1  0.050319  0.087732  0.000142  3.936906  0.0
C  C86  1  0.45644196  0.16087904  0.67012210  1  -0.019025  -0.043022  -0.006822  3.955312  -0.007
C  C87  1  0.54359158  0.83913191  0.32985537  1  -0.018854  -0.042451  0.006822  3.954711  0.007
C  C88  1  0.48034228  0.05094114  0.70855419  1  -0.073861  -0.096935  -0.000569  3.908848  0.0
C  C89  1  0.51969040  0.94907507  0.29143231  1  -0.073992  -0.097308  0.000569  3.908951  0.0
C  C90  1  0.41951845  0.91446243  0.64184561  1  -0.023118  -0.047585  -0.007249  3.976023  -0.008
C  C91  1  0.58051974  0.08554681  0.35815261  1  -0.023125  -0.047446  0.00725  3.975671  0.008
C  C92  1  0.33664207  0.88941849  0.53646642  1  -0.078977  -0.078995  6.3e-05  3.953083  0.0
C  C93  1  0.66340800  0.11057841  0.46352790  1  -0.07915  -0.079137  -6.2e-05  3.952972  0.0
C  C94  1  0.31293081  0.99808544  0.49796383  1  -0.093193  -0.086122  -0.000572  4.01031  -0.001
C  C95  1  0.68713015  0.00191034  0.50202071  1  -0.093283  -0.086285  0.000572  4.010025  0.001
C  C96  1  0.37221954  0.13342369  0.56459928  1  -0.077794  -0.073462  0.000505  3.942288  0.001
C  C97  1  0.62782102  0.86657806  0.43537942  1  -0.077869  -0.073717  -0.000504  3.94215  -0.001
C  C98  1  0.51832926  0.30852387  0.74019752  1  0.207378  0.568932  -0.001001  4.207099  0.002
C  C99  1  0.48168318  0.69148907  0.25978270  1  0.207289  0.568762  0.001001  4.206352  -0.002
C  C100  1  0.43866769  0.79079817  0.67677539  1  0.184163  0.543287  0.000449  4.237661  0.004
C  C101  1  0.56133919  0.20923504  0.32325439  1  0.184139  0.543111  -0.000449  4.237772  -0.004
N  N102  1  0.71479366  0.63088417  0.70311968  1  -0.351725  -0.212016  -0.057641  3.63421  -0.072
N  N103  1  0.28517806  0.36914139  0.29689216  1  -0.351697  -0.21195  0.05764  3.634344  0.072
N  N104  1  0.07556971  0.02115816  0.79147943  1  -0.342266  -0.135684  -0.001685  3.475294  -0.002
N  N105  1  0.92445644  0.97884617  0.20853740  1  -0.342394  -0.136035  0.001687  3.475945  0.002
N  N106  1  0.94547789  0.22539808  0.72161981  1  -0.337941  -0.1214  -0.000639  3.471941  -0.001
N  N107  1  0.05452772  0.77458233  0.27838423  1  -0.338082  -0.121745  0.00064  3.472314  0.001
N  N108  1  0.34172549  0.58733809  0.81164940  1  -0.354047  -0.224298  -0.054791  3.668561  -0.068
N  N109  1  0.65825700  0.41266069  0.18835467  1  -0.353999  -0.224289  0.054798  3.668281  0.068
O  O110  1  0.37108358  0.67238745  0.61252069  1  -0.331127  -0.58382  -0.000959  2.207667  -0.003
O  O111  1  0.62888435  0.32764275  0.38752599  1  -0.330969  -0.583664  0.000954  2.20774  0.003
O  O112  1  0.52519960  0.80988803  0.77073164  1  -0.331955  -0.549598  -0.082073  2.207889  -0.11
O  O113  1  0.47480429  0.19014719  0.22929669  1  -0.331986  -0.549482  0.082082  2.207771  0.11
O  O114  1  0.49360490  0.39907734  0.69357654  1  -0.329283  -0.561009  -0.067767  2.388031  -0.093
O  O115  1  0.50636354  0.60093140  0.30641090  1  -0.329165  -0.560842  0.067767  2.38781  0.092
O  O116  1  0.58829279  0.33488378  0.83655407  1  -0.320119  -0.559302  -0.00044  2.199692  -0.001
O  O117  1  0.41174803  0.66513527  0.16341361  1  -0.320174  -0.559379  0.00044  2.19927  0.001
O  O118  1  0.70855294  0.60336336  0.92772477  1  -0.598644  -0.802814  -0.000163  2.005039  -0.001
O  O119  1  0.29144121  0.39665035  0.07224441  1  -0.598536  -0.802433  0.00016  2.00501  0.001
