# generated using pymatgen
data_ZnH2C2O5
_symmetry_space_group_name_H-M   'P 1'
_cell_length_a   6.17207660
_cell_length_b   8.87560766
_cell_length_c   15.41000317
_cell_angle_alpha   90.00078759
_cell_angle_beta   89.99981464
_cell_angle_gamma   89.99947679
_symmetry_Int_Tables_number   1
_chemical_formula_structural   ZnH2C2O5
_chemical_formula_sum   'Zn8 H16 C16 O40'
_cell_volume   844.17430994
_cell_formula_units_Z   8
loop_
 _symmetry_equiv_pos_site_id
 _symmetry_equiv_pos_as_xyz
  1  'x, y, z'
loop_
 _atom_site_type_symbol
 _atom_site_label
 _atom_site_symmetry_multiplicity
 _atom_site_fract_x
 _atom_site_fract_y
 _atom_site_fract_z
 _atom_site_occupancy
 _atom_site_hle17_bader_spin_density
 _atom_site_hle17_ddec_charge
 _atom_site_hle17_ddec_spin_density
 _atom_site_hle17_ddec_sum_bond_order
 _atom_site_hle17_magmom
 _atom_site_hse06_10hf_bader_spin_density
 _atom_site_hse06_10hf_ddec_charge
 _atom_site_hse06_10hf_ddec_spin_density
 _atom_site_hse06_10hf_ddec_sum_bond_order
 _atom_site_hse06_10hf_magmom
 _atom_site_hse06_bader_spin_density
 _atom_site_hse06_ddec_charge
 _atom_site_hse06_ddec_spin_density
 _atom_site_hse06_ddec_sum_bond_order
 _atom_site_hse06_magmom
 _atom_site_pbe_bader_spin_density
 _atom_site_pbe_cm5_charge
 _atom_site_pbe_ddec_charge
 _atom_site_pbe_ddec_spin_density
 _atom_site_pbe_ddec_sum_bond_order
 _atom_site_pbe_magmom
Zn  Zn0  1  0.52473917  0.55133693  0.33633337  1  0  1.177532  0  1.666713  0  0  1.007513  0  2.112403  0  0  1.056033  0  2.055406  0  0  0.682671  0.971932  0  2.152928  0
Zn  Zn1  1  0.97525883  0.44866787  0.83633580  1  0  1.177539  0  1.666687  0  0  1.00751  0  2.112396  0  0  1.056026  0  2.055403  0  0  0.682662  0.97193  0  2.152918  0
Zn  Zn2  1  0.47526857  0.05133546  0.16366501  1  0  1.177599  0  1.666753  0  0  1.007567  0  2.112474  0  0  1.056081  0  2.055474  0  0  0.682663  0.971973  0  2.153  0
Zn  Zn3  1  0.02473023  0.94866063  0.66366421  1  0  1.177571  0  1.66684  0  0  1.00751  0  2.112548  0  0  1.056028  0  2.055554  0  0  0.682672  0.971926  0  2.153071  0
Zn  Zn4  1  0.47525923  0.44866295  0.66366064  1  0  1.177511  0  1.66676  0  0  1.007516  0  2.112448  0  0  1.056027  0  2.055456  0  0  0.682639  0.971938  0  2.152973  0
Zn  Zn5  1  0.02473957  0.55133088  0.16366404  1  0  1.177499  0  1.666718  0  0  1.007465  0  2.112408  0  0  1.055981  0  2.055411  0  0  0.682646  0.971888  0  2.152932  0
Zn  Zn6  1  0.52473469  0.94866555  0.83633873  1  0  1.17755  0  1.666676  0  0  1.007511  0  2.112388  0  0  1.056028  0  2.055397  0  0  0.682651  0.971924  0  2.152907  0
Zn  Zn7  1  0.97526979  0.05133813  0.33633887  1  0  1.177562  0  1.666801  0  0  1.007504  0  2.112529  0  0  1.05601  0  2.055534  0  0  0.68267  0.971917  0  2.153053  0
H  H8  1  0.86118244  0.41240648  0.40915672  1  0  0.432337  0  0.849307  0  0  0.403998  0  0.913366  0  0  0.413709  0  0.899282  0  0  0.304013  0.396932  0  0.923648  0
H  H9  1  0.63880851  0.58759555  0.90916005  1  0  0.432424  0  0.849115  0  0  0.404083  0  0.913241  0  0  0.413796  0  0.899153  0  0  0.304048  0.397013  0  0.92353  0
H  H10  1  0.13883045  0.91239224  0.09084062  1  0  0.432427  0  0.849076  0  0  0.404084  0  0.913223  0  0  0.413796  0  0.899137  0  0  0.304035  0.397015  0  0.92351  0
H  H11  1  0.36118026  0.08758859  0.59084554  1  0  0.432296  0  0.849301  0  0  0.403965  0  0.91339  0  0  0.413678  0  0.899303  0  0  0.304  0.396896  0  0.923677  0
H  H12  1  0.13880948  0.58759453  0.59084313  1  0  0.432399  0  0.849177  0  0  0.404069  0  0.913263  0  0  0.413781  0  0.899175  0  0  0.304072  0.397002  0  0.923546  0
H  H13  1  0.36118990  0.41239983  0.09083914  1  0  0.432453  0  0.849072  0  0  0.40411  0  0.913203  0  0  0.413824  0  0.899114  0  0  0.304042  0.397042  0  0.923488  0
H  H14  1  0.86117929  0.08760088  0.90915663  1  0  0.432354  0  0.849203  0  0  0.404029  0  0.913294  0  0  0.413743  0  0.899206  0  0  0.304031  0.396963  0  0.923575  0
H  H15  1  0.63881490  0.91240340  0.40915625  1  0  0.432316  0  0.849225  0  0  0.403978  0  0.913367  0  0  0.41369  0  0.899281  0  0  0.303994  0.396908  0  0.923654  0
H  H16  1  0.76691491  0.53626049  0.47375038  1  0  0.436532  0  0.861697  0  0  0.403782  0  0.926787  0  0  0.415613  0  0.909632  0  0  0.295131  0.395342  0  0.939027  0
H  H17  1  0.73308039  0.46373970  0.97375066  1  0  0.436461  0  0.86181  0  0  0.403758  0  0.926824  0  0  0.415593  0  0.909665  0  0  0.29514  0.395319  0  0.939063  0
H  H18  1  0.23308653  0.03626185  0.02624917  1  0  0.436507  0  0.861724  0  0  0.40375  0  0.926821  0  0  0.415579  0  0.909668  0  0  0.295096  0.395307  0  0.939064  0
H  H19  1  0.26691173  0.96373434  0.52624818  1  0  0.436638  0  0.861536  0  0  0.403784  0  0.926769  0  0  0.415615  0  0.909615  0  0  0.295167  0.395349  0  0.938998  0
H  H20  1  0.23307863  0.46374615  0.52624752  1  0  0.436451  0  0.861813  0  0  0.403701  0  0.926892  0  0  0.415536  0  0.909732  0  0  0.295107  0.395263  0  0.939128  0
H  H21  1  0.26692450  0.53625793  0.02624724  1  0  0.436482  0  0.861787  0  0  0.403748  0  0.926836  0  0  0.415579  0  0.909681  0  0  0.295114  0.39531  0  0.939072  0
H  H22  1  0.76692321  0.96374254  0.97375002  1  0  0.436507  0  0.861754  0  0  0.403769  0  0.926807  0  0  0.415601  0  0.909651  0  0  0.295149  0.395332  0  0.939041  0
H  H23  1  0.73308343  0.03625653  0.47375426  1  0  0.436588  0  0.861607  0  0  0.403765  0  0.926809  0  0  0.415599  0  0.90965  0  0  0.295114  0.395325  0  0.939048  0
C  C24  1  0.34861565  0.25848733  0.30501241  1  0  0.575721  0  3.877776  0  0  0.520961  0  4.173661  0  0  0.552958  0  4.164961  0  0  0.219987  0.498795  0  4.179081  0
C  C25  1  0.15138366  0.74152228  0.80500851  1  0  0.575764  0  3.877753  0  0  0.520819  0  4.173725  0  0  0.552833  0  4.165017  0  0  0.219904  0.498672  0  4.179147  0
C  C26  1  0.65139919  0.75847783  0.19499085  1  0  0.576025  0  3.878298  0  0  0.521139  0  4.1742  0  0  0.553149  0  4.165492  0  0  0.220172  0.498984  0  4.17962  0
C  C27  1  0.84861612  0.24151685  0.69499506  1  0  0.575673  0  3.878566  0  0  0.520858  0  4.17437  0  0  0.552847  0  4.165694  0  0  0.219992  0.498716  0  4.179753  0
C  C28  1  0.65138113  0.74151368  0.69499328  1  0  0.575628  0  3.878066  0  0  0.520856  0  4.173912  0  0  0.552854  0  4.165227  0  0  0.219949  0.498712  0  4.179297  0
C  C29  1  0.84862284  0.25847761  0.19498874  1  0  0.575483  0  3.877938  0  0  0.520689  0  4.173766  0  0  0.552683  0  4.165084  0  0  0.219901  0.498537  0  4.179177  0
C  C30  1  0.34861380  0.24152093  0.80500380  1  0  0.575721  0  3.878578  0  0  0.520958  0  4.174294  0  0  0.552951  0  4.165609  0  0  0.220132  0.498841  0  4.179657  0
C  C31  1  0.15138876  0.75848078  0.30500868  1  0  0.575941  0  3.878078  0  0  0.521115  0  4.173931  0  0  0.553113  0  4.165241  0  0  0.22007  0.498959  0  4.179348  0
C  C32  1  0.22237548  0.31048628  0.38621645  1  0  0.564956  0  3.87436  0  0  0.514621  0  4.16816  0  0  0.544903  0  4.159818  0  0  0.221765  0.494094  0  4.17307  0
C  C33  1  0.27761509  0.68953315  0.88622170  1  0  0.564919  0  3.874744  0  0  0.514882  0  4.168045  0  0  0.54516  0  4.159698  0  0  0.221875  0.494308  0  4.173038  0
C  C34  1  0.77764518  0.81047626  0.11377490  1  0  0.565051  0  3.87517  0  0  0.51493  0  4.168576  0  0  0.545202  0  4.160233  0  0  0.221983  0.494398  0  4.173493  0
C  C35  1  0.72235781  0.18951760  0.61377821  1  0  0.565123  0  3.875225  0  0  0.515021  0  4.168598  0  0  0.545302  0  4.160261  0  0  0.221957  0.494473  0  4.173532  0
C  C36  1  0.77762616  0.68951811  0.61378210  1  0  0.565078  0  3.874509  0  0  0.514828  0  4.168165  0  0  0.545104  0  4.159825  0  0  0.221872  0.494296  0  4.173071  0
C  C37  1  0.72237035  0.31047575  0.11378269  1  0  0.565161  0  3.874541  0  0  0.514943  0  4.168126  0  0  0.545231  0  4.159779  0  0  0.221852  0.494389  0  4.17308  0
C  C38  1  0.22236294  0.18952475  0.88622235  1  0  0.565135  0  3.87502  0  0  0.514959  0  4.168475  0  0  0.545242  0  4.160133  0  0  0.22194  0.494397  0  4.173423  0
C  C39  1  0.27764221  0.81048116  0.38622099  1  0  0.564928  0  3.875036  0  0  0.514715  0  4.168605  0  0  0.544984  0  4.160275  0  0  0.221933  0.494186  0  4.173514  0
O  O40  1  0.48641809  0.34925551  0.27484396  1  0  -0.583915  0  2.142357  0  0  -0.514267  0  2.399954  0  0  -0.542705  0  2.390705  0  0  -0.287287  -0.493794  0  2.405829  0
O  O41  1  0.01357822  0.65074549  0.77484667  1  0  -0.583973  0  2.142223  0  0  -0.514317  0  2.399901  0  0  -0.542754  0  2.390642  0  0  -0.287353  -0.493858  0  2.405796  0
O  O42  1  0.51359236  0.84925214  0.22514898  1  0  -0.584238  0  2.142779  0  0  -0.514525  0  2.400343  0  0  -0.542988  0  2.39113  0  0  -0.28753  -0.494037  0  2.406196  0
O  O43  1  0.98640813  0.15074888  0.72515553  1  0  -0.584048  0  2.142765  0  0  -0.514347  0  2.400334  0  0  -0.542771  0  2.391079  0  0  -0.287446  -0.49392  0  2.40629  0
O  O44  1  0.51357545  0.65074212  0.72515588  1  0  -0.583966  0  2.142396  0  0  -0.514328  0  2.39999  0  0  -0.542759  0  2.390738  0  0  -0.287377  -0.493876  0  2.405881  0
O  O45  1  0.98641532  0.34925327  0.22515448  1  0  -0.583944  0  2.142479  0  0  -0.51424  0  2.400017  0  0  -0.542672  0  2.390771  0  0  -0.287341  -0.493777  0  2.405898  0
O  O46  1  0.48640280  0.15074774  0.77484437  1  0  -0.584122  0  2.142914  0  0  -0.514472  0  2.40048  0  0  -0.5429  0  2.391224  0  0  -0.287537  -0.494015  0  2.40636  0
O  O47  1  0.01359513  0.84925551  0.27484756  1  0  -0.584162  0  2.142591  0  0  -0.514439  0  2.400153  0  0  -0.542867  0  2.390893  0  0  -0.287459  -0.493988  0  2.406065  0
O  O48  1  0.29870711  0.42359987  0.42527913  1  0  -0.586479  0  2.107294  0  0  -0.524016  0  2.343999  0  0  -0.550309  0  2.333917  0  0  -0.280773  -0.505454  0  2.350385  0
O  O49  1  0.20128316  0.57641936  0.92528424  1  0  -0.586523  0  2.107484  0  0  -0.523999  0  2.343879  0  0  -0.550265  0  2.333786  0  0  -0.280783  -0.505409  0  2.350265  0
O  O50  1  0.70130726  0.92358492  0.07471765  1  0  -0.586665  0  2.107841  0  0  -0.524216  0  2.344388  0  0  -0.550485  0  2.334287  0  0  -0.280912  -0.505647  0  2.350767  0
O  O51  1  0.79870575  0.07641139  0.57472321  1  0  -0.58657  0  2.107897  0  0  -0.524165  0  2.344533  0  0  -0.550437  0  2.334432  0  0  -0.28083  -0.505582  0  2.350909  0
O  O52  1  0.70128319  0.57640677  0.57471941  1  0  -0.586562  0  2.107321  0  0  -0.524112  0  2.343991  0  0  -0.550367  0  2.333882  0  0  -0.28083  -0.505543  0  2.350375  0
O  O53  1  0.79872010  0.42357940  0.07471690  1  0  -0.586495  0  2.107389  0  0  -0.524063  0  2.344005  0  0  -0.550343  0  2.333917  0  0  -0.280765  -0.50548  0  2.350382  0
O  O54  1  0.29871058  0.07642397  0.92528155  1  0  -0.5866  0  2.107775  0  0  -0.524142  0  2.344343  0  0  -0.550405  0  2.334245  0  0  -0.280873  -0.505556  0  2.350725  0
O  O55  1  0.20129427  0.92358624  0.42528053  1  0  -0.586471  0  2.107712  0  0  -0.524024  0  2.34439  0  0  -0.550291  0  2.334296  0  0  -0.280827  -0.505454  0  2.350759  0
O  O56  1  0.30497164  0.12912807  0.27394574  1  0  -0.609855  0  2.143891  0  0  -0.538304  0  2.419901  0  0  -0.567599  0  2.407425  0  0  -0.286454  -0.517537  0  2.428666  0
O  O57  1  0.19501334  0.87087741  0.77394541  1  0  -0.609901  0  2.144057  0  0  -0.538275  0  2.420121  0  0  -0.567611  0  2.407677  0  0  -0.286419  -0.517511  0  2.428887  0
O  O58  1  0.69503673  0.62913367  0.22605195  1  0  -0.609848  0  2.144188  0  0  -0.538295  0  2.420301  0  0  -0.567624  0  2.407853  0  0  -0.286443  -0.517559  0  2.42909  0
O  O59  1  0.80497023  0.37086174  0.72605789  1  0  -0.609784  0  2.144307  0  0  -0.538243  0  2.420335  0  0  -0.567561  0  2.40789  0  0  -0.28642  -0.517484  0  2.429094  0
O  O60  1  0.69502190  0.87086393  0.72605994  1  0  -0.609757  0  2.144175  0  0  -0.538157  0  2.420128  0  0  -0.567484  0  2.407686  0  0  -0.28637  -0.517395  0  2.428885  0
O  O61  1  0.80497372  0.12912473  0.22605898  1  0  -0.60968  0  2.143842  0  0  -0.53815  0  2.419921  0  0  -0.567475  0  2.407483  0  0  -0.286391  -0.517386  0  2.428681  0
O  O62  1  0.30497625  0.37086396  0.77394011  1  0  -0.609782  0  2.144354  0  0  -0.538232  0  2.420357  0  0  -0.56756  0  2.407918  0  0  -0.286438  -0.5175  0  2.429124  0
O  O63  1  0.19503627  0.62913476  0.27394390  1  0  -0.609885  0  2.144152  0  0  -0.538286  0  2.420124  0  0  -0.567605  0  2.407675  0  0  -0.286449  -0.517534  0  2.428901  0
O  O64  1  0.04927364  0.24146422  0.40700019  1  0  -0.59042  0  2.070963  0  0  -0.521998  0  2.315396  0  0  -0.548578  0  2.302618  0  0  -0.296807  -0.503243  0  2.323666  0
O  O65  1  0.45070542  0.75855345  0.90700382  1  0  -0.590381  0  2.071302  0  0  -0.522137  0  2.315649  0  0  -0.548751  0  2.302921  0  0  -0.296806  -0.503364  0  2.323948  0
O  O66  1  0.95072197  0.74145257  0.09299774  1  0  -0.590444  0  2.071482  0  0  -0.522131  0  2.315862  0  0  -0.548707  0  2.303089  0  0  -0.296872  -0.503374  0  2.324136  0
O  O67  1  0.54928928  0.25854756  0.59300054  1  0  -0.590459  0  2.071505  0  0  -0.52218  0  2.315905  0  0  -0.548788  0  2.303171  0  0  -0.296861  -0.503417  0  2.324189  0
O  O68  1  0.95071017  0.75854356  0.59300160  1  0  -0.590419  0  2.071276  0  0  -0.522086  0  2.31575  0  0  -0.548689  0  2.303008  0  0  -0.296813  -0.50333  0  2.324025  0
O  O69  1  0.54928974  0.24144756  0.09299927  1  0  -0.590512  0  2.071206  0  0  -0.522154  0  2.315603  0  0  -0.548766  0  2.30287  0  0  -0.296833  -0.503391  0  2.323893  0
O  O70  1  0.04929264  0.25855633  0.90699561  1  0  -0.590419  0  2.071487  0  0  -0.522128  0  2.315908  0  0  -0.548731  0  2.303154  0  0  -0.296835  -0.503363  0  2.324195  0
O  O71  1  0.45072208  0.74145796  0.40699996  1  0  -0.590422  0  2.071385  0  0  -0.522064  0  2.315798  0  0  -0.548657  0  2.303056  0  0  -0.296877  -0.503308  0  2.32407  0
O  O72  1  0.79353682  0.51285055  0.41087618  1  0  -0.816384  0  1.885051  0  0  -0.75228  0  2.094029  0  0  -0.773987  0  2.058139  0  0  -0.572232  -0.737047  0  2.119542  0
O  O73  1  0.70645249  0.48715039  0.91087733  1  0  -0.816352  0  1.884952  0  0  -0.752308  0  2.093931  0  0  -0.774015  0  2.058035  0  0  -0.572234  -0.737075  0  2.119447  0
O  O74  1  0.20646979  0.01284795  0.08912579  1  0  -0.816449  0  1.884874  0  0  -0.752344  0  2.093903  0  0  -0.77406  0  2.058042  0  0  -0.572213  -0.73711  0  2.11942  0
O  O75  1  0.29353284  0.98713735  0.58912559  1  0  -0.81647  0  1.88505  0  0  -0.752259  0  2.094164  0  0  -0.773972  0  2.058284  0  0  -0.572255  -0.737027  0  2.119677  0
O  O76  1  0.20645348  0.48715046  0.58912172  1  0  -0.816349  0  1.885038  0  0  -0.752249  0  2.094054  0  0  -0.773955  0  2.058161  0  0  -0.572239  -0.737016  0  2.119566  0
O  O77  1  0.29354267  0.51284386  0.08912122  1  0  -0.816397  0  1.884892  0  0  -0.752353  0  2.09393  0  0  -0.774063  0  2.058044  0  0  -0.572216  -0.737124  0  2.119444  0
O  O78  1  0.79353834  0.98715080  0.91087600  1  0  -0.816339  0  1.885001  0  0  -0.752245  0  2.094034  0  0  -0.773958  0  2.058158  0  0  -0.572234  -0.737014  0  2.119546  0
O  O79  1  0.70646880  0.01285353  0.41087620  1  0  -0.816399  0  1.884948  0  0  -0.752236  0  2.094039  0  0  -0.773944  0  2.05815  0  0  -0.57218  -0.737003  0  2.119554  0
