# generated using pymatgen
data_UH7(CO2)4
_symmetry_space_group_name_H-M   'P 1'
_cell_length_a   8.05089725
_cell_length_b   7.19643592
_cell_length_c   9.29562170
_cell_angle_alpha   71.06739200
_cell_angle_beta   65.95043210
_cell_angle_gamma   78.88459442
_symmetry_Int_Tables_number   1
_chemical_formula_structural   UH7(CO2)4
_chemical_formula_sum   'U2 H14 C8 O16'
_cell_volume   464.06461899
_cell_formula_units_Z   2
loop_
 _symmetry_equiv_pos_site_id
 _symmetry_equiv_pos_as_xyz
  1  'x, y, z'
loop_
 _atom_site_type_symbol
 _atom_site_label
 _atom_site_symmetry_multiplicity
 _atom_site_fract_x
 _atom_site_fract_y
 _atom_site_fract_z
 _atom_site_occupancy
 _atom_site_hle17_bader_spin_density
 _atom_site_hle17_ddec_charge
 _atom_site_hle17_ddec_spin_density
 _atom_site_hle17_ddec_sum_bond_order
 _atom_site_hle17_magmom
 _atom_site_hse06_10hf_bader_spin_density
 _atom_site_hse06_10hf_ddec_charge
 _atom_site_hse06_10hf_ddec_spin_density
 _atom_site_hse06_10hf_ddec_sum_bond_order
 _atom_site_hse06_10hf_magmom
 _atom_site_hse06_bader_spin_density
 _atom_site_hse06_ddec_charge
 _atom_site_hse06_ddec_spin_density
 _atom_site_hse06_ddec_sum_bond_order
 _atom_site_hse06_magmom
 _atom_site_pbe_bader_spin_density
 _atom_site_pbe_cm5_charge
 _atom_site_pbe_ddec_charge
 _atom_site_pbe_ddec_spin_density
 _atom_site_pbe_ddec_sum_bond_order
 _atom_site_pbe_magmom
U  U0  1  0.49999891  0.99999250  0.00000364  1  0  2.439792  0  4.073218  0  0  2.484419  0  4.72691  0  0  2.586389  0  4.696406  0  0  2.168247  2.413597  0  4.748  0
U  U1  1  0.99999673  0.49999718  0.50000223  1  0  2.479491  0  4.046664  0  0  2.527861  0  4.68838  0  0  2.631807  0  4.660712  0  0  2.195549  2.456981  0  4.706229  0
H  H2  1  0.15367577  0.96553929  0.30211754  1  0  0.4595  0  0.822325  0  0  0.441076  0  0.864326  0  0  0.45278  0  0.847022  0  0  0.3195  0.432789  0  0.876611  0
H  H3  1  0.84631385  0.03446106  0.69788375  1  0  0.459509  0  0.822325  0  0  0.441074  0  0.864347  0  0  0.452779  0  0.847038  0  0  0.319477  0.432787  0  0.876635  0
H  H4  1  0.18579900  0.20097522  0.23217927  1  0  0.443432  0  0.851052  0  0  0.417416  0  0.907412  0  0  0.42908  0  0.890569  0  0  0.316158  0.409137  0  0.91934  0
H  H5  1  0.81421855  0.79901706  0.76781331  1  0  0.443397  0  0.851146  0  0  0.417372  0  0.907516  0  0  0.429039  0  0.890669  0  0  0.316122  0.409094  0  0.919444  0
H  H6  1  0.34984121  0.28102661  0.52834106  1  0  0.454741  0  0.795077  0  0  0.44353  0  0.833889  0  0  0.453239  0  0.819929  0  0  0.342932  0.43665  0  0.843809  0
H  H7  1  0.65015842  0.71896630  0.47166386  1  0  0.45472  0  0.794983  0  0  0.44354  0  0.833843  0  0  0.453248  0  0.819884  0  0  0.342942  0.43666  0  0.843763  0
H  H8  1  0.39301443  0.28311291  0.34072771  1  0  0.45729  0  0.83396  0  0  0.432349  0  0.886612  0  0  0.445573  0  0.867505  0  0  0.30729  0.422973  0  0.900123  0
H  H9  1  0.60698656  0.71688003  0.65927675  1  0  0.457179  0  0.834124  0  0  0.432352  0  0.886603  0  0  0.445576  0  0.867497  0  0  0.307269  0.422977  0  0.900109  0
H  H10  1  0.31619450  0.49931798  0.87260207  1  0  0.148771  0  0.943158  0  0  0.164059  0  0.999417  0  0  0.167242  0  0.997226  0  0  0.119788  0.16188  0  1.00111  0
H  H11  1  0.68379936  0.50069749  0.12739021  1  0  0.148767  0  0.94309  0  0  0.164064  0  0.999387  0  0  0.167249  0  0.997195  0  0  0.11976  0.161884  0  1.001081  0
H  H12  1  0.22199967  0.69305345  0.75074231  1  0  0.128344  0  0.899481  0  0  0.145035  0  0.949734  0  0  0.147256  0  0.948787  0  0  0.119197  0.143482  0  0.950537  0
H  H13  1  0.77798523  0.30695597  0.24925321  1  0  0.128385  0  0.899612  0  0  0.145041  0  0.949931  0  0  0.147261  0  0.948988  0  0  0.119171  0.14349  0  0.950735  0
H  H14  1  0.93741033  0.72016173  0.98105999  1  0  0.110242  0  0.918954  0  0  0.119323  0  0.975826  0  0  0.12185  0  0.974754  0  0  0.120887  0.117476  0  0.976777  0
H  H15  1  0.06258995  0.27983836  0.01894640  1  0  0.110244  0  0.918835  0  0  0.119315  0  0.975707  0  0  0.121843  0  0.974636  0  0  0.120908  0.117471  0  0.97666  0
C  C16  1  0.31704383  0.77853872  0.90033280  1  0  0.70788  0  3.808286  0  0  0.665852  0  4.119107  0  0  0.70192  0  4.111649  0  0  0.220677  0.641242  0  4.122997  0
C  C17  1  0.68295646  0.22147959  0.09966101  1  0  0.70782  0  3.808404  0  0  0.665766  0  4.119269  0  0  0.701837  0  4.111808  0  0  0.220619  0.641145  0  4.123179  0
C  C18  1  0.22591883  0.63522187  0.87455039  1  0  -0.285788  0  3.632799  0  0  -0.326208  0  3.872936  0  0  -0.33121  0  3.878521  0  0  -0.153209  -0.322956  0  3.869111  0
C  C19  1  0.77407763  0.36477879  0.12544638  1  0  -0.285818  0  3.633103  0  0  -0.326295  0  3.873333  0  0  -0.3313  0  3.878922  0  0  -0.153173  -0.323035  0  3.869508  0
C  C20  1  0.03352760  0.59337434  0.00255004  1  0  -0.099966  0  3.581758  0  0  -0.107123  0  3.815838  0  0  -0.111873  0  3.827507  0  0  -0.072444  -0.103784  0  3.807683  0
C  C21  1  0.96646560  0.40663026  0.99745343  1  0  -0.099945  0  3.581655  0  0  -0.106972  0  3.815678  0  0  -0.111724  0  3.827343  0  0  -0.072442  -0.103638  0  3.807526  0
C  C22  1  0.02401370  0.56122309  0.17441997  1  0  0.680314  0  3.790362  0  0  0.634903  0  4.109402  0  0  0.671867  0  4.101845  0  0  0.222002  0.609686  0  4.113562  0
C  C23  1  0.97598650  0.43877861  0.82558394  1  0  0.680322  0  3.790317  0  0  0.634828  0  4.109448  0  0  0.671792  0  4.10189  0  0  0.222002  0.609613  0  4.113602  0
O  O24  1  0.46387090  0.22803067  0.85758355  1  0  -0.68394  0  1.57353  0  0  -0.696999  0  1.859191  0  0  -0.716891  0  1.846248  0  0  -0.756284  -0.685347  0  1.868683  0
O  O25  1  0.53612692  0.77195188  0.14242422  1  0  -0.683741  0  1.573649  0  0  -0.696823  0  1.859317  0  0  -0.716718  0  1.846382  0  0  -0.756175  -0.685172  0  1.868806  0
O  O26  1  0.09380898  0.73614196  0.44351937  1  0  -0.734191  0  1.575951  0  0  -0.741065  0  1.848988  0  0  -0.762204  0  1.833742  0  0  -0.744281  -0.728488  0  1.85996  0
O  O27  1  0.90618979  0.26387772  0.55647573  1  0  -0.734172  0  1.576265  0  0  -0.741043  0  1.849364  0  0  -0.762185  0  1.834126  0  0  -0.744484  -0.728455  0  1.860326  0
O  O28  1  0.48338393  0.81700381  0.80862672  1  0  -0.669901  0  1.99677  0  0  -0.638911  0  2.236516  0  0  -0.67113  0  2.228188  0  0  -0.33081  -0.615806  0  2.241059  0
O  O29  1  0.51662285  0.18298841  0.19136626  1  0  -0.66991  0  1.996739  0  0  -0.638841  0  2.236482  0  0  -0.671062  0  2.228156  0  0  -0.330765  -0.615731  0  2.241031  0
O  O30  1  0.23489201  0.85926143  0.01625609  1  0  -0.59624  0  1.978862  0  0  -0.573987  0  2.228976  0  0  -0.606972  0  2.225649  0  0  -0.324382  -0.550404  0  2.229994  0
O  O31  1  0.76510175  0.14075558  0.98373482  1  0  -0.59621  0  1.978714  0  0  -0.573931  0  2.228826  0  0  -0.606915  0  2.225498  0  0  -0.324353  -0.55034  0  2.229849  0
O  O32  1  0.88969912  0.63573271  0.27589603  1  0  -0.604628  0  1.968231  0  0  -0.593602  0  2.224865  0  0  -0.62656  0  2.219951  0  0  -0.338742  -0.570436  0  2.22719  0
O  O33  1  0.11030555  0.36426474  0.72410621  1  0  -0.604659  0  1.968186  0  0  -0.593588  0  2.224819  0  0  -0.62655  0  2.219912  0  0  -0.338706  -0.570419  0  2.227139  0
O  O34  1  0.14669415  0.44991543  0.22459221  1  0  -0.643618  0  2.014052  0  0  -0.612207  0  2.263334  0  0  -0.646795  0  2.26018  0  0  -0.33784  -0.587942  0  2.264516  0
O  O35  1  0.85331058  0.55008216  0.77540783  1  0  -0.643555  0  2.013963  0  0  -0.612134  0  2.263316  0  0  -0.646739  0  2.260206  0  0  -0.337874  -0.58787  0  2.264491  0
O  O36  1  0.20573163  0.07524666  0.20385864  1  0  -0.857871  0  1.901815  0  0  -0.832889  0  2.087338  0  0  -0.856968  0  2.055476  0  0  -0.606315  -0.815264  0  2.10911  0
O  O37  1  0.79428350  0.92473907  0.79614586  1  0  -0.857893  0  1.901873  0  0  -0.832891  0  2.087392  0  0  -0.856971  0  2.055533  0  0  -0.606236  -0.81526  0  2.109161  0
O  O38  1  0.31240877  0.33892577  0.43508553  1  0  -0.874096  0  1.863496  0  0  -0.84683  0  2.039969  0  0  -0.869428  0  2.006711  0  0  -0.605999  -0.83033  0  2.062762  0
O  O39  1  0.68758994  0.66106282  0.56491848  1  0  -0.874  0  1.863509  0  0  -0.846837  0  2.039923  0  0  -0.869433  0  2.006668  0  0  -0.605983  -0.830338  0  2.062716  0
