# generated using pymatgen
data_Zn2H17C34N2O8F5
_symmetry_space_group_name_H-M   'P 1'
_cell_length_a   9.93534432
_cell_length_b   10.98662893
_cell_length_c   24.06446754
_cell_angle_alpha   89.77969927
_cell_angle_beta   89.98657114
_cell_angle_gamma   89.70143282
_symmetry_Int_Tables_number   1
_chemical_formula_structural   Zn2H17C34N2O8F5
_chemical_formula_sum   'Zn4 H34 C68 N4 O16 F10'
_cell_volume   2626.72446541
_cell_formula_units_Z   2
loop_
 _symmetry_equiv_pos_site_id
 _symmetry_equiv_pos_as_xyz
  1  'x, y, z'
loop_
 _atom_site_type_symbol
 _atom_site_label
 _atom_site_symmetry_multiplicity
 _atom_site_fract_x
 _atom_site_fract_y
 _atom_site_fract_z
 _atom_site_occupancy
 _atom_site_pbe_bader_charge
 _atom_site_pbe_bader_spin_density
 _atom_site_pbe_cm5_charge
 _atom_site_pbe_ddec_charge
 _atom_site_pbe_ddec_spin_density
 _atom_site_pbe_ddec_sum_bond_order
 _atom_site_pbe_magmom
Zn  Zn0  1  0.62475687  0.51557679  0.50618920  1  1.298507  0  0.675254  0.850326  0  2.360145  0
Zn  Zn1  1  0.33776385  0.52111327  0.49962091  1  1.298262  0  0.675865  0.857133  0  2.343967  0
Zn  Zn2  1  0.37960817  0.49610290  0.04814949  1  1.298577  0  0.67505  0.851371  0  2.355064  0
Zn  Zn3  1  0.66601897  0.49727029  0.05072402  1  1.300319  0  0.673826  0.850058  0  2.369299  0
H  H4  1  0.23080583  0.69227173  0.57476062  1  0.183141  0  0.113362  0.134202  0  1.051623  0
H  H5  1  0.10774745  0.80449092  0.64814171  1  0.081409  0  0.10855  0.103997  0  0.996487  0
H  H6  1  0.73327051  0.64292120  0.59577414  1  0.195285  0  0.116096  0.140298  0  1.033351  0
H  H7  1  0.85918869  0.77899378  0.65908739  1  0.075022  0  0.11231  0.109205  0  0.974792  0
H  H8  1  0.42588154  0.80260819  0.61306003  1  0.071684  0  0.100395  0.108672  0  1.00712  0
H  H9  1  0.34280507  0.92330510  0.69240556  1  0.063242  0  0.096203  0.090118  0  1.00315  0
H  H10  1  0.37030200  0.25249447  0.59539232  1  0.07266  0  0.099136  0.109458  0  1.036238  0
H  H11  1  0.31171171  0.14895588  0.68304274  1  0.044852  0  0.098494  0.096886  0  1.000382  0
H  H12  1  0.72871968  0.48454543  0.88272142  1  0.092927  0  0.096742  0.105946  0  1.036778  0
H  H13  1  0.24105195  0.51389807  0.67017096  1  0.060192  0  0.096052  0.104068  0  1.031345  0
H  H14  1  0.68358439  0.70401863  0.17294277  1  0.105949  0  0.098093  0.107969  0  1.021821  0
H  H15  1  0.83593802  0.83807428  0.22513421  1  0.027705  0  0.103197  0.100114  0  0.988786  0
H  H16  1  0.68363180  0.69787620  0.37987505  1  0.110867  0  0.096263  0.107193  0  1.032415  0
H  H17  1  0.83753475  0.83340698  0.32892925  1  0.064384  0  0.10288  0.099902  0  0.989492  0
H  H18  1  0.76902226  0.63791532  0.96409621  1  0.164745  0  0.112819  0.130499  0  1.045869  0
H  H19  1  0.89256865  0.75879572  0.89353999  1  0.082044  0  0.109236  0.105193  0  0.989932  0
H  H20  1  0.27175662  0.64319443  0.96409903  1  0.137211  0  0.11634  0.140382  0  1.02895  0
H  H21  1  0.14408099  0.76044100  0.89330592  1  0.075638  0  0.113074  0.110065  0  0.973145  0
H  H22  1  0.59534577  0.79005062  0.93573727  1  0.055449  0  0.099883  0.105696  0  1.005275  0
H  H23  1  0.66412999  0.91778644  0.85585924  1  0.070665  0  0.095688  0.090238  0  1.00432  0
H  H24  1  0.62716008  0.24039785  0.95585524  1  0.070252  0  0.099262  0.10947  0  1.035585  0
H  H25  1  0.68061538  0.14400901  0.86641246  1  0.054435  0  0.097539  0.09595  0  1.002794  0
H  H26  1  0.10546023  0.41068163  0.78125341  1  0.026327  0  0.090653  0.122061  0  1.013276  0
H  H27  1  0.16247615  0.54560058  0.81289467  1  0.037162  0  0.088468  0.121003  0  1.021546  0
H  H28  1  0.10800150  0.54752669  0.74260990  1  0.02258  0  0.088571  0.12133  0  1.006387  0
H  H29  1  0.22330251  0.32167955  0.83902794  1  0.012394  0  0.088387  0.121762  0  1.016937  0
H  H30  1  0.30454522  0.30952290  0.90448745  1  0.074096  0  0.097359  0.145277  0  0.990962  0
H  H31  1  0.20930953  0.44008508  0.88914686  1  0.05424  0  0.087981  0.124902  0  1.024603  0
H  H32  1  0.85865407  0.39116717  0.76526636  1  0.036797  0  0.090535  0.12111  0  1.01166  0
H  H33  1  0.81660837  0.54125306  0.74523455  1  0.046802  0  0.089342  0.122575  0  1.0125  0
H  H34  1  0.86949282  0.51001384  0.81427990  1  0.036212  0  0.088727  0.121666  0  1.010312  0
H  H35  1  0.73999433  0.32452385  0.70187905  1  0.037041  0  0.089798  0.124544  0  1.008672  0
H  H36  1  0.66495608  0.34910815  0.63603508  1  0.055481  0  0.09532  0.143097  0  0.998972  0
H  H37  1  0.76452054  0.46372931  0.66558205  1  0.033839  0  0.087372  0.122313  0  1.02838  0
C  C38  1  0.50068916  0.75357634  0.51110216  1  1.56403  0  0.223031  0.630121  0  4.157368  0
C  C39  1  0.45771343  0.49003941  0.60993664  1  1.557559  0  0.215259  0.593139  0  4.157582  0
C  C40  1  0.47628444  0.28384580  0.49947547  1  1.6594  0  0.222548  0.631888  0  4.16537  0
C  C41  1  0.49139025  0.53973667  0.39703371  1  1.584094  0  0.226039  0.637483  0  4.130804  0
C  C42  1  0.53220236  0.73298016  0.03733733  1  1.639999  0  0.221596  0.626312  0  4.178954  0
C  C43  1  0.51048891  0.46144950  0.94183649  1  1.536792  0  0.213679  0.587649  0  4.162556  0
C  C44  1  0.53837305  0.26251214  0.05605899  1  1.604341  0  0.222189  0.633014  0  4.152964  0
C  C45  1  0.50847888  0.53146465  0.15454874  1  1.567827  0  0.225732  0.635253  0  4.135165  0
C  C46  1  0.05351577  0.60139601  0.54443017  1  0.441099  0  0.122791  0.177586  0  3.940782  0
C  C47  1  0.05208480  0.46660263  0.47134199  1  1.273096  0  0.267271  0.314118  0  4.082242  0
C  C48  1  0.12319973  0.68003924  0.58045662  1  -0.051605  0  -0.077808  -0.142634  0  3.920478  0
C  C49  1  0.05316144  0.74286633  0.62090622  1  -0.003952  0  -0.073422  -0.056529  0  3.989657  0
C  C50  1  0.90952595  0.45600203  0.47602889  1  1.31112  0  0.266214  0.315621  0  4.08054  0
C  C51  1  0.91028356  0.58980944  0.54948715  1  0.365771  0  0.121375  0.176567  0  3.943914  0
C  C52  1  0.84146071  0.65419869  0.59152970  1  -0.027855  0  -0.07888  -0.146189  0  3.930489  0
C  C53  1  0.91278404  0.72895162  0.62680576  1  -0.034424  0  -0.073693  -0.060197  0  3.994467  0
C  C54  1  0.49498773  0.89007323  0.51091713  1  0.142468  0  -0.023415  -0.178507  0  3.977173  0
C  C55  1  0.44686719  0.95758281  0.55757589  1  0.011443  0  -0.003668  0.068279  0  3.97741  0
C  C56  1  0.53163725  0.95143556  0.46332443  1  0.468303  0  0.098617  0.16624  0  4.087525  0
C  C57  1  0.41335340  0.90088067  0.60888971  1  -0.060555  0  -0.097121  -0.135876  0  3.988059  0
C  C58  1  0.36665821  0.96857085  0.65319278  1  -0.047554  0  -0.10279  -0.09998  0  4.079901  0
C  C59  1  0.47582685  0.14718272  0.50334531  1  -0.001017  0  -0.01659  -0.159706  0  3.969537  0
C  C60  1  0.52328385  0.07937084  0.45970554  1  0.503981  0  0.096655  0.15907  0  4.095528  0
C  C61  1  0.43467662  0.08763703  0.55325917  1  0.00599  0  -0.003092  0.06801  0  3.969816  0
C  C62  1  0.38397867  0.15429897  0.59927119  1  -0.092678  0  -0.092773  -0.124559  0  3.957774  0
C  C63  1  0.35022384  0.09604374  0.64816463  1  0.037721  0  -0.100936  -0.094401  0  4.057628  0
C  C64  1  0.40490266  0.42594238  0.84672416  1  0.019217  0  0.007788  0.130599  0  3.86826  0
C  C65  1  0.64455959  0.46567595  0.85511266  1  -0.030322  0  -0.102296  -0.17267  0  4.009121  0
C  C66  1  0.66660328  0.45636831  0.79877413  1  -0.087446  0  -0.015579  0.115262  0  3.963216  0
C  C67  1  0.55163375  0.44442494  0.76273921  1  -0.042473  0  -0.004737  -0.034662  0  3.902578  0
C  C68  1  0.56445175  0.44003984  0.70317960  1  0.033352  0  0.005513  0.126742  0  3.872034  0
C  C69  1  0.32494469  0.48699081  0.69679118  1  0.022653  0  -0.101638  -0.171745  0  4.008638  0
C  C70  1  0.30398795  0.46958642  0.75285056  1  -0.045277  0  -0.014555  0.116885  0  3.963206  0
C  C71  1  0.41873576  0.44422037  0.78765806  1  -0.024679  0  -0.004478  -0.036118  0  3.898843  0
C  C72  1  0.51728182  0.44798065  0.87996652  1  -0.013002  0  -0.028027  -0.105928  0  3.98319  0
C  C73  1  0.45150018  0.46949318  0.67135562  1  -0.066549  0  -0.027319  -0.103138  0  3.989754  0
C  C74  1  0.50389463  0.54425926  0.21651637  1  0.101484  0  -0.015991  -0.163627  0  3.945479  0
C  C75  1  0.59455873  0.62143409  0.24619690  1  0.009308  0  -3.1e-05  0.071784  0  3.955209  0
C  C76  1  0.41266037  0.47540408  0.24604127  1  0.419403  0  0.097125  0.163958  0  4.08283  0
C  C77  1  0.68389939  0.70144209  0.21816475  1  -0.068379  0  -0.09526  -0.130489  0  3.979842  0
C  C78  1  0.76923460  0.77626884  0.24743057  1  0.028571  0  -0.093952  -0.084259  0  4.047196  0
C  C79  1  0.49793678  0.54630108  0.33487749  1  0.086111  0  -0.016764  -0.165555  0  3.94854  0
C  C80  1  0.40917320  0.47705524  0.30458461  1  0.557408  0  0.097174  0.163702  0  4.084372  0
C  C81  1  0.59312242  0.62098073  0.30600449  1  0.021107  0  -0.000502  0.072166  0  3.953084  0
C  C82  1  0.68380670  0.69806491  0.33469145  1  -0.025428  0  -0.096904  -0.132491  0  3.978779  0
C  C83  1  0.76988839  0.77387765  0.30607094  1  -0.086216  0  -0.093882  -0.0823  0  4.045321  0
C  C84  1  0.94934015  0.57222118  0.00424181  1  0.400012  0  0.122274  0.176188  0  3.943001  0
C  C85  1  0.95186252  0.44625552  0.08099789  1  1.327205  0  0.267746  0.315108  0  4.081015  0
C  C86  1  0.87823683  0.63942947  0.96361862  1  -0.025329  0  -0.078152  -0.142852  0  3.933119  0
C  C87  1  0.94821598  0.70567664  0.92432600  1  -0.077878  0  -0.073785  -0.058193  0  3.994788  0
C  C88  1  0.09531937  0.44516167  0.08019865  1  1.245091  0  0.267526  0.314918  0  4.0811  0
C  C89  1  0.09368447  0.57285471  0.00400006  1  0.411322  0  0.123508  0.17711  0  3.941775  0
C  C90  1  0.16254594  0.64153254  0.96341770  1  0.02834  0  -0.076329  -0.138636  0  3.924702  0
C  C91  1  0.09018763  0.70687519  0.92430503  1  0.046058  0  -0.072819  -0.060723  0  3.99469  0
C  C92  1  0.52926516  0.86982759  0.03869588  1  0.007633  0  -0.02106  -0.170929  0  3.98829  0
C  C93  1  0.56952278  0.94184671  0.99228220  1  0.002416  0  -0.005279  0.066003  0  3.985153  0
C  C94  1  0.49174990  0.92596389  0.08724371  1  0.49468  0  0.095181  0.157266  0  4.090518  0
C  C95  1  0.60252687  0.88860489  0.94029854  1  -0.031415  0  -0.096858  -0.13532  0  3.992268  0
C  C96  1  0.64095185  0.95991767  0.89574891  1  -0.115935  0  -0.104425  -0.102657  0  4.082503  0
C  C97  1  0.53650101  0.12658996  0.04928862  1  0.052278  0  -0.019287  -0.167274  0  3.96247  0
C  C98  1  0.49379874  0.05382055  0.09238261  1  0.53257  0  0.098373  0.165087  0  4.094875  0
C  C99  1  0.57585862  0.07185093  0.99792614  1  0.025544  0  -0.002239  0.069475  0  3.96197  0
C  C100  1  0.61818776  0.14217643  0.95148130  1  -0.004736  0  -0.092916  -0.12428  0  3.959613  0
C  C101  1  0.64957809  0.08765067  0.90153546  1  -0.026242  0  -0.101327  -0.093593  0  4.057476  0
C  C102  1  0.16329948  0.49417274  0.77390812  1  -0.049076  0  -0.239128  -0.400484  0  3.985359  0
C  C103  1  0.27784397  0.37253279  0.87081568  1  -0.039489  0  -0.243333  -0.406181  0  3.974547  0
C  C104  1  0.80962238  0.47531729  0.77948736  1  -0.06894  0  -0.238784  -0.401118  0  3.988211  0
C  C105  1  0.69074264  0.39278310  0.67543449  1  -0.052971  0  -0.242301  -0.405921  0  3.966875  0
N  N106  1  0.12173880  0.53610068  0.50423368  1  -1.209024  0  -0.282495  -0.271037  0  3.43176  0
N  N107  1  0.84085630  0.51572960  0.51330155  1  -1.212459  0  -0.28368  -0.2744  0  3.434724  0
N  N108  1  0.88141915  0.50661029  0.04436766  1  -1.223109  0  -0.283694  -0.269136  0  3.436269  0
N  N109  1  0.16371623  0.50628998  0.04337356  1  -1.213599  0  -0.282941  -0.268905  0  3.43323  0
O  O110  1  0.61467414  0.70357990  0.50377291  1  -1.155966  0  -0.309937  -0.539081  0  2.305582  0
O  O111  1  0.38910371  0.69946740  0.51826186  1  -1.178556  0  -0.31034  -0.555678  0  2.359572  0
O  O112  1  0.34839585  0.47701537  0.58275770  1  -1.168513  0  -0.31528  -0.552464  0  2.351184  0
O  O113  1  0.56932323  0.52369184  0.58885777  1  -1.173988  0  -0.311705  -0.553095  0  2.401135  0
O  O114  1  0.36678712  0.33652641  0.48689919  1  -1.153053  0  -0.30959  -0.537292  0  2.295929  0
O  O115  1  0.58861519  0.33297308  0.51078216  1  -1.153064  0  -0.316418  -0.550008  0  2.307945  0
O  O116  1  0.60056748  0.51511089  0.42242264  1  -1.155314  0  -0.312121  -0.546519  0  2.343448  0
O  O117  1  0.37678950  0.55824667  0.41919987  1  -1.145335  0  -0.317464  -0.545019  0  2.315126  0
O  O118  1  0.42233776  0.67869094  0.02810853  1  -1.173259  0  -0.307765  -0.549313  0  2.327467  0
O  O119  1  0.64631762  0.68401521  0.04634180  1  -1.161516  0  -0.309485  -0.539879  0  2.31384  0
O  O120  1  0.62126448  0.48365155  0.96677183  1  -1.184079  0  -0.318818  -0.568256  0  2.38639  0
O  O121  1  0.39629524  0.45544856  0.96576594  1  -1.158575  0  -0.307386  -0.533303  0  2.385365  0
O  O122  1  0.65338930  0.31236611  0.05289211  1  -1.149028  0  -0.316326  -0.544075  0  2.312943  0
O  O123  1  0.42561366  0.31503563  0.06283205  1  -1.150539  0  -0.314402  -0.548272  0  2.306482  0
O  O124  1  0.39732026  0.54182551  0.12859748  1  -1.143009  0  -0.317893  -0.548566  0  2.337344  0
O  O125  1  0.62301125  0.50939094  0.13311061  1  -1.152332  0  -0.311398  -0.544268  0  2.336521  0
F  F126  1  0.84636957  0.38246064  0.44119522  1  -0.590456  0  -0.037665  -0.069444  0  1.39604  0
F  F127  1  0.11456791  0.40295818  0.43225847  1  -0.593869  0  -0.035579  -0.06739  0  1.40359  0
F  F128  1  0.56365593  0.13363032  0.41199500  1  -0.609891  0  -0.091505  -0.107486  0  1.337262  0
F  F129  1  0.57436583  0.89066685  0.41778343  1  -0.621541  0  -0.081555  -0.104805  0  1.400143  0
F  F130  1  0.31866072  0.40352545  0.32972790  1  -0.620321  0  -0.095306  -0.112698  0  1.370904  0
F  F131  1  0.32625356  0.39926420  0.22039295  1  -0.616287  0  -0.094641  -0.112225  0  1.382185  0
F  F132  1  0.15970537  0.37879344  0.11796992  1  -0.589767  0  -0.034791  -0.066921  0  1.413692  0
F  F133  1  0.88944864  0.38344040  0.12043492  1  -0.590039  0  -0.037463  -0.068444  0  1.392386  0
F  F134  1  0.45579236  0.10223535  0.14152001  1  -0.608231  0  -0.089623  -0.105601  0  1.348512  0
F  F135  1  0.45422419  0.85901328  0.13198260  1  -0.619051  0  -0.087931  -0.105345  0  1.359311  0
