# generated using pymatgen
data_CdH12C10S2(NO4)2
_symmetry_space_group_name_H-M   'P 1'
_cell_length_a   7.15523736
_cell_length_b   7.84297926
_cell_length_c   13.13922511
_cell_angle_alpha   89.99971413
_cell_angle_beta   90.00014000
_cell_angle_gamma   97.11320021
_symmetry_Int_Tables_number   1
_chemical_formula_structural   CdH12C10S2(NO4)2
_chemical_formula_sum   'Cd2 H24 C20 S4 N4 O16'
_cell_volume   731.67692652
_cell_formula_units_Z   2
loop_
 _symmetry_equiv_pos_site_id
 _symmetry_equiv_pos_as_xyz
  1  'x, y, z'
loop_
 _atom_site_type_symbol
 _atom_site_label
 _atom_site_symmetry_multiplicity
 _atom_site_fract_x
 _atom_site_fract_y
 _atom_site_fract_z
 _atom_site_occupancy
 _atom_site_hle17_bader_spin_density
 _atom_site_hle17_ddec_charge
 _atom_site_hle17_ddec_spin_density
 _atom_site_hle17_ddec_sum_bond_order
 _atom_site_hle17_magmom
 _atom_site_hse06_10hf_bader_spin_density
 _atom_site_hse06_10hf_ddec_charge
 _atom_site_hse06_10hf_ddec_spin_density
 _atom_site_hse06_10hf_ddec_sum_bond_order
 _atom_site_hse06_10hf_magmom
 _atom_site_hse06_bader_spin_density
 _atom_site_hse06_ddec_charge
 _atom_site_hse06_ddec_spin_density
 _atom_site_hse06_ddec_sum_bond_order
 _atom_site_hse06_magmom
 _atom_site_pbe_bader_spin_density
 _atom_site_pbe_cm5_charge
 _atom_site_pbe_ddec_charge
 _atom_site_pbe_ddec_spin_density
 _atom_site_pbe_ddec_sum_bond_order
 _atom_site_pbe_magmom
Cd  Cd0  1  0.50000082  0.99999943  0.49999941  1  0  1.211741  0  1.648052  0  0  1.029937  0  2.097846  0  0  1.080338  0  2.045598  0  0  0.798551  0.994048  0  2.133743  0
Cd  Cd1  1  0.99999910  0.00000001  0.00000029  1  0  1.211684  0  1.648051  0  0  1.029873  0  2.097845  0  0  1.080276  0  2.045597  0  0  0.798516  0.993987  0  2.133743  0
H  H2  1  0.67524745  0.39558008  0.51385894  1  0  0.093632  0  0.928778  0  0  0.102339  0  0.992833  0  0  0.105355  0  0.989287  0  0  0.122086  0.100083  0  0.995454  0
H  H3  1  0.82475471  0.60442065  0.01386273  1  0  0.093615  0  0.928895  0  0  0.10235  0  0.992913  0  0  0.105388  0  0.989341  0  0  0.122079  0.100094  0  0.995536  0
H  H4  1  0.32474985  0.60442255  0.48613986  1  0  0.093634  0  0.928873  0  0  0.102386  0  0.992872  0  0  0.105423  0  0.9893  0  0  0.122094  0.100129  0  0.99549  0
H  H5  1  0.17524522  0.39558071  0.98613835  1  0  0.093617  0  0.92888  0  0  0.10236  0  0.992894  0  0  0.105399  0  0.989321  0  0  0.122073  0.100103  0  0.995518  0
H  H6  1  0.74380300  0.55765675  0.82695559  1  0  0.110327  0  0.937385  0  0  0.120516  0  0.999148  0  0  0.123744  0  0.996198  0  0  0.113769  0.118088  0  1.001407  0
H  H7  1  0.75619672  0.44233635  0.32695673  1  0  0.110235  0  0.937445  0  0  0.120523  0  0.999102  0  0  0.123759  0  0.996124  0  0  0.113752  0.118092  0  1.001366  0
H  H8  1  0.25619518  0.44234204  0.17304548  1  0  0.110308  0  0.937394  0  0  0.120493  0  0.999166  0  0  0.123721  0  0.996215  0  0  0.113753  0.118064  0  1.001427  0
H  H9  1  0.24380393  0.55765987  0.67304283  1  0  0.11027  0  0.937407  0  0  0.12051  0  0.999113  0  0  0.123737  0  0.996163  0  0  0.11373  0.118079  0  1.001376  0
H  H10  1  0.63822238  0.25025948  0.87842020  1  0  0.126015  0  0.959217  0  0  0.133124  0  1.01937  0  0  0.136865  0  1.017889  0  0  0.109294  0.130395  0  1.020629  0
H  H11  1  0.86177314  0.74973192  0.37842284  1  0  0.126042  0  0.959204  0  0  0.133159  0  1.01934  0  0  0.136905  0  1.017861  0  0  0.109306  0.130452  0  1.02057  0
H  H12  1  0.36177703  0.74973802  0.12157859  1  0  0.126031  0  0.959071  0  0  0.133123  0  1.019248  0  0  0.136867  0  1.017763  0  0  0.109284  0.130386  0  1.020519  0
H  H13  1  0.13822470  0.25026429  0.62157823  1  0  0.126034  0  0.959173  0  0  0.133138  0  1.019331  0  0  0.136881  0  1.017847  0  0  0.109293  0.1304  0  1.020597  0
H  H14  1  0.55529344  0.03286753  0.74231351  1  0  0.093121  0  0.972425  0  0  0.100449  0  1.037566  0  0  0.103226  0  1.034545  0  0  0.117996  0.098359  0  1.039802  0
H  H15  1  0.94470757  0.96712753  0.24231866  1  0  0.093121  0  0.972361  0  0  0.10046  0  1.037511  0  0  0.103241  0  1.034491  0  0  0.118  0.098369  0  1.039747  0
H  H16  1  0.44470860  0.96712869  0.25768528  1  0  0.093114  0  0.972474  0  0  0.100451  0  1.037619  0  0  0.103226  0  1.0346  0  0  0.118009  0.098361  0  1.039855  0
H  H17  1  0.05529464  0.03286998  0.75768394  1  0  0.093093  0  0.972372  0  0  0.100434  0  1.03753  0  0  0.103215  0  1.034509  0  0  0.117983  0.098343  0  1.039766  0
H  H18  1  0.87285457  0.15146997  0.42517460  1  0  0.428021  0  0.873481  0  0  0.397471  0  0.936237  0  0  0.407896  0  0.921095  0  0  0.291516  0.390094  0  0.946925  0
H  H19  1  0.62714405  0.84853262  0.92517396  1  0  0.428052  0  0.873445  0  0  0.397508  0  0.936192  0  0  0.407932  0  0.921049  0  0  0.291532  0.39013  0  0.946882  0
H  H20  1  0.12714290  0.84853395  0.57482495  1  0  0.428041  0  0.87346  0  0  0.397496  0  0.936209  0  0  0.407921  0  0.921065  0  0  0.29153  0.390117  0  0.946899  0
H  H21  1  0.37285309  0.15146873  0.07482560  1  0  0.428027  0  0.873477  0  0  0.397474  0  0.936238  0  0  0.4079  0  0.921094  0  0  0.291513  0.390098  0  0.946925  0
H  H22  1  0.73165214  0.12155759  0.33261354  1  0  0.431787  0  0.868664  0  0  0.400982  0  0.933169  0  0  0.410948  0  0.918596  0  0  0.294694  0.393947  0  0.943435  0
H  H23  1  0.76834582  0.87844317  0.83261452  1  0  0.431813  0  0.868644  0  0  0.401006  0  0.93315  0  0  0.410974  0  0.918573  0  0  0.29468  0.393971  0  0.943416  0
H  H24  1  0.26834639  0.87844376  0.66738526  1  0  0.431808  0  0.868647  0  0  0.401003  0  0.933151  0  0  0.41097  0  0.918575  0  0  0.29468  0.393966  0  0.943419  0
H  H25  1  0.23165148  0.12155947  0.16738580  1  0  0.431771  0  0.868696  0  0  0.400964  0  0.933204  0  0  0.410933  0  0.918626  0  0  0.294665  0.393927  0  0.943473  0
C  C26  1  0.66966952  0.36831817  0.59514459  1  0  0.145235  0  3.678958  0  0  0.102818  0  3.927532  0  0  0.112457  0  3.944472  0  0  0.056931  0.096603  0  3.916057  0
C  C27  1  0.83033677  0.63167936  0.09514678  1  0  0.145113  0  3.679253  0  0  0.102711  0  3.927801  0  0  0.112336  0  3.944732  0  0  0.05691  0.096496  0  3.91633  0
C  C28  1  0.33033129  0.63167934  0.40485725  1  0  0.145211  0  3.678882  0  0  0.102756  0  3.927449  0  0  0.11238  0  3.944383  0  0  0.056938  0.096542  0  3.915971  0
C  C29  1  0.16966579  0.36832072  0.90485353  1  0  0.145164  0  3.679193  0  0  0.102741  0  3.927754  0  0  0.112365  0  3.944685  0  0  0.056947  0.096523  0  3.916283  0
C  C30  1  0.71728596  0.49726507  0.66702995  1  0  -0.173723  0  3.730039  0  0  -0.141755  0  3.978739  0  0  -0.154476  0  4.002232  0  0  -0.014343  -0.133749  0  3.963277  0
C  C31  1  0.78272056  0.50273189  0.16703094  1  0  -0.173535  0  3.730045  0  0  -0.141657  0  3.978868  0  0  -0.154382  0  4.002366  0  0  -0.014291  -0.133653  0  3.963407  0
C  C32  1  0.28271379  0.50273500  0.33296961  1  0  -0.17373  0  3.730057  0  0  -0.141762  0  3.97878  0  0  -0.154484  0  4.00228  0  0  -0.014354  -0.133759  0  3.96332  0
C  C33  1  0.21728339  0.49726820  0.83296862  1  0  -0.173561  0  3.730079  0  0  -0.141638  0  3.978847  0  0  -0.15436  0  4.002345  0  0  -0.014286  -0.133635  0  3.96339  0
C  C34  1  0.70688091  0.45748416  0.77048739  1  0  0.000929  0  3.697742  0  0  -0.033267  0  3.949153  0  0  -0.02802  0  3.968067  0  0  -0.059887  -0.036365  0  3.936374  0
C  C35  1  0.79311845  0.54250810  0.27049056  1  0  0.000952  0  3.697614  0  0  -0.033288  0  3.949018  0  0  -0.028035  0  3.967937  0  0  -0.05986  -0.036386  0  3.936242  0
C  C36  1  0.29311867  0.54251462  0.22951216  1  0  0.00091  0  3.697774  0  0  -0.033292  0  3.949172  0  0  -0.028045  0  3.968086  0  0  -0.059901  -0.036391  0  3.936392  0
C  C37  1  0.20688236  0.45748940  0.72950975  1  0  0.000895  0  3.697785  0  0  -0.033318  0  3.949175  0  0  -0.028066  0  3.96808  0  0  -0.05988  -0.036415  0  3.93639  0
C  C38  1  0.64890207  0.28803587  0.79869627  1  0  -0.10238  0  3.685206  0  0  -0.113017  0  3.93868  0  0  -0.121357  0  3.960392  0  0  -0.078215  -0.107743  0  3.924301  0
C  C39  1  0.85110053  0.71195875  0.29869825  1  0  -0.102414  0  3.685344  0  0  -0.113048  0  3.938865  0  0  -0.121397  0  3.960582  0  0  -0.078244  -0.107795  0  3.924474  0
C  C40  1  0.35110294  0.71196164  0.20130480  1  0  -0.102372  0  3.685138  0  0  -0.112958  0  3.938574  0  0  -0.121301  0  3.96029  0  0  -0.078204  -0.107677  0  3.9242  0
C  C41  1  0.14890151  0.28803748  0.70130358  1  0  -0.102416  0  3.685355  0  0  -0.113028  0  3.938851  0  0  -0.12137  0  3.960569  0  0  -0.078213  -0.107745  0  3.924472  0
C  C42  1  0.60280832  0.16602768  0.72279621  1  0  0.139756  0  3.666982  0  0  0.104191  0  3.920892  0  0  0.112932  0  3.938326  0  0  0.049748  0.098532  0  3.909062  0
C  C43  1  0.89719262  0.83396753  0.22280169  1  0  0.139717  0  3.667011  0  0  0.104099  0  3.920991  0  0  0.112831  0  3.938436  0  0  0.049737  0.098439  0  3.909165  0
C  C44  1  0.39719563  0.83397240  0.27720258  1  0  0.139768  0  3.667063  0  0  0.104156  0  3.920998  0  0  0.112896  0  3.938432  0  0  0.049753  0.098496  0  3.909165  0
C  C45  1  0.10280836  0.16603126  0.77720014  1  0  0.139814  0  3.666964  0  0  0.104194  0  3.92095  0  0  0.112925  0  3.938394  0  0  0.049751  0.098535  0  3.909116  0
S  S46  1  0.78251202  0.71233707  0.62527378  1  0  1.329651  0  5.646617  0  0  1.224605  0  6.167448  0  0  1.274356  0  6.142544  0  0  0.5226  1.190264  0  6.183572  0
S  S47  1  0.71748754  0.28766149  0.12527533  1  0  1.329655  0  5.646709  0  0  1.224622  0  6.167545  0  0  1.274367  0  6.142646  0  0  0.522646  1.190283  0  6.183671  0
S  S48  1  0.21748494  0.28766300  0.37472653  1  0  1.329609  0  5.646681  0  0  1.224555  0  6.167513  0  0  1.274307  0  6.142612  0  0  0.522604  1.190212  0  6.183638  0
S  S49  1  0.28251238  0.71233987  0.87472346  1  0  1.329605  0  5.646616  0  0  1.224562  0  6.167459  0  0  1.274311  0  6.142557  0  0  0.522599  1.190222  0  6.183582  0
N  N50  1  0.61265624  0.20537049  0.62284734  1  0  -0.344803  0  3.233344  0  0  -0.264798  0  3.499838  0  0  -0.285886  0  3.517919  0  0  -0.325923  -0.250435  0  3.487208  0
N  N51  1  0.88734997  0.79462553  0.12285065  1  0  -0.344698  0  3.233193  0  0  -0.264664  0  3.499677  0  0  -0.285753  0  3.517768  0  0  -0.325898  -0.250302  0  3.487049  0
N  N52  1  0.38734771  0.79462959  0.37715221  1  0  -0.344759  0  3.233147  0  0  -0.26474  0  3.499661  0  0  -0.285829  0  3.51775  0  0  -0.32591  -0.250375  0  3.487025  0
N  N53  1  0.11265242  0.20537326  0.87715043  1  0  -0.344761  0  3.233217  0  0  -0.264736  0  3.499733  0  0  -0.285827  0  3.517826  0  0  -0.325919  -0.250372  0  3.487101  0
O  O54  1  0.60706719  0.76058062  0.58109442  1  0  -0.705481  0  2.05245  0  0  -0.644356  0  2.338625  0  0  -0.668935  0  2.321392  0  0  -0.348933  -0.626847  0  2.34978  0
O  O55  1  0.89293189  0.23941572  0.08109179  1  0  -0.705421  0  2.052499  0  0  -0.644301  0  2.338664  0  0  -0.668879  0  2.321437  0  0  -0.348886  -0.626787  0  2.349817  0
O  O56  1  0.39292960  0.23941816  0.41890589  1  0  -0.705422  0  2.052439  0  0  -0.644281  0  2.338597  0  0  -0.668858  0  2.321363  0  0  -0.348902  -0.62677  0  2.349752  0
O  O57  1  0.10706630  0.76058307  0.91890624  1  0  -0.70542  0  2.052421  0  0  -0.644286  0  2.338579  0  0  -0.668864  0  2.321349  0  0  -0.348875  -0.626773  0  2.349731  0
O  O58  1  0.93178898  0.70590840  0.54889953  1  0  -0.659873  0  1.951979  0  0  -0.604361  0  2.189062  0  0  -0.626173  0  2.174723  0  0  -0.33121  -0.588851  0  2.198294  0
O  O59  1  0.56820699  0.29409717  0.04889933  1  0  -0.659914  0  1.95187  0  0  -0.604389  0  2.188933  0  0  -0.6262  0  2.174596  0  0  -0.331253  -0.588875  0  2.198163  0
O  O60  1  0.06820849  0.29409552  0.45110003  1  0  -0.659868  0  1.95203  0  0  -0.604348  0  2.189116  0  0  -0.626158  0  2.174772  0  0  -0.331225  -0.588834  0  2.198344  0
O  O61  1  0.43179154  0.70590418  0.95109946  1  0  -0.659885  0  1.951873  0  0  -0.604369  0  2.188951  0  0  -0.626181  0  2.174616  0  0  -0.331245  -0.588854  0  2.19818  0
O  O62  1  0.84666570  0.81189655  0.71571052  1  0  -0.671254  0  2.024937  0  0  -0.614263  0  2.276059  0  0  -0.635494  0  2.260822  0  0  -0.329758  -0.599394  0  2.286141  0
O  O63  1  0.65333294  0.18810257  0.21570771  1  0  -0.671306  0  2.025115  0  0  -0.614303  0  2.276227  0  0  -0.635524  0  2.260982  0  0  -0.329805  -0.599435  0  2.286312  0
O  O64  1  0.15333160  0.18810608  0.28428980  1  0  -0.671247  0  2.024937  0  0  -0.614251  0  2.276038  0  0  -0.635486  0  2.260805  0  0  -0.329767  -0.599376  0  2.286119  0
O  O65  1  0.34666402  0.81189750  0.78429032  1  0  -0.671265  0  2.02506  0  0  -0.614261  0  2.276155  0  0  -0.635489  0  2.260915  0  0  -0.329764  -0.59939  0  2.286236  0
O  O66  1  0.76191699  0.07441457  0.39971424  1  0  -0.846823  0  1.866035  0  0  -0.785668  0  2.065122  0  0  -0.807636  0  2.032881  0  0  -0.589649  -0.770028  0  2.087427  0
O  O67  1  0.73807997  0.92558694  0.89971427  1  0  -0.846895  0  1.865988  0  0  -0.785736  0  2.065079  0  0  -0.807704  0  2.032832  0  0  -0.589653  -0.770096  0  2.087382  0
O  O68  1  0.23808154  0.92558678  0.60028532  1  0  -0.846889  0  1.866003  0  0  -0.785738  0  2.065107  0  0  -0.807707  0  2.032862  0  0  -0.589655  -0.770099  0  2.087408  0
O  O69  1  0.26191716  0.07441441  0.10028604  1  0  -0.846824  0  1.866043  0  0  -0.78566  0  2.065129  0  0  -0.807629  0  2.03288  0  0  -0.589631  -0.770019  0  2.087431  0
