# generated using pymatgen
data_ZnH20C13S2N4O9
_symmetry_space_group_name_H-M   'P 1'
_cell_length_a   7.71547638
_cell_length_b   8.83451016
_cell_length_c   14.30015651
_cell_angle_alpha   90.00037990
_cell_angle_beta   90.00013300
_cell_angle_gamma   97.45851035
_symmetry_Int_Tables_number   1
_chemical_formula_structural   ZnH20C13S2N4O9
_chemical_formula_sum   'Zn2 H40 C26 S4 N8 O18'
_cell_volume   966.48666093
_cell_formula_units_Z   2
loop_
 _symmetry_equiv_pos_site_id
 _symmetry_equiv_pos_as_xyz
  1  'x, y, z'
loop_
 _atom_site_type_symbol
 _atom_site_label
 _atom_site_symmetry_multiplicity
 _atom_site_fract_x
 _atom_site_fract_y
 _atom_site_fract_z
 _atom_site_occupancy
 _atom_site_hle17_bader_spin_density
 _atom_site_hle17_ddec_charge
 _atom_site_hle17_ddec_spin_density
 _atom_site_hle17_ddec_sum_bond_order
 _atom_site_hle17_magmom
 _atom_site_hse06_10hf_bader_spin_density
 _atom_site_hse06_10hf_ddec_charge
 _atom_site_hse06_10hf_ddec_spin_density
 _atom_site_hse06_10hf_ddec_sum_bond_order
 _atom_site_hse06_10hf_magmom
 _atom_site_hse06_bader_spin_density
 _atom_site_hse06_ddec_charge
 _atom_site_hse06_ddec_spin_density
 _atom_site_hse06_ddec_sum_bond_order
 _atom_site_hse06_magmom
 _atom_site_pbe_bader_spin_density
 _atom_site_pbe_cm5_charge
 _atom_site_pbe_ddec_charge
 _atom_site_pbe_ddec_spin_density
 _atom_site_pbe_ddec_sum_bond_order
 _atom_site_pbe_magmom
Zn  Zn0  1  0.29059567  0.38475399  0.74999976  1  0  1.164155  0  1.901507  0  0  0.997378  0  2.398469  0  0  1.042047  0  2.33505  0  0  0.725788  0.966794  0  2.441724  0
Zn  Zn1  1  0.70940439  0.61524889  0.25000038  1  0  1.16423  0  1.901404  0  0  0.997438  0  2.398365  0  0  1.042102  0  2.334943  0  0  0.725825  0.966847  0  2.441619  0
H  H2  1  0.37365948  0.18813643  0.09704921  1  0  0.130434  0  0.909356  0  0  0.141944  0  0.967761  0  0  0.144701  0  0.966248  0  0  0.12342  0.14005  0  0.968737  0
H  H3  1  0.62634194  0.81186242  0.59705148  1  0  0.130436  0  0.909385  0  0  0.141962  0  0.96778  0  0  0.144718  0  0.966272  0  0  0.123439  0.140066  0  0.968758  0
H  H4  1  0.62633991  0.81186188  0.90295092  1  0  0.130446  0  0.909341  0  0  0.141955  0  0.967733  0  0  0.144711  0  0.966222  0  0  0.123436  0.140061  0  0.96871  0
H  H5  1  0.37366021  0.18813704  0.40294936  1  0  0.130435  0  0.909362  0  0  0.141958  0  0.967772  0  0  0.144719  0  0.96626  0  0  0.123424  0.140063  0  0.968749  0
H  H6  1  0.45698494  0.38633929  0.09108191  1  0  0.137042  0  0.908883  0  0  0.147479  0  0.96848  0  0  0.149816  0  0.967918  0  0  0.12742  0.145923  0  0.968837  0
H  H7  1  0.54301209  0.61366520  0.59108115  1  0  0.137037  0  0.908858  0  0  0.147454  0  0.968514  0  0  0.149794  0  0.967947  0  0  0.127393  0.145898  0  0.968872  0
H  H8  1  0.54301382  0.61366359  0.90891683  1  0  0.137075  0  0.908808  0  0  0.147482  0  0.968446  0  0  0.149822  0  0.967877  0  0  0.127418  0.145926  0  0.968804  0
H  H9  1  0.45698700  0.38633996  0.40891969  1  0  0.137069  0  0.9089  0  0  0.14752  0  0.968496  0  0  0.149864  0  0.96793  0  0  0.127431  0.145965  0  0.968853  0
H  H10  1  0.03045967  0.13354465  0.12540242  1  0  0.117267  0  0.962547  0  0  0.121723  0  1.037075  0  0  0.124311  0  1.036691  0  0  0.113709  0.119766  0  1.037462  0
H  H11  1  0.96954304  0.86645339  0.62540464  1  0  0.117264  0  0.962524  0  0  0.121714  0  1.037066  0  0  0.124303  0  1.036686  0  0  0.113705  0.119758  0  1.037454  0
H  H12  1  0.96954248  0.86645481  0.87459702  1  0  0.117257  0  0.962541  0  0  0.121727  0  1.037051  0  0  0.124314  0  1.036668  0  0  0.113703  0.119771  0  1.037439  0
H  H13  1  0.03046136  0.13354379  0.37459549  1  0  0.117368  0  0.962588  0  0  0.121827  0  1.037108  0  0  0.12442  0  1.036723  0  0  0.11377  0.119869  0  1.037494  0
H  H14  1  0.10585239  0.12340057  0.00907155  1  0  0.134382  0  0.91747  0  0  0.147964  0  0.972936  0  0  0.150625  0  0.971544  0  0  0.128843  0.146071  0  0.973948  0
H  H15  1  0.89415386  0.87659844  0.50907162  1  0  0.134422  0  0.917367  0  0  0.147995  0  0.972859  0  0  0.150663  0  0.971461  0  0  0.128872  0.146104  0  0.973868  0
H  H16  1  0.89415009  0.87660118  0.99092789  1  0  0.13439  0  0.917457  0  0  0.147971  0  0.972927  0  0  0.150629  0  0.971537  0  0  0.128849  0.14608  0  0.973936  0
H  H17  1  0.10584975  0.12340216  0.49092781  1  0  0.134396  0  0.917391  0  0  0.147986  0  0.972852  0  0  0.150648  0  0.971465  0  0  0.128859  0.146094  0  0.973863  0
H  H18  1  0.01416535  0.43948449  0.16289983  1  0  0.096403  0  0.926514  0  0  0.107601  0  0.990355  0  0  0.108466  0  0.990906  0  0  0.117261  0.106706  0  0.990232  0
H  H19  1  0.98583369  0.56051397  0.66289732  1  0  0.096326  0  0.926571  0  0  0.107531  0  0.990406  0  0  0.108395  0  0.990959  0  0  0.117222  0.106638  0  0.990284  0
H  H20  1  0.98583567  0.56051611  0.83710031  1  0  0.096434  0  0.926484  0  0  0.107641  0  0.990315  0  0  0.108507  0  0.990867  0  0  0.117264  0.106749  0  0.990195  0
H  H21  1  0.01416586  0.43948549  0.33710002  1  0  0.096392  0  0.926549  0  0  0.107604  0  0.990355  0  0  0.108468  0  0.990908  0  0  0.117257  0.10671  0  0.990232  0
H  H22  1  0.23031876  0.53555932  0.15504081  1  0  0.102903  0  0.916437  0  0  0.113669  0  0.97798  0  0  0.115431  0  0.977392  0  0  0.117385  0.112611  0  0.977944  0
H  H23  1  0.76967797  0.46444133  0.65503903  1  0  0.102941  0  0.916432  0  0  0.113714  0  0.977969  0  0  0.115476  0  0.977382  0  0  0.117399  0.112657  0  0.977933  0
H  H24  1  0.76968096  0.46444128  0.84495933  1  0  0.102925  0  0.91643  0  0  0.113698  0  0.977968  0  0  0.11546  0  0.977381  0  0  0.117384  0.112642  0  0.977932  0
H  H25  1  0.23032028  0.53555812  0.34495901  1  0  0.102928  0  0.916445  0  0  0.113691  0  0.977979  0  0  0.115453  0  0.977391  0  0  0.11739  0.112633  0  0.977944  0
H  H26  1  0.13843925  0.22302123  0.24999921  1  0  0.062632  0  1.027528  0  0  0.072731  0  1.103928  0  0  0.073717  0  1.104948  0  0  0.080567  0.07236  0  1.102376  0
H  H27  1  0.86156160  0.77697823  0.74999953  1  0  0.062628  0  1.02753  0  0  0.072727  0  1.103923  0  0  0.073715  0  1.104939  0  0  0.080569  0.072356  0  1.102373  0
H  H28  1  0.34544579  0.33679083  0.24999957  1  0  0.0848  0  0.951691  0  0  0.100166  0  1.016414  0  0  0.100672  0  1.017646  0  0  0.095359  0.099246  0  1.01661  0
H  H29  1  0.65455230  0.66320748  0.74999986  1  0  0.084779  0  0.951747  0  0  0.100156  0  1.016449  0  0  0.100661  0  1.017682  0  0  0.095372  0.099234  0  1.016643  0
H  H30  1  0.16316347  0.41228093  0.01937277  1  0  0.295726  0  0.864168  0  0  0.274693  0  0.931231  0  0  0.283283  0  0.923794  0  0  0.323247  0.268718  0  0.936362  0
H  H31  1  0.83683004  0.58771931  0.51937158  1  0  0.295726  0  0.864194  0  0  0.274697  0  0.931221  0  0  0.283286  0  0.923786  0  0  0.323258  0.268721  0  0.93635  0
H  H32  1  0.83683236  0.58771966  0.98062667  1  0  0.295727  0  0.864219  0  0  0.274693  0  0.931258  0  0  0.283283  0  0.923823  0  0  0.323258  0.268716  0  0.936389  0
H  H33  1  0.16316449  0.41228127  0.48062646  1  0  0.295712  0  0.864145  0  0  0.274697  0  0.931184  0  0  0.283285  0  0.923749  0  0  0.323244  0.268723  0  0.936313  0
H  H34  1  0.53492996  0.24220690  0.69275759  1  0  0.421943  0  0.885119  0  0  0.385309  0  0.959418  0  0  0.396868  0  0.94273  0  0  0.286828  0.377239  0  0.971023  0
H  H35  1  0.46506796  0.75779191  0.19275848  1  0  0.421986  0  0.885084  0  0  0.385343  0  0.959376  0  0  0.396905  0  0.942684  0  0  0.286836  0.377274  0  0.970979  0
H  H36  1  0.46506846  0.75779370  0.30724254  1  0  0.42203  0  0.885004  0  0  0.385404  0  0.959279  0  0  0.396967  0  0.942583  0  0  0.286864  0.377335  0  0.970881  0
H  H37  1  0.53493013  0.24220641  0.80724235  1  0  0.421962  0  0.88509  0  0  0.385327  0  0.959391  0  0  0.396887  0  0.942701  0  0  0.286841  0.377257  0  0.970996  0
H  H38  1  0.65386386  0.14742348  0.97689283  1  0  0.412687  0  0.883439  0  0  0.377697  0  0.965151  0  0  0.390806  0  0.946791  0  0  0.302841  0.368452  0  0.976337  0
H  H39  1  0.34613557  0.85257741  0.47689325  1  0  0.412768  0  0.883375  0  0  0.377753  0  0.965093  0  0  0.390875  0  0.946714  0  0  0.302856  0.368502  0  0.976334  0
H  H40  1  0.34613457  0.85257711  0.02310731  1  0  0.412683  0  0.883466  0  0  0.377681  0  0.965188  0  0  0.390792  0  0.946825  0  0  0.302822  0.368437  0  0.976384  0
H  H41  1  0.65386545  0.14742319  0.52310619  1  0  0.412701  0  0.883432  0  0  0.377717  0  0.965126  0  0  0.390825  0  0.946766  0  0  0.302844  0.368474  0  0.976322  0
C  C42  1  0.36182730  0.29590279  0.06106521  1  0  -0.167342  0  3.479621  0  0  -0.223042  0  3.72435  0  0  -0.224249  0  3.72886  0  0  -0.056725  -0.222528  0  3.721506  0
C  C43  1  0.63817197  0.70410022  0.56106494  1  0  -0.167257  0  3.479518  0  0  -0.223  0  3.724295  0  0  -0.224207  0  3.7288  0  0  -0.056723  -0.222489  0  3.721454  0
C  C44  1  0.63817242  0.70409781  0.93893493  1  0  -0.167319  0  3.479602  0  0  -0.222998  0  3.72426  0  0  -0.2242  0  3.728766  0  0  -0.056752  -0.222487  0  3.721419  0
C  C45  1  0.36182791  0.29590152  0.43893520  1  0  -0.167409  0  3.479634  0  0  -0.22319  0  3.724454  0  0  -0.224418  0  3.728977  0  0  -0.056751  -0.222677  0  3.721612  0
C  C46  1  0.39426953  0.28592751  0.95540996  1  0  0.688671  0  3.84434  0  0  0.635565  0  4.150767  0  0  0.668664  0  4.143988  0  0  0.22078  0.613364  0  4.154965  0
C  C47  1  0.60573851  0.71407088  0.45540946  1  0  0.688904  0  3.844423  0  0  0.635804  0  4.150839  0  0  0.668904  0  4.144065  0  0  0.220962  0.613602  0  4.155039  0
C  C48  1  0.60573872  0.71406055  0.04459018  1  0  0.688912  0  3.8443  0  0  0.63583  0  4.150641  0  0  0.668929  0  4.143867  0  0  0.220999  0.61363  0  4.154838  0
C  C49  1  0.39426313  0.28592516  0.54459068  1  0  0.688773  0  3.844277  0  0  0.635728  0  4.15065  0  0  0.668828  0  4.14387  0  0  0.220873  0.613527  0  4.154849  0
C  C50  1  0.05073630  0.19758188  0.05957251  1  0  -0.180836  0  3.53129  0  0  -0.237495  0  3.773072  0  0  -0.240078  0  3.77968  0  0  -0.059554  -0.235781  0  3.768788  0
C  C51  1  0.94926472  0.80241541  0.55957445  1  0  -0.180826  0  3.531165  0  0  -0.237528  0  3.773001  0  0  -0.240095  0  3.779562  0  0  -0.059585  -0.235816  0  3.768717  0
C  C52  1  0.94926325  0.80241757  0.94042693  1  0  -0.180757  0  3.531202  0  0  -0.237458  0  3.77303  0  0  -0.240032  0  3.779634  0  0  -0.059553  -0.235747  0  3.768747  0
C  C53  1  0.05073596  0.19758291  0.44042499  1  0  -0.180897  0  3.531237  0  0  -0.2376  0  3.773039  0  0  -0.240157  0  3.779569  0  0  -0.059611  -0.235886  0  3.768753  0
C  C54  1  0.87894934  0.23772659  0.02231899  1  0  0.696097  0  3.787607  0  0  0.64635  0  4.096085  0  0  0.678139  0  4.088217  0  0  0.236291  0.624567  0  4.10128  0
C  C55  1  0.12105260  0.76226913  0.52232110  1  0  0.69631  0  3.787294  0  0  0.646612  0  4.095691  0  0  0.678399  0  4.08783  0  0  0.236476  0.62483  0  4.100886  0
C  C56  1  0.12105118  0.76227058  0.97768185  1  0  0.69608  0  3.787445  0  0  0.646352  0  4.095896  0  0  0.678136  0  4.088035  0  0  0.236351  0.62457  0  4.101091  0
C  C57  1  0.87894921  0.23772804  0.47767834  1  0  0.696178  0  3.787324  0  0  0.646501  0  4.095699  0  0  0.67829  0  4.087836  0  0  0.236404  0.62472  0  4.100894  0
C  C58  1  0.15270769  0.42325543  0.16289499  1  0  0.00444  0  3.493247  0  0  -0.048214  0  3.74216  0  0  -0.045198  0  3.75283  0  0  -0.05759  -0.050049  0  3.734588  0
C  C59  1  0.84729039  0.57674531  0.66289377  1  0  0.00437  0  3.493397  0  0  -0.048285  0  3.742257  0  0  -0.045268  0  3.752925  0  0  -0.057608  -0.050123  0  3.734687  0
C  C60  1  0.84729203  0.57674516  0.83710515  1  0  0.004316  0  3.493256  0  0  -0.048362  0  3.74219  0  0  -0.045344  0  3.75286  0  0  -0.057634  -0.050201  0  3.734623  0
C  C61  1  0.15270787  0.42325414  0.33710427  1  0  0.004335  0  3.4934  0  0  -0.048286  0  3.742238  0  0  -0.045268  0  3.752905  0  0  -0.057622  -0.050121  0  3.734664  0
C  C62  1  0.20364154  0.34126579  0.24999949  1  0  -0.157045  0  3.680893  0  0  -0.199126  0  3.931114  0  0  -0.20162  0  3.945478  0  0  -0.173152  -0.197722  0  3.921443  0
C  C63  1  0.79635688  0.65873481  0.74999995  1  0  -0.156973  0  3.68082  0  0  -0.199107  0  3.931181  0  0  -0.201599  0  3.945541  0  0  -0.17317  -0.197702  0  3.921513  0
C  C64  1  0.29733883  0.73714983  0.75000049  1  0  0.301291  0  4.094576  0  0  0.285496  0  4.392138  0  0  0.308125  0  4.407019  0  0  0.13999  0.270482  0  4.380726  0
C  C65  1  0.70266156  0.26285533  0.24999825  1  0  0.30126  0  4.094572  0  0  0.285457  0  4.39216  0  0  0.308087  0  4.407037  0  0  0.139957  0.270445  0  4.380748  0
C  C66  1  0.93946285  0.17034517  0.74999974  1  0  0.329305  0  4.054698  0  0  0.312136  0  4.347168  0  0  0.335782  0  4.360465  0  0  0.145851  0.296547  0  4.337379  0
C  C67  1  0.06053784  0.82965315  0.25000180  1  0  0.329225  0  4.054783  0  0  0.312054  0  4.347258  0  0  0.335697  0  4.36056  0  0  0.14581  0.296463  0  4.337469  0
S  S68  1  0.77008808  0.04281508  0.75000356  1  0  -0.344068  0  2.105404  0  0  -0.322765  0  2.411452  0  0  -0.337603  0  2.405916  0  0  -0.148173  -0.314647  0  2.414401  0
S  S69  1  0.22991858  0.95717982  0.25000077  1  0  -0.344014  0  2.105443  0  0  -0.322708  0  2.411476  0  0  -0.337546  0  2.405943  0  0  -0.148147  -0.314593  0  2.414427  0
S  S70  1  0.27098610  0.91433774  0.74999943  1  0  -0.307212  0  2.030224  0  0  -0.287545  0  2.31168  0  0  -0.301311  0  2.309167  0  0  -0.152004  -0.276499  0  2.311849  0
S  S71  1  0.72901412  0.08566628  0.24999861  1  0  -0.307173  0  2.030158  0  0  -0.287514  0  2.31163  0  0  -0.30128  0  2.309116  0  0  -0.151989  -0.276474  0  2.311799  0
N  N72  1  0.18051859  0.33692666  0.07418251  1  0  -0.057593  0  3.357015  0  0  0.022534  0  3.56679  0  0  0.011337  0  3.583919  0  0  -0.34149  0.030177  0  3.55498  0
N  N73  1  0.81947896  0.66307307  0.57418231  1  0  -0.057641  0  3.357098  0  0  0.02253  0  3.566848  0  0  0.011327  0  3.583986  0  0  -0.341471  0.030181  0  3.555035  0
N  N74  1  0.81947983  0.66307393  0.92581763  1  0  -0.057659  0  3.35715  0  0  0.022496  0  3.566895  0  0  0.01129  0  3.584031  0  0  -0.341464  0.030147  0  3.555084  0
N  N75  1  0.18051929  0.33692638  0.42581573  1  0  -0.057542  0  3.356997  0  0  0.022572  0  3.566796  0  0  0.011378  0  3.583931  0  0  -0.341476  0.030216  0  3.554982  0
N  N76  1  0.06183747  0.26671368  0.75000427  1  0  -0.603381  0  3.01498  0  0  -0.537307  0  3.32193  0  0  -0.560517  0  3.319721  0  0  -0.423129  -0.521694  0  3.322948  0
N  N77  1  0.93816903  0.73328008  0.25000217  1  0  -0.603337  0  3.014961  0  0  -0.537276  0  3.32195  0  0  -0.560492  0  3.319762  0  0  -0.423105  -0.52166  0  3.322964  0
N  N78  1  0.31902723  0.60596390  0.75000093  1  0  -0.626782  0  3.01499  0  0  -0.564186  0  3.332616  0  0  -0.586273  0  3.329226  0  0  -0.434854  -0.548744  0  3.334506  0
N  N79  1  0.68097672  0.39403899  0.24999991  1  0  -0.626782  0  3.014998  0  0  -0.564209  0  3.332673  0  0  -0.586295  0  3.329282  0  0  -0.434845  -0.548767  0  3.334562  0
O  O80  1  0.52392713  0.30496266  0.74999975  1  0  -0.852172  0  2.014123  0  0  -0.783969  0  2.245282  0  0  -0.807329  0  2.207473  0  0  -0.576318  -0.767453  0  2.271324  0
O  O81  1  0.47607275  0.69503908  0.25000039  1  0  -0.852255  0  2.014036  0  0  -0.784074  0  2.245217  0  0  -0.807427  0  2.207387  0  0  -0.576362  -0.767562  0  2.271259  0
O  O82  1  0.30534865  0.36478497  0.90520782  1  0  -0.625588  0  2.026146  0  0  -0.564735  0  2.279938  0  0  -0.591329  0  2.268996  0  0  -0.30587  -0.546622  0  2.287091  0
O  O83  1  0.69464245  0.63522309  0.40521060  1  0  -0.625686  0  2.026514  0  0  -0.5648  0  2.280263  0  0  -0.591375  0  2.269313  0  0  -0.305951  -0.546697  0  2.287432  0
O  O84  1  0.69464103  0.63521789  0.09478812  1  0  -0.625698  0  2.026564  0  0  -0.564812  0  2.280281  0  0  -0.591382  0  2.269328  0  0  -0.305971  -0.546704  0  2.287437  0
O  O85  1  0.30534724  0.36477978  0.59479234  1  0  -0.625554  0  2.026152  0  0  -0.564736  0  2.279934  0  0  -0.591313  0  2.26898  0  0  -0.305907  -0.546639  0  2.287122  0
O  O86  1  0.50661893  0.20409828  0.92611578  1  0  -0.615376  0  2.056113  0  0  -0.555019  0  2.282122  0  0  -0.580484  0  2.270585  0  0  -0.300632  -0.537358  0  2.288815  0
O  O87  1  0.49337212  0.79590887  0.42611547  1  0  -0.61559  0  2.055955  0  0  -0.555231  0  2.281961  0  0  -0.580719  0  2.270427  0  0  -0.30072  -0.537551  0  2.288644  0
O  O88  1  0.49337075  0.79590458  0.07388506  1  0  -0.615583  0  2.055739  0  0  -0.555221  0  2.281704  0  0  -0.580706  0  2.270178  0  0  -0.300723  -0.537551  0  2.288391  0
O  O89  1  0.50662032  0.20409513  0.57388537  1  0  -0.615481  0  2.056076  0  0  -0.55514  0  2.282056  0  0  -0.580611  0  2.270522  0  0  -0.300682  -0.537465  0  2.28873  0
O  O90  1  0.85109886  0.37018460  0.00988931  1  0  -0.558291  0  1.976539  0  0  -0.518513  0  2.205641  0  0  -0.538464  0  2.198203  0  0  -0.287216  -0.505072  0  2.210563  0
O  O91  1  0.14890576  0.62981213  0.50989161  1  0  -0.558416  0  1.976438  0  0  -0.518646  0  2.205517  0  0  -0.538597  0  2.198078  0  0  -0.287338  -0.505206  0  2.210441  0
O  O92  1  0.14890103  0.62981713  0.99011293  1  0  -0.558255  0  1.976622  0  0  -0.518497  0  2.205741  0  0  -0.538436  0  2.198286  0  0  -0.287228  -0.505054  0  2.21066  0
O  O93  1  0.85109751  0.37018619  0.49010573  1  0  -0.558349  0  1.976451  0  0  -0.518586  0  2.205517  0  0  -0.538542  0  2.198081  0  0  -0.287273  -0.50515  0  2.21044  0
O  O94  1  0.76840569  0.11440117  0.00449089  1  0  -0.558725  0  2.104931  0  0  -0.511984  0  2.333195  0  0  -0.535477  0  2.317688  0  0  -0.328901  -0.495539  0  2.34191  0
O  O95  1  0.23159388  0.88559663  0.50449085  1  0  -0.558895  0  2.104718  0  0  -0.512158  0  2.332962  0  0  -0.535661  0  2.317446  0  0  -0.329012  -0.49571  0  2.341717  0
O  O96  1  0.23159663  0.88559943  0.99550925  1  0  -0.558769  0  2.104688  0  0  -0.512036  0  2.332954  0  0  -0.53553  0  2.31745  0  0  -0.328968  -0.495589  0  2.341675  0
O  O97  1  0.76840680  0.11440169  0.49550929  1  0  -0.558782  0  2.104784  0  0  -0.512075  0  2.333017  0  0  -0.535572  0  2.317511  0  0  -0.328966  -0.495633  0  2.341741  0
