# generated using pymatgen
data_CuH8C9(NCl)2
_symmetry_space_group_name_H-M   'P 1'
_cell_length_a   6.21329293
_cell_length_b   8.40277228
_cell_length_c   10.01135646
_cell_angle_alpha   81.07884972
_cell_angle_beta   75.24830157
_cell_angle_gamma   86.77433056
_symmetry_Int_Tables_number   1
_chemical_formula_structural   CuH8C9(NCl)2
_chemical_formula_sum   'Cu2 H16 C18 N4 Cl4'
_cell_volume   499.26165717
_cell_formula_units_Z   2
loop_
 _symmetry_equiv_pos_site_id
 _symmetry_equiv_pos_as_xyz
  1  'x, y, z'
loop_
 _atom_site_type_symbol
 _atom_site_label
 _atom_site_symmetry_multiplicity
 _atom_site_fract_x
 _atom_site_fract_y
 _atom_site_fract_z
 _atom_site_occupancy
 _atom_site_hle17_ddec_charge
 _atom_site_hle17_ddec_spin_density
 _atom_site_hle17_ddec_sum_bond_order
 _atom_site_hle17_magmom
 _atom_site_hse06_10hf_ddec_charge
 _atom_site_hse06_10hf_ddec_spin_density
 _atom_site_hse06_10hf_ddec_sum_bond_order
 _atom_site_hse06_10hf_magmom
 _atom_site_hse06_ddec_charge
 _atom_site_hse06_ddec_spin_density
 _atom_site_hse06_ddec_sum_bond_order
 _atom_site_hse06_magmom
 _atom_site_pbe_cm5_charge
 _atom_site_pbe_ddec_charge
 _atom_site_pbe_ddec_spin_density
 _atom_site_pbe_ddec_sum_bond_order
 _atom_site_pbe_magmom
Cu  Cu0  1  0.27397108  0.06591416  0.43425213  1  0.707778  0.597036  1.981486  0.432  0.716632  0.713624  2.38356  0.56  0.815826  0.783768  2.29985  0.649  0.527684  0.661069  0.669445  2.435162  0.509
Cu  Cu1  1  0.72602957  0.93409831  0.56574528  1  0.70774  0.596992  1.981441  0.432  0.716666  0.713619  2.383508  0.56  0.815873  0.783767  2.29976  0.649  0.527724  0.661127  0.66945  2.435096  0.509
H  H2  1  0.06825024  0.94228290  0.20979677  1  0.104237  0.000501  0.969139  0.0  0.115496  0.000784  1.030072  0.0  0.118633  0.000604  1.026205  0.0  0.110177  0.113397  0.000899  1.032761  0.001
H  H3  1  0.93175396  0.05772232  0.79020497  1  0.104188  0.000502  0.969017  0.0  0.115465  0.000785  1.029958  0.0  0.118602  0.000604  1.026091  0.0  0.110141  0.113362  0.000899  1.032649  0.001
H  H4  1  0.21203697  0.06389867  0.92659631  1  0.129194  0.001521  0.971678  0.0  0.141214  0.001526  1.027502  0.0  0.144684  0.001171  1.027039  0.0  0.102558  0.138523  0.001408  1.028841  0.001
H  H5  1  0.78796583  0.93609452  0.07340318  1  0.129231  0.001513  0.971716  0.0  0.141229  0.001526  1.027555  0.0  0.144697  0.001171  1.027094  0.0  0.102554  0.138538  0.001407  1.028885  0.001
H  H6  1  0.48365132  0.31194673  0.92372995  1  0.106835  0.000498  0.973549  0.001  0.117493  0.000466  1.037142  0.001  0.119085  0.000362  1.036822  0.0  0.121767  0.116514  0.000459  1.036979  0.001
H  H7  1  0.51634296  0.68805251  0.07626516  1  0.106778  0.000499  0.97357  0.001  0.117445  0.000466  1.037175  0.001  0.119037  0.000361  1.036852  0.0  0.121742  0.116486  0.000458  1.036989  0.001
H  H8  1  0.83370834  0.28283569  0.05806498  1  0.100621  -3.9e-05  0.956967  0.0  0.111473  -2.4e-05  1.019865  0.0  0.114046  -1.6e-05  1.019329  0.0  0.102374  0.109675  -2.1e-05  1.020099  0.0
H  H9  1  0.16628085  0.71716597  0.94192765  1  0.100694  -4.2e-05  0.956857  0.0  0.111504  -2.4e-05  1.019798  0.0  0.114078  -1.6e-05  1.019261  0.0  0.102396  0.109708  -2.1e-05  1.020031  0.0
H  H10  1  0.04547709  0.47537519  0.13778525  1  0.082655  -1.6e-05  0.965517  0.0  0.0921  -9e-06  1.029643  0.0  0.094087  -6e-06  1.029959  0.0  0.096313  0.090765  -0.0  1.029338  0.0
H  H11  1  0.95452074  0.52461680  0.86221420  1  0.082624  -2.3e-05  0.965542  0.0  0.092093  -9e-06  1.029644  0.0  0.094081  -6e-06  1.02996  0.0  0.096303  0.090756  -0.0  1.02934  0.0
H  H12  1  0.84911242  0.64412345  0.31842874  1  0.093034  -0.000105  0.976051  0.0  0.103343  0.000149  1.038524  0.0  0.107388  0.000102  1.035438  0.0  0.087178  0.100553  0.000206  1.040509  0.0
H  H13  1  0.15088695  0.35587217  0.68156800  1  0.093043  -0.000105  0.975983  0.0  0.103326  0.000149  1.038492  0.0  0.107379  0.000103  1.035398  0.0  0.08715  0.100552  0.000206  1.040463  0.0
H  H14  1  0.43868368  0.62616487  0.41083205  1  0.098703  0.001223  0.971123  0.0  0.109611  0.001194  1.030465  0.0  0.112283  0.000901  1.029939  0.0  0.091252  0.107942  0.001396  1.0306  0.0
H  H15  1  0.56132419  0.37382827  0.58917462  1  0.098701  0.00122  0.97105  0.0  0.109604  0.001194  1.030415  0.0  0.112276  0.000901  1.029889  0.0  0.09124  0.107938  0.001396  1.030549  0.0
H  H16  1  0.22640589  0.43062310  0.33384396  1  0.116815  -0.000293  0.963488  0.0  0.125222  -0.000184  1.029314  0.0  0.128912  -0.000204  1.02733  0.0  0.101055  0.122595  -0.000145  1.030933  0.0
H  H17  1  0.77359527  0.56937245  0.66616349  1  0.116886  -0.000295  0.963446  0.0  0.125249  -0.000184  1.029325  0.0  0.128939  -0.000204  1.027341  0.0  0.101092  0.122621  -0.000145  1.030947  0.0
C  C18  1  0.17697818  0.04171155  0.15740870  1  0.064827  -0.004105  3.705779  -0.002  0.024772  9.4e-05  3.981178  0.001  0.037168  -0.001926  3.993727  0.0  0.020373  0.016857  0.001025  3.972287  0.002
C  C19  1  0.82301788  0.95828643  0.84259527  1  0.064906  -0.004115  3.705818  -0.002  0.024846  9.5e-05  3.981203  0.001  0.037238  -0.001926  3.993756  0.0  0.020413  0.016941  0.001025  3.972311  0.002
C  C20  1  0.25042521  0.10439654  0.01535284  1  -0.202686  0.004955  3.768256  0.005  -0.215877  0.002568  4.029893  0.003  -0.225513  0.002102  4.048024  0.002  -0.115956  -0.208892  0.003643  4.01707  0.004
C  C21  1  0.74957910  0.89560268  0.98464565  1  -0.202827  0.004987  3.768395  0.005  -0.215988  0.002566  4.030023  0.003  -0.22562  0.002102  4.048152  0.002  -0.115948  -0.209002  0.003642  4.017204  0.004
C  C22  1  0.39152737  0.22847924  0.01030044  1  0.022054  -0.002767  3.651408  -0.001  -0.036657  -0.00041  3.904966  0.0  -0.026477  -0.002037  3.917111  -0.001  0.027329  -0.042419  0.001167  3.895527  0.001
C  C23  1  0.60846851  0.77152479  0.98969980  1  0.022336  -0.002792  3.651147  -0.001  -0.036395  -0.000409  3.904708  0.0  -0.026219  -0.002038  3.916859  -0.001  0.02741  -0.04218  0.001167  3.895258  0.001
C  C24  1  0.51851705  0.34759656  0.19046816  1  0.132911  0.000432  3.821051  0.001  0.110888  -0.000132  4.082486  0.0  0.113468  -0.000352  4.106679  0.0  0.08209  0.108729  -4e-06  4.067091  0.0
C  C25  1  0.48147553  0.65240625  0.80953277  1  0.132671  0.000429  3.821098  0.001  0.110717  -0.000132  4.082433  0.0  0.113292  -0.000352  4.106635  0.0  0.082049  0.108554  -4e-06  4.067049  0.0
C  C26  1  0.74800560  0.35957097  0.13417684  1  -0.144002  0.000422  3.7523  0.0  -0.168004  -1e-05  4.011009  0.0  -0.170712  -0.000118  4.031456  0.0  -0.093636  -0.16595  -1.9e-05  3.997169  0.0
C  C27  1  0.25199216  0.64042462  0.86582416  1  -0.143928  0.000424  3.752252  0.0  -0.167913  -1e-05  4.010953  0.0  -0.170619  -0.000119  4.031403  0.0  -0.093616  -0.165861  -1.9e-05  3.997118  0.0
C  C28  1  0.86617051  0.46681015  0.18054105  1  -0.04932  1.4e-05  3.763109  0.0  -0.060184  5.9e-05  4.010251  0.0  -0.061568  -4.6e-05  4.03186  0.0  -0.088858  -0.059346  0.000138  3.99571  0.0
C  C29  1  0.13382887  0.53318547  0.81945569  1  -0.049379  4.5e-05  3.763086  0.0  -0.060268  5.8e-05  4.010235  0.0  -0.061654  -4.5e-05  4.031845  0.0  -0.088931  -0.059429  0.000138  3.995698  0.0
C  C30  1  0.75647414  0.56143798  0.28103911  1  -0.065745  0.001878  3.733364  0.002  -0.078232  0.000644  3.971759  0.001  -0.080089  0.000323  3.990796  0.0  -0.091107  -0.076511  0.000696  3.95845  0.001
C  C31  1  0.24353370  0.43855518  0.71896456  1  -0.065718  0.001859  3.733251  0.002  -0.078165  0.000644  3.971645  0.001  -0.08003  0.000322  3.990682  0.0  -0.091001  -0.076454  0.000697  3.958327  0.001
C  C32  1  0.52630891  0.54985476  0.33495014  1  -0.044332  0.002298  3.746642  0.002  -0.05017  0.001735  3.982048  0.002  -0.051148  0.001182  4.003145  0.001  -0.086106  -0.049568  0.00194  3.967488  0.002
C  C33  1  0.47369736  0.45013479  0.66505424  1  -0.044415  0.002317  3.746426  0.002  -0.050257  0.001736  3.981832  0.002  -0.051233  0.001183  4.002925  0.001  -0.086183  -0.049657  0.001941  3.967282  0.002
C  C34  1  0.40559792  0.44200597  0.29089338  1  -0.156783  -0.00023  3.731727  0.0  -0.182552  -0.000367  3.995025  0.0  -0.187228  -0.000573  4.014865  0.0  -0.094492  -0.180119  -0.000248  3.982736  0.0
C  C35  1  0.59440814  0.55799201  0.70910997  1  -0.15669  -0.000239  3.731383  0.0  -0.182455  -0.000367  3.994681  0.0  -0.187129  -0.000573  4.014522  0.0  -0.094465  -0.180025  -0.000248  3.982398  0.0
N  N36  1  0.26579552  0.12323965  0.23474965  1  -0.240572  0.059825  3.21835  0.074  -0.218772  0.047945  3.512954  0.062  -0.246714  0.041073  3.534039  0.057  -0.267188  -0.20148  0.052362  3.499674  0.065
N  N37  1  0.73419694  0.87676799  0.76525068  1  -0.240539  0.059812  3.218458  0.074  -0.218777  0.047944  3.513096  0.062  -0.246717  0.041073  3.534181  0.057  -0.267162  -0.201497  0.052358  3.499832  0.065
N  N38  1  0.39781956  0.23720313  0.14367271  1  0.02972  0.003239  3.586844  0.003  0.147496  0.002731  3.757388  0.003  0.13926  0.002226  3.784114  0.002  -0.132094  0.152379  0.003387  3.740606  0.004
N  N39  1  0.60218446  0.76280575  0.85631961  1  0.029615  0.003251  3.586783  0.003  0.147384  0.00273  3.757359  0.003  0.139148  0.002226  3.784087  0.002  -0.132145  0.152295  0.003386  3.740543  0.004
Cl  Cl40  1  0.37014229  0.04366305  0.64249889  1  -0.402407  0.197631  1.255167  0.233  -0.414362  0.1413  1.590046  0.176  -0.464249  0.108935  1.566264  0.145  -0.22122  -0.38646  0.161485  1.608546  0.194
Cl  Cl41  1  0.62985359  0.95633979  0.35749850  1  -0.402423  0.19764  1.255123  0.233  -0.414384  0.141305  1.589988  0.176  -0.464272  0.108938  1.566205  0.145  -0.221243  -0.386473  0.161496  1.608467  0.194
Cl  Cl42  1  0.95074201  0.20392963  0.51892485  1  -0.483516  0.136098  1.042466  0.164  -0.490913  0.086317  1.333506  0.111  -0.531133  0.062528  1.308614  0.089  -0.279504  -0.46826  0.100777  1.350873  0.123
Cl  Cl43  1  0.04925526  0.79608405  0.48107095  1  -0.483518  0.136105  1.042486  0.164  -0.490943  0.086319  1.333558  0.111  -0.531157  0.062529  1.308652  0.089  -0.279509  -0.468294  0.10078  1.350929  0.123
