# generated using pymatgen
data_Zn2H41C54N9O14
_symmetry_space_group_name_H-M   'P 1'
_cell_length_a   14.52911937
_cell_length_b   15.96595860
_cell_length_c   23.71639647
_cell_angle_alpha   89.65596148
_cell_angle_beta   90.17884186
_cell_angle_gamma   90.33583851
_symmetry_Int_Tables_number   1
_chemical_formula_structural   Zn2H41C54N9O14
_chemical_formula_sum   'Zn2 H41 C54 N9 O14'
_cell_volume   5501.30386974
_cell_formula_units_Z   1
loop_
 _symmetry_equiv_pos_site_id
 _symmetry_equiv_pos_as_xyz
  1  'x, y, z'
loop_
 _atom_site_type_symbol
 _atom_site_label
 _atom_site_symmetry_multiplicity
 _atom_site_fract_x
 _atom_site_fract_y
 _atom_site_fract_z
 _atom_site_occupancy
 _atom_site_pbe_bader_charge
 _atom_site_pbe_bader_spin_density
 _atom_site_pbe_cm5_charge
 _atom_site_pbe_ddec_charge
 _atom_site_pbe_ddec_spin_density
 _atom_site_pbe_ddec_sum_bond_order
 _atom_site_pbe_magmom
Zn  Zn0  1  0.40791878  0.48810779  0.49902928  1  1.314329  0  0.677468  0.887593  0  2.444512  0
Zn  Zn1  1  0.59883691  0.50123195  0.50002901  1  1.320026  0  0.681756  0.893117  0  2.429979  0
H  H2  1  0.43639347  0.29533025  0.94434277  1  0.11875  0  0.117263  0.130666  0  0.984489  0
H  H3  1  0.36217980  0.07163683  0.52615932  1  0.025262  0  0.09302  0.094289  0  0.978588  0
H  H4  1  0.63226372  0.91113296  0.47465759  1  -0.000806  0  0.094003  0.089334  0  0.988954  0
H  H5  1  0.35064625  0.92633711  0.53103001  1  0.044924  0  0.093009  0.097034  0  0.997859  0
H  H6  1  0.41596813  0.08514794  0.42557997  1  0.054019  0  0.097837  0.109504  0  0.978904  0
H  H7  1  0.53359040  0.06730579  0.40993110  1  0.018185  0  0.091533  0.09548  0  0.996064  0
H  H8  1  0.06873176  0.36915924  0.48221669  1  0.054671  0  0.11115  0.056077  0  0.955237  0
H  H9  1  0.92139878  0.38961787  0.51011483  1  0.030416  0  0.10807  0.05186  0  0.959586  0
H  H10  1  0.94785415  0.59359353  0.57380246  1  0.065142  0  0.112173  0.1268  0  0.964368  0
H  H11  1  0.09772683  0.54049552  0.58639323  1  0.055352  0  0.110904  0.120255  0  0.956671  0
H  H12  1  0.91257711  0.48930798  0.58790137  1  0.048549  0  0.109992  0.116853  0  0.958236  0
H  H13  1  0.35784520  0.50377729  0.67662012  1  0.111998  0  0.105014  0.108676  0  0.999691  0
H  H14  1  0.06195694  0.43586389  0.57664661  1  0.073223  0  0.106155  0.108455  0  0.965334  0
H  H15  1  0.94670887  0.57487674  0.41669094  1  0.097275  0  0.121738  0.116733  0  0.941919  0
H  H16  1  0.10138439  0.58195542  0.42671550  1  0.124508  0  0.119945  0.115649  0  0.96338  0
H  H17  1  0.56062589  0.69952515  0.05361911  1  0.121224  0  0.11557  0.120765  0  0.981501  0
H  H18  1  0.55934565  0.70187838  0.94669762  1  0.112252  0  0.11529  0.122659  0  0.984352  0
H  H19  1  0.65495458  0.48640378  0.21148288  1  0.067888  0  0.107077  0.112959  0  0.98369  0
H  H20  1  0.66050692  0.48507945  0.31756422  1  0.088105  0  0.103337  0.105631  0  1.00201  0
H  H21  1  0.36621514  0.49808278  0.32316774  1  0.108561  0  0.104439  0.108067  0  1.00193  0
H  H22  1  0.35992928  0.50082528  0.21703297  1  0.084556  0  0.106776  0.112277  0  0.984488  0
H  H23  1  0.35432891  0.50180488  0.78272913  1  0.071349  0  0.107302  0.113188  0  0.983265  0
H  H24  1  0.65261097  0.50057478  0.68032460  1  0.112124  0  0.106084  0.109854  0  0.997116  0
H  H25  1  0.33844867  0.97503522  0.38946762  1  0.37438  0  0.27923  0.263207  0  0.977003  0
H  H26  1  0.34706441  0.87973059  0.41582103  1  0.420119  0  0.283499  0.276158  0  0.966348  0
H  H27  1  0.49874958  0.94325204  0.35105736  1  0.382795  0  0.276489  0.265415  0  0.981308  0
H  H28  1  0.57877686  0.91406599  0.39587215  1  0.398577  0  0.275967  0.265428  0  0.992035  0
H  H29  1  0.41577859  0.22344511  0.03284784  1  0.465229  0  0.325272  0.318611  0  0.91862  0
H  H30  1  0.43302258  0.27564101  0.09856179  1  0.504231  0  0.30695  0.323931  0  0.97786  0
H  H31  1  0.95077518  0.72774821  0.44257374  1  0.088963  0  0.110145  0.048285  0  0.945687  0
H  H32  1  0.18819515  0.65475039  0.50436614  1  0.135273  0  0.123009  0.071514  0  0.943431  0
H  H33  1  0.81655191  0.42655071  0.42989799  1  0.411666  0  0.297625  0.292595  0  0.960967  0
H  H34  1  0.89044859  0.35348525  0.41452166  1  0.413865  0  0.302335  0.289348  0  0.936447  0
H  H35  1  0.65007274  0.49815587  0.78645009  1  0.06739  0  0.108085  0.113995  0  0.982317  0
H  H36  1  0.11510392  0.39515630  0.39203783  1  0.411027  0  0.301361  0.295425  0  0.945334  0
H  H37  1  0.00825480  0.43116600  0.38034978  1  0.418505  0  0.284518  0.275252  0  1.014615  0
H  H38  1  0.44461266  0.91965141  0.57864566  1  0.049049  0  0.09307  0.090697  0  0.978107  0
H  H39  1  0.60264173  0.90086679  0.54580554  1  0.032461  0  0.099289  0.101944  0  0.970625  0
H  H40  1  0.44233047  0.06644132  0.58236905  1  0.048456  0  0.09342  0.092199  0  0.976907  0
H  H41  1  0.61368254  0.04584230  0.55840908  1  0.040487  0  0.094069  0.094233  0  0.975059  0
H  H42  1  0.65059450  0.05597447  0.48785767  1  -0.005143  0  0.089393  0.086639  0  0.98592  0
C  C43  1  0.51425317  0.33157427  0.50361211  1  1.707012  0  0.215281  0.680908  0  4.236813  0
C  C44  1  0.52536446  0.57135059  0.12121275  1  1.337491  0  0.23782  0.432448  0  4.112525  0
C  C45  1  0.59205616  0.48867262  0.23634624  1  0.055233  0  -0.085785  -0.155251  0  3.983688  0
C  C46  1  0.51588798  0.49004444  0.38950372  1  1.528896  0  0.214997  0.596586  0  4.170881  0
C  C47  1  0.59510352  0.48785303  0.29504497  1  -0.021927  0  -0.080027  -0.075117  0  3.973123  0
C  C48  1  0.51348606  0.49085454  0.32622352  1  -0.025548  0  -0.013301  -0.026945  0  3.948433  0
C  C49  1  0.42877437  0.49538888  0.29807250  1  -0.08621  0  -0.07965  -0.073977  0  3.972741  0
C  C50  1  0.42537433  0.49693431  0.23945014  1  0.022322  0  -0.086304  -0.154895  0  3.989213  0
C  C51  1  0.50711394  0.49322053  0.20899949  1  0.337351  0  0.089752  0.195242  0  4.01817  0
C  C52  1  0.41933574  0.50163928  0.75992203  1  -0.031106  0  -0.084786  -0.153059  0  3.987149  0
C  C53  1  0.42119267  0.50274260  0.70127039  1  0.05056  0  -0.079133  -0.074918  0  3.972635  0
C  C54  1  0.45368643  0.35108840  0.96871872  1  -0.058241  0  -0.072228  -0.183881  0  3.887825  0
C  C55  1  0.50533278  0.50229406  0.67262751  1  -0.049665  0  -0.012188  -0.026248  0  3.947492  0
C  C56  1  0.58786427  0.50078774  0.70332371  1  -0.042741  0  -0.077462  -0.072748  0  3.965219  0
C  C57  1  0.58641302  0.49930263  0.76201858  1  -0.061601  0  -0.085265  -0.154228  0  3.983549  0
C  C58  1  0.46972778  0.65503835  0.49250392  1  1.66372  0  0.217458  0.685036  0  4.225449  0
C  C59  1  0.50202782  0.49975393  0.78983605  1  0.307019  0  0.088978  0.193362  0  4.020908  0
C  C60  1  0.42756037  0.04359984  0.53965993  1  -0.056766  0  -0.15343  -0.183944  0  3.850896  0
C  C61  1  0.59550468  0.03039307  0.51466048  1  -0.018538  0  -0.156401  -0.191205  0  3.865074  0
C  C62  1  0.58505135  0.93481155  0.50687546  1  0.013791  0  -0.152669  -0.181062  0  3.8542  0
C  C63  1  0.42155996  0.94712930  0.53845930  1  0.000888  0  -0.155955  -0.179442  0  3.863194  0
C  C64  1  0.46856813  0.74538771  0.49029718  1  0.197832  0  -0.063192  -0.22428  0  3.984887  0
C  C65  1  0.45328286  0.34763682  0.02889839  1  0.541336  0  0.127891  0.321937  0  4.075944  0
C  C66  1  0.50422343  0.07461021  0.49928063  1  0.150922  0  1.6e-05  0.184896  0  3.900583  0
C  C67  1  0.48413213  0.91180604  0.49144439  1  0.099611  0  0.007989  0.088465  0  3.824233  0
C  C68  1  0.45744699  0.95374655  0.43351280  1  0.682658  0  0.165834  0.411824  0  3.783931  0
C  C69  1  0.47717148  0.04951780  0.43843260  1  -0.043224  0  -0.153901  -0.298183  0  3.794383  0
C  C70  1  0.47381752  0.82136260  0.48897582  1  -0.494867  0  -0.026095  -0.016117  0  4.040734  0
C  C71  1  0.51345135  0.16502959  0.50208808  1  -0.602485  0  -0.032748  -0.050735  0  4.047884  0
C  C72  1  0.50684062  0.50212967  0.60933461  1  1.634256  0  0.216298  0.594957  0  4.172259  0
C  C73  1  0.51729331  0.24107544  0.50338247  1  0.226018  0  -0.068108  -0.222601  0  4.006265  0
C  C74  1  0.93735425  0.43368756  0.47535960  1  0.36271  0  0.021193  0.101476  0  3.808492  0
C  C75  1  0.04357123  0.42837842  0.46378815  1  0.344908  0  0.022355  0.107792  0  3.817389  0
C  C76  1  0.47670075  0.42108528  0.05945527  1  -0.042958  0  -0.031899  -0.215765  0  3.974662  0
C  C77  1  0.95419200  0.52867335  0.55958020  1  0.000483  0  -0.145173  -0.19469  0  3.853372  0
C  C78  1  0.05515330  0.49974896  0.55968028  1  -0.04132  0  -0.145915  -0.195037  0  3.876477  0
C  C79  1  0.91560576  0.52303989  0.49872079  1  0.149378  0  0.018633  0.049821  0  3.855816  0
C  C80  1  0.09120972  0.50071294  0.49841422  1  0.143881  0  0.017308  0.043497  0  3.869475  0
C  C81  1  0.06813137  0.58527386  0.46840294  1  -0.045414  0  -0.072508  -0.128647  0  3.826056  0
C  C82  1  0.96225504  0.59033700  0.46106616  1  -0.061375  0  -0.072905  -0.119409  0  3.799875  0
C  C83  1  0.18941262  0.48649667  0.49768438  1  0.822757  0  0.234903  0.28328  0  3.891548  0
C  C84  1  0.81610983  0.53101868  0.50047139  1  0.92644  0  0.238068  0.302396  0  3.889815  0
C  C85  1  0.52203910  0.57455181  0.87831513  1  1.335519  0  0.244128  0.434102  0  4.095261  0
C  C86  1  0.47625448  0.42270058  0.87739201  1  1.30907  0  0.245059  0.43701  0  4.09316  0
C  C87  1  0.49901119  0.49598263  0.02987923  1  -0.071291  0  0.002961  0.054182  0  4.028322  0
C  C88  1  0.47591165  0.42346969  0.94012538  1  0.033229  0  -0.004233  -0.036439  0  4.01911  0
C  C89  1  0.49878943  0.49790051  0.96982276  1  0.044707  0  -0.006852  0.005495  0  4.026092  0
C  C90  1  0.52111412  0.57250457  0.94079457  1  -0.042496  0  -0.006896  -0.056155  0  4.00277  0
C  C91  1  0.92161342  0.67716821  0.46966735  1  0.966841  0  0.102856  0.288724  0  3.943443  0
C  C92  1  0.11172893  0.65711615  0.50014202  1  0.907732  0  0.117232  0.291412  0  3.87565  0
C  C93  1  0.52234531  0.57044692  0.05901071  1  -0.055282  0  -0.011805  -0.074299  0  3.989883  0
C  C94  1  0.54340142  0.64378730  0.02935366  1  -0.065944  0  -0.06671  -0.067965  0  3.952967  0
C  C95  1  0.54283136  0.64518179  0.97045525  1  0.097756  0  -0.075105  -0.091849  0  3.964181  0
C  C96  1  0.47881151  0.41977844  0.12093437  1  1.312227  0  0.234487  0.443223  0  4.103907  0
N  N97  1  0.50025856  0.49864987  0.85072126  1  -1.18488  0  -0.230452  -0.210768  0  3.567884  0
N  N98  1  0.50380820  0.49461870  0.14815369  1  -1.203524  0  -0.231079  -0.204856  0  3.56765  0
N  N99  1  0.26758866  0.47272198  0.49692106  1  -1.139361  0  -0.280645  -0.287314  0  3.106305  0
N  N100  1  0.73690711  0.52187917  0.50148469  1  -1.212977  0  -0.289387  -0.302666  0  3.120765  0
N  N101  1  0.35882172  0.94169882  0.42417973  1  -1.128341  0  -0.626681  -0.674178  0  3.17142  0
N  N102  1  0.50948941  0.91235501  0.38835974  1  -1.113534  0  -0.638332  -0.704454  0  3.179393  0
N  N103  1  0.43102532  0.27528863  0.05533447  1  -1.271348  0  -0.562211  -0.58128  0  3.336164  0
N  N104  1  0.88518563  0.41550577  0.42419801  1  -1.105938  0  -0.621964  -0.640798  0  3.210114  0
N  N105  1  0.06623674  0.43622659  0.40461929  1  -1.131979  0  -0.630742  -0.647174  0  3.24356  0
O  O106  1  0.43375577  0.36288404  0.50496942  1  -1.145728  0  -0.32214  -0.553455  0  2.264311  0
O  O107  1  0.45735579  0.35986511  0.84990457  1  -1.097474  0  -0.280346  -0.437822  0  2.063375  0
O  O108  1  0.46042469  0.35646445  0.14991045  1  -1.118377  0  -0.289235  -0.466966  0  2.101598  0
O  O109  1  0.54531275  0.63373534  0.14897479  1  -1.103533  0  -0.2883  -0.448438  0  2.066093  0
O  O110  1  0.85456663  0.68899105  0.49938218  1  -1.069764  0  -0.24455  -0.333188  0  2.149725  0
O  O111  1  0.06791560  0.71483246  0.52012556  1  -1.056375  0  -0.228149  -0.313353  0  2.135742  0
O  O112  1  0.59043528  0.37141535  0.50211887  1  -1.15435  0  -0.324299  -0.562018  0  2.246288  0
O  O113  1  0.43842165  0.48573737  0.41443362  1  -1.164474  0  -0.319443  -0.560765  0  2.332253  0
O  O114  1  0.59452709  0.49394240  0.41329208  1  -1.152983  0  -0.322216  -0.55487  0  2.296382  0
O  O115  1  0.39249990  0.61639215  0.49243475  1  -1.133755  0  -0.328065  -0.567876  0  2.237084  0
O  O116  1  0.54915734  0.62179277  0.49470912  1  -1.148945  0  -0.312683  -0.550475  0  2.262273  0
O  O117  1  0.42921265  0.50092074  0.58416565  1  -1.177339  0  -0.319709  -0.557114  0  2.320431  0
O  O118  1  0.58550928  0.50261614  0.58581979  1  -1.16587  0  -0.318258  -0.548732  0  2.314132  0
O  O119  1  0.54057410  0.63792848  0.85093630  1  -1.093923  0  -0.274612  -0.429074  0  2.064376  0
