# generated using pymatgen
data_Zn3H16C8(N10F)2
_symmetry_space_group_name_H-M   'P 1'
_cell_length_a   7.30984519
_cell_length_b   11.64117528
_cell_length_c   11.64118040
_cell_angle_alpha   89.99997956
_cell_angle_beta   89.99998395
_cell_angle_gamma   89.99994040
_symmetry_Int_Tables_number   1
_chemical_formula_structural   Zn3H16C8(N10F)2
_chemical_formula_sum   'Zn6 H32 C16 N40 F4'
_cell_volume   990.60844868
_cell_formula_units_Z   2
loop_
 _symmetry_equiv_pos_site_id
 _symmetry_equiv_pos_as_xyz
  1  'x, y, z'
loop_
 _atom_site_type_symbol
 _atom_site_label
 _atom_site_symmetry_multiplicity
 _atom_site_fract_x
 _atom_site_fract_y
 _atom_site_fract_z
 _atom_site_occupancy
 _atom_site_hle17_bader_spin_density
 _atom_site_hle17_ddec_charge
 _atom_site_hle17_ddec_spin_density
 _atom_site_hle17_ddec_sum_bond_order
 _atom_site_hle17_magmom
 _atom_site_hse06_10hf_bader_spin_density
 _atom_site_hse06_10hf_ddec_charge
 _atom_site_hse06_10hf_ddec_spin_density
 _atom_site_hse06_10hf_ddec_sum_bond_order
 _atom_site_hse06_10hf_magmom
 _atom_site_hse06_bader_spin_density
 _atom_site_hse06_ddec_charge
 _atom_site_hse06_ddec_spin_density
 _atom_site_hse06_ddec_sum_bond_order
 _atom_site_hse06_magmom
 _atom_site_pbe_bader_spin_density
 _atom_site_pbe_cm5_charge
 _atom_site_pbe_ddec_charge
 _atom_site_pbe_ddec_spin_density
 _atom_site_pbe_ddec_sum_bond_order
 _atom_site_pbe_magmom
Zn  Zn0  1  0.99999998  0.74999950  0.24999934  1  0  0.86241  0  2.128786  0  0  0.660379  0  2.639973  0  0  0.697205  0  2.595052  0  0  0.727159  0.635068  0  2.670879  0
Zn  Zn1  1  0.99999963  0.25000040  0.75000036  1  0  0.862464  0  2.128758  0  0  0.660421  0  2.639972  0  0  0.697246  0  2.595048  0  0  0.727168  0.635114  0  2.670885  0
Zn  Zn2  1  0.50000034  0.74999967  0.24999938  1  0  0.862411  0  2.128794  0  0  0.660378  0  2.639981  0  0  0.697202  0  2.59506  0  0  0.727165  0.63507  0  2.670891  0
Zn  Zn3  1  0.49999927  0.25000023  0.75000031  1  0  0.86241  0  2.128813  0  0  0.660388  0  2.639987  0  0  0.697214  0  2.595068  0  0  0.727174  0.635079  0  2.670898  0
Zn  Zn4  1  0.75000005  0.75000036  0.74999934  1  0  1.020089  0  1.824639  0  0  0.83303  0  2.254455  0  0  0.877073  0  2.207668  0  0  0.679518  0.802405  0  2.286321  0
Zn  Zn5  1  0.24999956  0.24999955  0.25000035  1  0  1.020035  0  1.824742  0  0  0.832991  0  2.254571  0  0  0.877023  0  2.20778  0  0  0.679484  0.802357  0  2.286438  0
H  H6  1  0.13970957  0.64697063  0.47337369  1  0  0.326424  0  0.89232  0  0  0.313858  0  0.951226  0  0  0.320159  0  0.946274  0  0  0.30481  0.309457  0  0.954668  0
H  H7  1  0.13970868  0.02662688  0.64697046  1  0  0.32646  0  0.892269  0  0  0.313932  0  0.951129  0  0  0.320232  0  0.946176  0  0  0.304827  0.309531  0  0.954572  0
H  H8  1  0.13970963  0.47337297  0.85302938  1  0  0.326449  0  0.892275  0  0  0.313885  0  0.951179  0  0  0.320186  0  0.946227  0  0  0.304821  0.309485  0  0.954621  0
H  H9  1  0.36029163  0.64696978  0.02662688  1  0  0.326453  0  0.892277  0  0  0.313886  0  0.951183  0  0  0.320186  0  0.946231  0  0  0.304821  0.309485  0  0.954625  0
H  H10  1  0.36029136  0.85302965  0.47337363  1  0  0.326459  0  0.892284  0  0  0.313925  0  0.951152  0  0  0.320225  0  0.946198  0  0  0.304822  0.309524  0  0.954594  0
H  H11  1  0.13970813  0.85302980  0.02662686  1  0  0.32645  0  0.892283  0  0  0.313884  0  0.951186  0  0  0.320184  0  0.946235  0  0  0.304827  0.309483  0  0.954628  0
H  H12  1  0.36029027  0.47337293  0.64697036  1  0  0.326421  0  0.892322  0  0  0.313856  0  0.951225  0  0  0.320156  0  0.946274  0  0  0.304801  0.309455  0  0.954667  0
H  H13  1  0.36028922  0.02662677  0.85302944  1  0  0.326508  0  0.892218  0  0  0.313983  0  0.951067  0  0  0.320283  0  0.946114  0  0  0.304856  0.309583  0  0.95451  0
H  H14  1  0.86029141  0.35303013  0.52662687  1  0  0.326485  0  0.892242  0  0  0.313958  0  0.951098  0  0  0.320259  0  0.946144  0  0  0.304836  0.309557  0  0.954541  0
H  H15  1  0.86029093  0.97337303  0.35302924  1  0  0.326423  0  0.892323  0  0  0.313859  0  0.951226  0  0  0.320158  0  0.946275  0  0  0.304808  0.309458  0  0.954669  0
H  H16  1  0.86029135  0.52662693  0.14697032  1  0  0.326483  0  0.892247  0  0  0.31395  0  0.951114  0  0  0.320251  0  0.94616  0  0  0.30483  0.30955  0  0.954557  0
H  H17  1  0.63970934  0.35302926  0.97337282  1  0  0.326426  0  0.892315  0  0  0.313862  0  0.951219  0  0  0.320162  0  0.946267  0  0  0.30481  0.309461  0  0.954661  0
H  H18  1  0.63970961  0.14697025  0.52662692  1  0  0.326432  0  0.892293  0  0  0.313866  0  0.951198  0  0  0.320167  0  0.946246  0  0  0.304813  0.309466  0  0.95464  0
H  H19  1  0.86029285  0.14697010  0.97337284  1  0  0.326473  0  0.892263  0  0  0.313937  0  0.951133  0  0  0.320237  0  0.94618  0  0  0.304832  0.309537  0  0.954577  0
H  H20  1  0.63970934  0.52662611  0.35302934  1  0  0.326441  0  0.892309  0  0  0.313878  0  0.951209  0  0  0.320179  0  0.946257  0  0  0.304825  0.309477  0  0.954652  0
H  H21  1  0.63970901  0.97337227  0.14697026  1  0  0.32647  0  0.892253  0  0  0.313942  0  0.951115  0  0  0.320242  0  0.946162  0  0  0.304828  0.309541  0  0.954559  0
H  H22  1  0.07708848  0.68446168  0.61409911  1  0  0.345229  0  0.924219  0  0  0.323615  0  0.993301  0  0  0.332561  0  0.984474  0  0  0.282989  0.317247  0  0.999562  0
H  H23  1  0.07708830  0.88590095  0.68446221  1  0  0.345236  0  0.924207  0  0  0.323627  0  0.993279  0  0  0.332571  0  0.984454  0  0  0.282994  0.317258  0  0.99954  0
H  H24  1  0.07708849  0.61409848  0.81553831  1  0  0.345219  0  0.924233  0  0  0.323602  0  0.993321  0  0  0.332548  0  0.984495  0  0  0.28299  0.317233  0  0.999582  0
H  H25  1  0.42291106  0.68446066  0.88590227  1  0  0.345255  0  0.92423  0  0  0.323629  0  0.993323  0  0  0.332574  0  0.984497  0  0  0.283005  0.317261  0  0.999584  0
H  H26  1  0.42291102  0.81553854  0.61409819  1  0  0.345251  0  0.924228  0  0  0.323629  0  0.993313  0  0  0.332575  0  0.984487  0  0  0.283004  0.317261  0  0.999573  0
H  H27  1  0.07708831  0.81553861  0.88590228  1  0  0.345249  0  0.924242  0  0  0.323629  0  0.993329  0  0  0.332574  0  0.984503  0  0  0.283011  0.317261  0  0.99959  0
H  H28  1  0.42291117  0.61409925  0.68446137  1  0  0.345229  0  0.924227  0  0  0.323608  0  0.99332  0  0  0.332555  0  0.984491  0  0  0.28299  0.317239  0  0.999581  0
H  H29  1  0.42291091  0.88590168  0.81553824  1  0  0.34525  0  0.92419  0  0  0.323639  0  0.993262  0  0  0.332583  0  0.984437  0  0  0.282997  0.31727  0  0.999524  0
H  H30  1  0.92291113  0.31553822  0.38590145  1  0  0.345223  0  0.924216  0  0  0.323606  0  0.993303  0  0  0.332552  0  0.984477  0  0  0.282983  0.317238  0  0.999563  0
H  H31  1  0.92291131  0.11409895  0.31553835  1  0  0.345239  0  0.924209  0  0  0.323624  0  0.99329  0  0  0.332569  0  0.984463  0  0  0.282991  0.317255  0  0.999551  0
H  H32  1  0.92291111  0.38590228  0.18446138  1  0  0.345249  0  0.924241  0  0  0.323628  0  0.993326  0  0  0.332574  0  0.984499  0  0  0.283001  0.317261  0  0.999586  0
H  H33  1  0.57708854  0.31553838  0.11409829  1  0  0.345232  0  0.924216  0  0  0.323623  0  0.993289  0  0  0.332569  0  0.984462  0  0  0.282996  0.317255  0  0.999549  0
H  H34  1  0.57708859  0.18446136  0.38590150  1  0  0.345218  0  0.924236  0  0  0.323606  0  0.993319  0  0  0.332552  0  0.984492  0  0  0.282993  0.317238  0  0.99958  0
H  H35  1  0.92291130  0.18446129  0.11409742  1  0  0.345248  0  0.924248  0  0  0.323627  0  0.993329  0  0  0.332573  0  0.984501  0  0  0.283013  0.31726  0  0.999589  0
H  H36  1  0.57708844  0.38590151  0.31553833  1  0  0.345228  0  0.924212  0  0  0.323616  0  0.993292  0  0  0.332562  0  0.984466  0  0  0.282996  0.317247  0  0.999553  0
H  H37  1  0.57708869  0.11409822  0.18446146  1  0  0.345244  0  0.924208  0  0  0.323641  0  0.993272  0  0  0.332585  0  0.984447  0  0  0.283005  0.317272  0  0.999533  0
C  C38  1  0.88251047  0.71008858  0.49453298  1  0  0.614423  0  3.86123  0  0  0.561521  0  4.145021  0  0  0.588184  0  4.151477  0  0  0.320183  0.543675  0  4.140144  0
C  C39  1  0.88250964  0.00546725  0.71008856  1  0  0.614408  0  3.861317  0  0  0.561539  0  4.145098  0  0  0.588202  0  4.151552  0  0  0.320183  0.543693  0  4.14022  0
C  C40  1  0.88251058  0.49453297  0.78991200  1  0  0.614638  0  3.861122  0  0  0.561734  0  4.144927  0  0  0.588399  0  4.151377  0  0  0.320232  0.543878  0  4.140061  0
C  C41  1  0.61748991  0.71008789  0.00546662  1  0  0.614536  0  3.861151  0  0  0.561679  0  4.144899  0  0  0.588347  0  4.151344  0  0  0.320218  0.543825  0  4.140033  0
C  C42  1  0.61748974  0.78991222  0.49453213  1  0  0.614512  0  3.861197  0  0  0.561647  0  4.144924  0  0  0.588309  0  4.151378  0  0  0.320229  0.543801  0  4.140049  0
C  C43  1  0.88251051  0.78991222  0.00546572  1  0  0.614505  0  3.861158  0  0  0.561611  0  4.144964  0  0  0.588282  0  4.151404  0  0  0.320178  0.543757  0  4.140096  0
C  C44  1  0.61748994  0.49453221  0.71008764  1  0  0.614508  0  3.861171  0  0  0.561669  0  4.144889  0  0  0.588333  0  4.151341  0  0  0.320226  0.543818  0  4.140013  0
C  C45  1  0.61748896  0.00546732  0.78991211  1  0  0.61449  0  3.861112  0  0  0.561622  0  4.14489  0  0  0.588284  0  4.151344  0  0  0.320189  0.543772  0  4.140021  0
C  C46  1  0.11749051  0.28991218  0.50546758  1  0  0.614441  0  3.861199  0  0  0.561626  0  4.144895  0  0  0.588289  0  4.151348  0  0  0.320217  0.543775  0  4.14002  0
C  C47  1  0.11748997  0.99453265  0.28991199  1  0  0.614552  0  3.861124  0  0  0.561642  0  4.14492  0  0  0.588304  0  4.151375  0  0  0.320212  0.543794  0  4.140044  0
C  C48  1  0.11749039  0.50546779  0.21008856  1  0  0.61463  0  3.861113  0  0  0.561716  0  4.144959  0  0  0.588378  0  4.151415  0  0  0.320246  0.543866  0  4.140084  0
C  C49  1  0.38251106  0.28991201  0.99453308  1  0  0.614413  0  3.861208  0  0  0.561548  0  4.144988  0  0  0.588211  0  4.151443  0  0  0.320183  0.543697  0  4.140112  0
C  C50  1  0.38251123  0.21008854  0.50546757  1  0  0.614434  0  3.861197  0  0  0.561556  0  4.144976  0  0  0.588218  0  4.151432  0  0  0.320182  0.543706  0  4.140099  0
C  C51  1  0.11749047  0.21008854  0.99453312  1  0  0.614488  0  3.861202  0  0  0.561627  0  4.144972  0  0  0.588295  0  4.151417  0  0  0.320203  0.54377  0  4.140106  0
C  C52  1  0.38251104  0.50546683  0.28991206  1  0  0.614491  0  3.86115  0  0  0.561615  0  4.144946  0  0  0.588277  0  4.151402  0  0  0.320202  0.543765  0  4.14007  0
C  C53  1  0.38250928  0.99453172  0.21008845  1  0  0.61453  0  3.861208  0  0  0.561652  0  4.144964  0  0  0.588313  0  4.15142  0  0  0.320227  0.543803  0  4.140089  0
N  N54  1  0.75000009  0.75000039  0.56631265  1  0  -0.61087  0  3.056471  0  0  -0.531555  0  3.327766  0  0  -0.557888  0  3.333173  0  0  -0.36389  -0.513846  0  3.323782  0
N  N55  1  0.74999989  0.93368799  0.74999931  1  0  -0.61082  0  3.056429  0  0  -0.531602  0  3.32784  0  0  -0.557936  0  3.333246  0  0  -0.3639  -0.513889  0  3.323854  0
N  N56  1  0.75000020  0.56631186  0.75000024  1  0  -0.610931  0  3.056415  0  0  -0.531678  0  3.327772  0  0  -0.558013  0  3.333177  0  0  -0.363887  -0.51395  0  3.323776  0
N  N57  1  0.75000001  0.75000032  0.93368776  1  0  -0.610874  0  3.056347  0  0  -0.531641  0  3.327736  0  0  -0.557979  0  3.333137  0  0  -0.363865  -0.513917  0  3.323746  0
N  N58  1  0.24999952  0.24999951  0.43368791  1  0  -0.610835  0  3.05643  0  0  -0.531587  0  3.327747  0  0  -0.557918  0  3.333152  0  0  -0.363865  -0.513864  0  3.32375  0
N  N59  1  0.25000108  0.06631105  0.24999953  1  0  -0.611023  0  3.056581  0  0  -0.531728  0  3.327938  0  0  -0.558056  0  3.333338  0  0  -0.363943  -0.514013  0  3.323951  0
N  N60  1  0.24999941  0.43368890  0.24999946  1  0  -0.610898  0  3.056433  0  0  -0.531687  0  3.32789  0  0  -0.558016  0  3.333292  0  0  -0.363927  -0.513967  0  3.323899  0
N  N61  1  0.24999960  0.24999958  0.06631194  1  0  -0.610794  0  3.056377  0  0  -0.531575  0  3.327761  0  0  -0.557908  0  3.333164  0  0  -0.363853  -0.513847  0  3.323765  0
N  N62  1  0.83661895  0.72313025  0.38354681  1  0  -0.455376  0  3.185247  0  0  -0.385125  0  3.495882  0  0  -0.404459  0  3.502378  0  0  -0.322335  -0.372194  0  3.491434  0
N  N63  1  0.83661801  0.11645262  0.72313018  1  0  -0.45545  0  3.185323  0  0  -0.385189  0  3.495941  0  0  -0.404522  0  3.502435  0  0  -0.322376  -0.372259  0  3.491496  0
N  N64  1  0.83661914  0.38354763  0.77687039  1  0  -0.455545  0  3.185337  0  0  -0.385274  0  3.495979  0  0  -0.404608  0  3.50247  0  0  -0.322405  -0.372344  0  3.491543  0
N  N65  1  0.66338141  0.72313036  0.11645192  1  0  -0.455445  0  3.185343  0  0  -0.385184  0  3.49596  0  0  -0.40452  0  3.502452  0  0  -0.322364  -0.372254  0  3.491518  0
N  N66  1  0.66338131  0.77687059  0.38354768  1  0  -0.45545  0  3.18535  0  0  -0.385202  0  3.495963  0  0  -0.404535  0  3.502457  0  0  -0.322375  -0.372274  0  3.49152  0
N  N67  1  0.83661896  0.77687058  0.11645190  1  0  -0.455434  0  3.185277  0  0  -0.385166  0  3.495907  0  0  -0.404503  0  3.502399  0  0  -0.32235  -0.372234  0  3.491463  0
N  N68  1  0.66338019  0.38354770  0.72313015  1  0  -0.455391  0  3.185327  0  0  -0.385144  0  3.495937  0  0  -0.404479  0  3.502431  0  0  -0.322337  -0.372216  0  3.491496  0
N  N69  1  0.66338040  0.11645266  0.77686959  1  0  -0.455363  0  3.185246  0  0  -0.385102  0  3.495854  0  0  -0.404436  0  3.50235  0  0  -0.32231  -0.372172  0  3.491412  0
N  N70  1  0.16338066  0.27687051  0.61645289  1  0  -0.455396  0  3.185287  0  0  -0.385157  0  3.495896  0  0  -0.40449  0  3.50239  0  0  -0.322361  -0.37223  0  3.491456  0
N  N71  1  0.16338160  0.88354728  0.27686952  1  0  -0.455409  0  3.185222  0  0  -0.385146  0  3.495855  0  0  -0.40448  0  3.502351  0  0  -0.322353  -0.372216  0  3.491409  0
N  N72  1  0.16338183  0.61645227  0.22313017  1  0  -0.455481  0  3.185347  0  0  -0.385195  0  3.495971  0  0  -0.404529  0  3.502466  0  0  -0.322371  -0.372267  0  3.491529  0
N  N73  1  0.33661819  0.27687040  0.88354692  1  0  -0.455386  0  3.185258  0  0  -0.385128  0  3.495879  0  0  -0.404463  0  3.502377  0  0  -0.322345  -0.372199  0  3.491437  0
N  N74  1  0.33661830  0.22313017  0.61645288  1  0  -0.455387  0  3.185265  0  0  -0.38513  0  3.495891  0  0  -0.404465  0  3.502389  0  0  -0.322347  -0.372201  0  3.491449  0
N  N75  1  0.16338064  0.22313018  0.88354780  1  0  -0.455442  0  3.18532  0  0  -0.385182  0  3.495943  0  0  -0.404517  0  3.502435  0  0  -0.322371  -0.372252  0  3.491504  0
N  N76  1  0.33661942  0.61645306  0.27687041  1  0  -0.455383  0  3.185221  0  0  -0.385112  0  3.495832  0  0  -0.404446  0  3.502329  0  0  -0.322326  -0.372183  0  3.491389  0
N  N77  1  0.33661921  0.88354724  0.22313011  1  0  -0.455371  0  3.185258  0  0  -0.385115  0  3.49587  0  0  -0.404449  0  3.502366  0  0  -0.322328  -0.372186  0  3.491427  0
N  N78  1  0.03974026  0.66109294  0.53218216  1  0  -0.705597  0  3.043451  0  0  -0.673082  0  3.276782  0  0  -0.691778  0  3.269337  0  0  -0.592468  -0.660032  0  3.281604  0
N  N79  1  0.03974134  0.96781796  0.66109258  1  0  -0.705637  0  3.043407  0  0  -0.673162  0  3.276686  0  0  -0.691856  0  3.269239  0  0  -0.592486  -0.660111  0  3.281509  0
N  N80  1  0.03974030  0.53218236  0.83890710  1  0  -0.705673  0  3.04341  0  0  -0.673152  0  3.276748  0  0  -0.691846  0  3.269301  0  0  -0.592484  -0.6601  0  3.281574  0
N  N81  1  0.46025933  0.66109272  0.96781664  1  0  -0.705691  0  3.043423  0  0  -0.673169  0  3.276749  0  0  -0.691866  0  3.2693  0  0  -0.592501  -0.660118  0  3.281576  0
N  N82  1  0.46025791  0.83890732  0.53218295  1  0  -0.705684  0  3.043382  0  0  -0.673206  0  3.276657  0  0  -0.691901  0  3.26921  0  0  -0.592506  -0.660157  0  3.28148  0
N  N83  1  0.03974001  0.83890652  0.96781665  1  0  -0.705661  0  3.043419  0  0  -0.673127  0  3.276751  0  0  -0.691824  0  3.2693  0  0  -0.592501  -0.660076  0  3.281576  0
N  N84  1  0.46025950  0.53218225  0.66109262  1  0  -0.705623  0  3.04343  0  0  -0.673119  0  3.27674  0  0  -0.691814  0  3.269294  0  0  -0.592475  -0.660068  0  3.281563  0
N  N85  1  0.46025910  0.96781779  0.83890698  1  0  -0.705739  0  3.043376  0  0  -0.673268  0  3.276663  0  0  -0.69196  0  3.269215  0  0  -0.592516  -0.660216  0  3.28149  0
N  N86  1  0.96025935  0.33890696  0.46781753  1  0  -0.705675  0  3.043356  0  0  -0.673225  0  3.276622  0  0  -0.69192  0  3.269174  0  0  -0.592511  -0.660176  0  3.281448  0
N  N87  1  0.96025963  0.03218194  0.33890712  1  0  -0.705628  0  3.043435  0  0  -0.673108  0  3.276771  0  0  -0.691803  0  3.269326  0  0  -0.592462  -0.660057  0  3.281594  0
N  N88  1  0.96025794  0.46781668  0.16109346  1  0  -0.705746  0  3.04332  0  0  -0.673241  0  3.276622  0  0  -0.691936  0  3.269174  0  0  -0.592507  -0.660192  0  3.281447  0
N  N89  1  0.53974028  0.33890718  0.03218220  1  0  -0.705615  0  3.043482  0  0  -0.673098  0  3.276794  0  0  -0.691793  0  3.269349  0  0  -0.592475  -0.660048  0  3.281619  0
N  N90  1  0.53974033  0.16109258  0.46781760  1  0  -0.705624  0  3.043445  0  0  -0.673108  0  3.276759  0  0  -0.691803  0  3.269314  0  0  -0.592488  -0.660059  0  3.281582  0
N  N91  1  0.96025823  0.16109252  0.03218391  1  0  -0.705698  0  3.043421  0  0  -0.67321  0  3.276707  0  0  -0.691906  0  3.269256  0  0  -0.592515  -0.660159  0  3.281534  0
N  N92  1  0.53974011  0.46781851  0.33890708  1  0  -0.705655  0  3.043463  0  0  -0.673132  0  3.276785  0  0  -0.691827  0  3.269339  0  0  -0.592496  -0.660082  0  3.281609  0
N  N93  1  0.53974051  0.03218211  0.16109272  1  0  -0.705688  0  3.043328  0  0  -0.673222  0  3.276603  0  0  -0.691916  0  3.269157  0  0  -0.592509  -0.660171  0  3.281429  0
F  F94  1  0.04937235  0.75000058  0.75000027  1  0  -0.651128  0  0.827571  0  0  -0.576952  0  0.992049  0  0  -0.598653  0  0.972776  0  0  -0.311858  -0.561209  0  1.005152  0
F  F95  1  0.45062845  0.74999959  0.75000023  1  0  -0.651135  0  0.82756  0  0  -0.576937  0  0.992014  0  0  -0.598638  0  0.972743  0  0  -0.311855  -0.561193  0  1.005117  0
F  F96  1  0.95062862  0.25000018  0.24999943  1  0  -0.651133  0  0.827579  0  0  -0.576938  0  0.992039  0  0  -0.598641  0  0.972763  0  0  -0.311856  -0.561197  0  1.005142  0
F  F97  1  0.54937252  0.24999945  0.24999947  1  0  -0.651086  0  0.827536  0  0  -0.576938  0  0.992032  0  0  -0.598637  0  0.972756  0  0  -0.311857  -0.561195  0  1.005135  0
