# generated using pymatgen
data_CdH18C23(N5O2)2
_symmetry_space_group_name_H-M   'P 1'
_cell_length_a   8.58289325
_cell_length_b   10.48125673
_cell_length_c   13.79540644
_cell_angle_alpha   80.95303578
_cell_angle_beta   78.14384958
_cell_angle_gamma   80.15125950
_symmetry_Int_Tables_number   1
_chemical_formula_structural   CdH18C23(N5O2)2
_chemical_formula_sum   'Cd2 H36 C46 N20 O8'
_cell_volume   1187.02044175
_cell_formula_units_Z   2
loop_
 _symmetry_equiv_pos_site_id
 _symmetry_equiv_pos_as_xyz
  1  'x, y, z'
loop_
 _atom_site_type_symbol
 _atom_site_label
 _atom_site_symmetry_multiplicity
 _atom_site_fract_x
 _atom_site_fract_y
 _atom_site_fract_z
 _atom_site_occupancy
 _atom_site_hle17_bader_spin_density
 _atom_site_hle17_ddec_charge
 _atom_site_hle17_ddec_spin_density
 _atom_site_hle17_ddec_sum_bond_order
 _atom_site_hle17_magmom
 _atom_site_hse06_10hf_bader_spin_density
 _atom_site_hse06_10hf_ddec_charge
 _atom_site_hse06_10hf_ddec_spin_density
 _atom_site_hse06_10hf_ddec_sum_bond_order
 _atom_site_hse06_10hf_magmom
 _atom_site_hse06_bader_spin_density
 _atom_site_hse06_ddec_charge
 _atom_site_hse06_ddec_spin_density
 _atom_site_hse06_ddec_sum_bond_order
 _atom_site_hse06_magmom
 _atom_site_pbe_bader_spin_density
 _atom_site_pbe_cm5_charge
 _atom_site_pbe_ddec_charge
 _atom_site_pbe_ddec_spin_density
 _atom_site_pbe_ddec_sum_bond_order
 _atom_site_pbe_magmom
Cd  Cd0  1  0.64705554  0.61441525  0.53345457  1  0  1.125666  0  1.729079  0  0  0.932708  0  2.19041  0  0  0.991192  0  2.135875  0  0  0.778479  0.887692  0  2.230279  0
Cd  Cd1  1  0.35294431  0.38558517  0.46654603  1  0  1.125657  0  1.729097  0  0  0.93269  0  2.190428  0  0  0.991177  0  2.135892  0  0  0.778486  0.887675  0  2.2303  0
H  H2  1  0.97547663  0.25014247  0.64505951  1  0  0.089504  0  0.997857  0  0  0.09647  0  1.066219  0  0  0.098887  0  1.06612  0  0  0.097399  0.094769  0  1.066269  0
H  H3  1  0.02452322  0.74985795  0.35494036  1  0  0.089501  0  0.997871  0  0  0.096466  0  1.066232  0  0  0.098884  0  1.066132  0  0  0.097393  0.094765  0  1.066283  0
H  H4  1  0.12839384  0.02673905  0.67538793  1  0  0.089852  0  0.962168  0  0  0.096182  0  1.030915  0  0  0.099738  0  1.028854  0  0  0.096771  0.093689  0  1.032434  0
H  H5  1  0.87160720  0.97326137  0.32461179  1  0  0.089863  0  0.962164  0  0  0.096188  0  1.030915  0  0  0.099744  0  1.028855  0  0  0.096771  0.093695  0  1.032433  0
H  H6  1  0.01755954  0.83410202  0.64082251  1  0  0.090407  0  0.956344  0  0  0.098211  0  1.023733  0  0  0.101471  0  1.021918  0  0  0.098051  0.095871  0  1.025013  0
H  H7  1  0.98244032  0.16589840  0.35917663  1  0  0.090375  0  0.956338  0  0  0.098177  0  1.02373  0  0  0.101437  0  1.021916  0  0  0.09803  0.095838  0  1.025011  0
H  H8  1  0.61384584  0.09050793  0.54705338  1  0  0.123829  0  0.951874  0  0  0.130019  0  1.020701  0  0  0.134595  0  1.016161  0  0  0.107336  0.126699  0  1.024105  0
H  H9  1  0.38615402  0.90949249  0.45294577  1  0  0.123812  0  0.951909  0  0  0.130004  0  1.020731  0  0  0.13458  0  1.01619  0  0  0.107333  0.126685  0  1.024133  0
H  H10  1  0.67094192  0.77836837  0.32046035  1  0  0.103392  0  0.918071  0  0  0.111029  0  0.981275  0  0  0.114132  0  0.978276  0  0  0.126298  0.108555  0  0.983723  0
H  H11  1  0.32905793  0.22163205  0.67953952  1  0  0.103379  0  0.918081  0  0  0.111013  0  0.981294  0  0  0.114117  0  0.978295  0  0  0.126292  0.108539  0  0.983743  0
H  H12  1  0.07126327  0.60710582  0.11208100  1  0  0.099439  0  0.946045  0  0  0.108069  0  1.011124  0  0  0.111503  0  1.007427  0  0  0.107505  0.105566  0  1.013759  0
H  H13  1  0.92873778  0.39289459  0.88791944  1  0  0.099428  0  0.946068  0  0  0.108051  0  1.011148  0  0  0.111486  0  1.007449  0  0  0.107496  0.10555  0  1.013784  0
H  H14  1  0.11721870  0.42350464  0.25000546  1  0  0.113627  0  0.962247  0  0  0.121316  0  1.024144  0  0  0.125076  0  1.022309  0  0  0.108711  0.118481  0  1.025824  0
H  H15  1  0.88278132  0.57649480  0.74999450  1  0  0.113632  0  0.96226  0  0  0.121324  0  1.024145  0  0  0.125086  0  1.022306  0  0  0.108721  0.118489  0  1.025825  0
H  H16  1  0.93897402  0.42959053  0.41504429  1  0  0.097504  0  0.945813  0  0  0.104765  0  1.009099  0  0  0.107525  0  1.006496  0  0  0.120852  0.102524  0  1.011365  0
H  H17  1  0.06102600  0.57040892  0.58495567  1  0  0.097502  0  0.945815  0  0  0.104764  0  1.009101  0  0  0.107524  0  1.006499  0  0  0.120851  0.102524  0  1.011368  0
H  H18  1  0.93669077  0.94332995  0.85061263  1  0  0.083282  0  0.945636  0  0  0.097  0  1.01223  0  0  0.097301  0  1.012655  0  0  0.11363  0.096688  0  1.012036  0
H  H19  1  0.06330942  0.05666852  0.14938743  1  0  0.083266  0  0.945596  0  0  0.097006  0  1.012194  0  0  0.097308  0  1.012621  0  0  0.113631  0.096688  0  1.012001  0
H  H20  1  0.81664215  0.09202788  0.88329194  1  0  0.10571  0  0.901246  0  0  0.12126  0  0.958291  0  0  0.122124  0  0.958106  0  0  0.125574  0.120564  0  0.958525  0
H  H21  1  0.18335907  0.90797156  0.11670714  1  0  0.105671  0  0.901272  0  0  0.121251  0  0.958311  0  0  0.122117  0  0.958129  0  0  0.125585  0.120551  0  0.958542  0
H  H22  1  0.68495916  0.99904018  0.77941627  1  0  0.100489  0  0.944158  0  0  0.12046  0  0.997748  0  0  0.119842  0  1.001222  0  0  0.106176  0.120737  0  0.995456  0
H  H23  1  0.31503967  0.00095926  0.22058384  1  0  0.100532  0  0.944154  0  0  0.120517  0  0.997713  0  0  0.119903  0  1.00119  0  0  0.106184  0.120793  0  0.995428  0
H  H24  1  0.56664057  0.99574207  0.89991250  1  0  0.092738  0  0.969317  0  0  0.095247  0  1.052286  0  0  0.097038  0  1.05121  0  0  0.101006  0.093942  0  1.053045  0
H  H25  1  0.43335826  0.00425737  0.10008834  1  0  0.092768  0  0.969312  0  0  0.095268  0  1.052283  0  0  0.097063  0  1.051201  0  0  0.101009  0.093962  0  1.05305  0
H  H26  1  0.58936408  0.79677504  0.80792327  1  0  0.0965  0  0.910165  0  0  0.113116  0  0.968143  0  0  0.11261  0  0.970131  0  0  0.119233  0.113404  0  0.96682  0
H  H27  1  0.41063594  0.20322440  0.19207669  1  0  0.096542  0  0.910187  0  0  0.113094  0  0.968205  0  0  0.112588  0  0.970197  0  0  0.119218  0.113383  0  0.966882  0
H  H28  1  0.79268066  0.75533625  0.82346298  1  0  0.09753  0  0.914748  0  0  0.113197  0  0.976548  0  0  0.114304  0  0.975382  0  0  0.12192  0.112287  0  0.977528  0
H  H29  1  0.20731937  0.24466319  0.17653770  1  0  0.097566  0  0.914723  0  0  0.113198  0  0.976539  0  0  0.114321  0  0.975353  0  0  0.121922  0.112288  0  0.977519  0
H  H30  1  0.43815067  0.56125273  0.26322130  1  0  0.094837  0  0.950966  0  0  0.099235  0  1.020091  0  0  0.102381  0  1.016853  0  0  0.121106  0.096896  0  1.022413  0
H  H31  1  0.56185055  0.43874670  0.73677996  1  0  0.094842  0  0.950961  0  0  0.099238  0  1.020081  0  0  0.102384  0  1.016842  0  0  0.1211  0.096865  0  1.022439  0
H  H32  1  0.80458802  0.35828189  0.05366673  1  0  0.104631  0  0.93786  0  0  0.114363  0  1.001067  0  0  0.117746  0  0.997414  0  0  0.110382  0.111889  0  1.003694  0
H  H33  1  0.19541183  0.64171852  0.94633386  1  0  0.104591  0  0.93792  0  0  0.114351  0  1.001086  0  0  0.117736  0  0.997433  0  0  0.110367  0.111879  0  1.003713  0
H  H34  1  0.82030712  0.16906024  0.18835530  1  0  0.101805  0  0.977975  0  0  0.107787  0  1.046014  0  0  0.111044  0  1.04452  0  0  0.105443  0.105332  0  1.047381  0
H  H35  1  0.17969154  0.83094018  0.81164400  1  0  0.101836  0  0.977942  0  0  0.107828  0  1.045967  0  0  0.111083  0  1.04448  0  0  0.105478  0.105372  0  1.047335  0
H  H36  1  0.64603183  0.18795448  0.35704418  1  0  0.097354  0  0.921022  0  0  0.107501  0  0.979732  0  0  0.109656  0  0.978249  0  0  0.126359  0.105753  0  0.980984  0
H  H37  1  0.35396819  0.81204496  0.64295578  1  0  0.097355  0  0.921022  0  0  0.1075  0  0.979737  0  0  0.109656  0  0.978253  0  0  0.12636  0.105753  0  0.980989  0
C  C38  1  0.70245382  0.32105887  0.57587930  1  0  0.654907  0  3.921523  0  0  0.604155  0  4.21099  0  0  0.639986  0  4.202363  0  0  0.205181  0.579526  0  4.216117  0
C  C39  1  0.29754739  0.67894056  0.42412124  1  0  0.654924  0  3.921482  0  0  0.604173  0  4.210959  0  0  0.640004  0  4.202331  0  0  0.205185  0.579544  0  4.21609  0
C  C40  1  0.78630194  0.18408361  0.59578723  1  0  -0.073346  0  3.757066  0  0  -0.044622  0  3.987658  0  0  -0.054457  0  4.010348  0  0  -0.021509  -0.038424  0  3.972883  0
C  C41  1  0.21369809  0.81591584  0.40421200  1  0  -0.073359  0  3.757004  0  0  -0.044675  0  3.987659  0  0  -0.05451  0  4.01035  0  0  -0.021519  -0.038479  0  3.972889  0
C  C42  1  0.93070726  0.16467906  0.63204874  1  0  -0.055607  0  3.720314  0  0  -0.083765  0  3.96764  0  0  -0.081021  0  3.986889  0  0  -0.086334  -0.084608  0  3.953864  0
C  C43  1  0.06929174  0.83531941  0.36795146  1  0  -0.055545  0  3.720212  0  0  -0.083686  0  3.967526  0  0  -0.080942  0  3.986777  0  0  -0.08629  -0.084529  0  3.953754  0
C  C44  1  0.01483482  0.03974385  0.64881028  1  0  -0.086525  0  3.784191  0  0  -0.096077  0  4.04008  0  0  -0.100951  0  4.061436  0  0  -0.095648  -0.092896  0  4.024941  0
C  C45  1  0.98516639  0.96025559  0.35118953  1  0  -0.086561  0  3.784185  0  0  -0.096109  0  4.040078  0  0  -0.100984  0  4.061436  0  0  -0.095654  -0.092927  0  4.024939  0
C  C46  1  0.95414001  0.93307210  0.62948710  1  0  -0.067029  0  3.733417  0  0  -0.092878  0  3.981313  0  0  -0.090824  0  4.00083  0  0  -0.08486  -0.093296  0  3.967397  0
C  C47  1  0.04586103  0.06692832  0.37051189  1  0  -0.067006  0  3.733395  0  0  -0.092853  0  3.981294  0  0  -0.090802  0  4.000815  0  0  -0.084838  -0.093272  0  3.96738  0
C  C48  1  0.81002595  0.95113645  0.59286166  1  0  -0.066548  0  3.764216  0  0  -0.036464  0  3.989484  0  0  -0.045599  0  4.012667  0  0  -0.020279  -0.030741  0  3.974274  0
C  C49  1  0.18997373  0.04886495  0.40713739  1  0  -0.066506  0  3.764173  0  0  -0.036432  0  3.989446  0  0  -0.045564  0  4.012631  0  0  -0.020282  -0.030708  0  3.974238  0
C  C50  1  0.74973393  0.83444233  0.57123951  1  0  0.616399  0  3.960188  0  0  0.569738  0  4.247543  0  0  0.603452  0  4.243377  0  0  0.182216  0.546817  0  4.249135  0
C  C51  1  0.25026575  0.16555907  0.42876027  1  0  0.616382  0  3.960179  0  0  0.569731  0  4.247528  0  0  0.603443  0  4.243362  0  0  0.182214  0.546808  0  4.24912  0
C  C52  1  0.72559136  0.07694241  0.57597601  1  0  -0.078656  0  3.672071  0  0  -0.113631  0  3.914852  0  0  -0.110527  0  3.931971  0  0  -0.077796  -0.115748  0  3.904283  0
C  C53  1  0.27440969  0.92305800  0.42402371  1  0  -0.078648  0  3.672023  0  0  -0.113606  0  3.914815  0  0  -0.110502  0  3.931933  0  0  -0.077787  -0.115723  0  3.904249  0
C  C54  1  0.77110956  0.70198065  0.30094998  1  0  0.112963  0  3.645871  0  0  0.07173  0  3.897814  0  0  0.078765  0  3.915504  0  0  0.060312  0.067102  0  3.885948  0
C  C55  1  0.22889149  0.29801977  0.69904974  1  0  0.112996  0  3.645881  0  0  0.071751  0  3.897825  0  0  0.078787  0  3.915513  0  0  0.06033  0.067123  0  3.885959  0
C  C56  1  0.86808161  0.70820960  0.20586227  1  0  -0.049976  0  3.79798  0  0  -0.02814  0  4.032004  0  0  -0.035348  0  4.057404  0  0  -0.003747  -0.023883  0  4.015409  0
C  C57  1  0.13191927  0.29179179  0.79413735  1  0  -0.049991  0  3.798031  0  0  -0.028154  0  4.03205  0  0  -0.035363  0  4.057452  0  0  -0.003773  -0.023897  0  4.015455  0
C  C58  1  0.99330767  0.60542918  0.18522475  1  0  -0.034669  0  3.690149  0  0  -0.063048  0  3.936236  0  0  -0.059392  0  3.953743  0  0  -0.060625  -0.065013  0  3.924201  0
C  C59  1  0.00669321  0.39457221  0.81477487  1  0  -0.034627  0  3.690209  0  0  -0.062991  0  3.936282  0  0  -0.059333  0  3.953789  0  0  -0.060585  -0.064963  0  3.924251  0
C  C60  1  0.01874782  0.50339733  0.26018260  1  0  -0.09831  0  3.713766  0  0  -0.110164  0  3.967258  0  0  -0.117276  0  3.9874  0  0  -0.077575  -0.1058  0  3.954214  0
C  C61  1  0.98125322  0.49660308  0.73981784  1  0  -0.098343  0  3.713863  0  0  -0.110197  0  3.967356  0  0  -0.117309  0  3.987498  0  0  -0.077619  -0.105833  0  3.954312  0
C  C62  1  0.91913905  0.50586427  0.35360366  1  0  0.155571  0  3.646825  0  0  0.11897  0  3.901668  0  0  0.127917  0  3.917538  0  0  0.058985  0.112964  0  3.891345  0
C  C63  1  0.08086081  0.49413615  0.64639621  1  0  0.155563  0  3.646833  0  0  0.118955  0  3.901673  0  0  0.127901  0  3.917543  0  0  0.058982  0.112948  0  3.891349  0
C  C64  1  0.83865232  0.82097642  0.13194759  1  0  0.259906  0  3.810313  0  0  0.239752  0  4.088413  0  0  0.248063  0  4.106357  0  0  0.22098  0.234215  0  4.076442  0
C  C65  1  0.16134855  0.17902499  0.86804914  1  0  0.259855  0  3.810244  0  0  0.239704  0  4.08835  0  0  0.248015  0  4.106296  0  0  0.220977  0.234168  0  4.076376  0
C  C66  1  0.82199668  0.98568675  0.89270141  1  0  -0.043546  0  3.602905  0  0  -0.10641  0  3.866217  0  0  -0.103259  0  3.877203  0  0  -0.043496  -0.108448  0  3.858832  0
C  C67  1  0.17800352  0.01431172  0.10729792  1  0  -0.04343  0  3.602804  0  0  -0.106405  0  3.866254  0  0  -0.103253  0  3.877238  0  0  -0.043496  -0.10842  0  3.858843  0
C  C68  1  0.67900927  0.95146018  0.85666414  1  0  -0.151456  0  3.656473  0  0  -0.191298  0  3.910587  0  0  -0.193652  0  3.923737  0  0  -0.157641  -0.189439  0  3.901564  0
C  C69  1  0.32099075  0.04853926  0.14333582  1  0  -0.151591  0  3.65655  0  0  -0.191417  0  3.910623  0  0  -0.193782  0  3.923798  0  0  -0.157662  -0.189555  0  3.901572  0
C  C70  1  0.67512109  0.80680064  0.85452498  1  0  -0.021463  0  3.57759  0  0  -0.095437  0  3.833472  0  0  -0.09156  0  3.843015  0  0  -0.040172  -0.097965  0  3.827012  0
C  C71  1  0.32487893  0.19319881  0.14547425  1  0  -0.021531  0  3.577755  0  0  -0.0954  0  3.833524  0  0  -0.091534  0  3.843069  0  0  -0.040157  -0.09793  0  3.82707  0
C  C72  1  0.60063942  0.59421791  0.07692231  1  0  0.254913  0  3.807241  0  0  0.231525  0  4.092385  0  0  0.239189  0  4.110821  0  0  0.215393  0.226474  0  4.07999  0
C  C73  1  0.39935924  0.40578251  0.92307844  1  0  0.254922  0  3.807256  0  0  0.231533  0  4.092388  0  0  0.239196  0  4.110824  0  0  0.215419  0.226482  0  4.079991  0
C  C74  1  0.52574494  0.47655845  0.24398679  1  0  0.111429  0  3.651539  0  0  0.071964  0  3.898866  0  0  0.078916  0  3.916547  0  0  0.057741  0.067584  0  3.886831  0
C  C75  1  0.47425610  0.52344197  0.75601293  1  0  0.111466  0  3.651613  0  0  0.07199  0  3.898925  0  0  0.078941  0  3.916606  0  0  0.057762  0.067636  0  3.886901  0
C  C76  1  0.61955585  0.47603532  0.14783095  1  0  -0.035866  0  3.77777  0  0  -0.013691  0  4.010767  0  0  -0.019505  0  4.034527  0  0  0.001424  -0.010173  0  3.994817  0
C  C77  1  0.38044401  0.52396510  0.85216965  1  0  -0.035876  0  3.777824  0  0  -0.013662  0  4.010777  0  0  -0.019476  0  4.034537  0  0  0.001451  -0.010142  0  3.994817  0
C  C78  1  0.72877122  0.36371086  0.12707225  1  0  -0.026503  0  3.670082  0  0  -0.058792  0  3.919937  0  0  -0.054964  0  3.937262  0  0  -0.061445  -0.060945  0  3.908034  0
C  C79  1  0.27122846  0.63629054  0.87292825  1  0  -0.02649  0  3.670112  0  0  -0.058807  0  3.919958  0  0  -0.054982  0  3.937286  0  0  -0.061451  -0.06096  0  3.908057  0
C  C80  1  0.73957850  0.25876655  0.20231459  1  0  -0.116283  0  3.744487  0  0  -0.129614  0  4.003874  0  0  -0.136925  0  4.025346  0  0  -0.08185  -0.125052  0  3.98973  0
C  C81  1  0.26042136  0.74123387  0.79768528  1  0  -0.116307  0  3.744448  0  0  -0.129657  0  4.003872  0  0  -0.136969  0  4.025342  0  0  -0.081894  -0.125096  0  3.989731  0
C  C82  1  0.64290672  0.26793338  0.29603934  1  0  0.128297  0  3.678336  0  0  0.095199  0  3.929871  0  0  0.102298  0  3.948462  0  0  0.053451  0.090564  0  3.917401  0
C  C83  1  0.35709450  0.73206607  0.70396047  1  0  0.128341  0  3.678315  0  0  0.095243  0  3.929857  0  0  0.102342  0  3.948448  0  0  0.053487  0.090607  0  3.917388  0
N  N84  1  0.53789562  0.37573479  0.31588552  1  0  -0.31802  0  3.273347  0  0  -0.240972  0  3.540784  0  0  -0.260932  0  3.559992  0  0  -0.322728  -0.227377  0  3.527586  0
N  N85  1  0.46210559  0.62426465  0.68411429  1  0  -0.318077  0  3.273447  0  0  -0.241029  0  3.540892  0  0  -0.260989  0  3.5601  0  0  -0.322766  -0.227433  0  3.527682  0
N  N86  1  0.79723864  0.60288874  0.37286890  1  0  -0.324754  0  3.255814  0  0  -0.245224  0  3.524445  0  0  -0.266159  0  3.543181  0  0  -0.32604  -0.230794  0  3.51145  0
N  N87  1  0.20276122  0.39711168  0.62713169  1  0  -0.32476  0  3.255826  0  0  -0.245215  0  3.524461  0  0  -0.266152  0  3.543201  0  0  -0.326044  -0.230786  0  3.511466  0
N  N88  1  0.50340110  0.70522360  0.10394450  1  0  -0.269613  0  2.908738  0  0  -0.255881  0  3.198227  0  0  -0.263805  0  3.209308  0  0  -0.198927  -0.250514  0  3.19074  0
N  N89  1  0.49659655  0.29477585  0.89605577  1  0  -0.269554  0  2.90874  0  0  -0.255826  0  3.198241  0  0  -0.263749  0  3.209319  0  0  -0.198912  -0.250457  0  3.190747  0
N  N90  1  0.52037692  0.79415072  0.02543931  1  0  -0.069591  0  2.906792  0  0  -0.079849  0  3.191569  0  0  -0.076586  0  3.201829  0  0  -0.064507  -0.081793  0  3.184689  0
N  N91  1  0.47962174  0.20584970  0.97456071  1  0  -0.069681  0  2.906843  0  0  -0.079962  0  3.191643  0  0  -0.076698  0  3.201902  0  0  -0.064558  -0.081906  0  3.184761  0
N  N92  1  0.62486575  0.73669674  0.95395085  1  0  0.16877  0  3.588924  0  0  0.262395  0  3.811087  0  0  0.258478  0  3.832376  0  0  -0.004559  0.264801  0  3.796812  0
N  N93  1  0.37513427  0.26330271  0.04604911  1  0  0.168817  0  3.588958  0  0  0.262469  0  3.811056  0  0  0.258551  0  3.83235  0  0  -0.004536  0.264875  0  3.796781  0
N  N94  1  0.67839544  0.61201285  0.98172745  1  0  -0.297947  0  2.813077  0  0  -0.302182  0  3.067447  0  0  -0.308833  0  3.08024  0  0  -0.198935  -0.297676  0  3.058915  0
N  N95  1  0.32160340  0.38798659  0.01827338  1  0  -0.297949  0  2.813086  0  0  -0.302205  0  3.067459  0  0  -0.308856  0  3.080254  0  0  -0.198936  -0.297699  0  3.058927  0
N  N96  1  0.82435538  0.94162839  0.99829867  1  0  0.213224  0  3.526883  0  0  0.262813  0  3.811304  0  0  0.258911  0  3.832398  0  0  -0.008633  0.26519  0  3.797226  0
N  N97  1  0.17564345  0.05837105  0.00170144  1  0  0.213215  0  3.526818  0  0  0.262821  0  3.811263  0  0  0.258922  0  3.832358  0  0  -0.008655  0.26519  0  3.797182  0
N  N98  1  0.75868241  0.01688522  0.06997225  1  0  -0.096316  0  2.86658  0  0  -0.099126  0  3.163807  0  0  -0.094829  0  3.172834  0  0  -0.071126  -0.101674  0  3.157702  0
N  N99  1  0.24131762  0.98311422  0.93002771  1  0  -0.096323  0  2.86649  0  0  -0.099131  0  3.163713  0  0  -0.094835  0  3.172738  0  0  -0.071113  -0.101681  0  3.15761  0
N  N100  1  0.87742233  0.81925798  0.03267545  1  0  -0.311452  0  2.82136  0  0  -0.303755  0  3.092355  0  0  -0.310525  0  3.105762  0  0  -0.203064  -0.299231  0  3.083482  0
N  N101  1  0.12257769  0.18074146  0.96732451  1  0  -0.311433  0  2.821182  0  0  -0.303731  0  3.092171  0  0  -0.310502  0  3.105579  0  0  -0.203053  -0.299208  0  3.0833  0
N  N102  1  0.76716734  0.94171716  0.15537501  1  0  -0.273375  0  2.924981  0  0  -0.255097  0  3.214414  0  0  -0.263423  0  3.224919  0  0  -0.19492  -0.249519  0  3.207345  0
N  N103  1  0.23283251  0.05828326  0.84462486  1  0  -0.273346  0  2.924932  0  0  -0.255067  0  3.214364  0  0  -0.263394  0  3.224871  0  0  -0.194921  -0.249489  0  3.207295  0
O  O104  1  0.77763823  0.41357504  0.58348855  1  0  -0.642528  0  2.010151  0  0  -0.573703  0  2.259773  0  0  -0.602937  0  2.249407  0  0  -0.328389  -0.552265  0  2.26748  0
O  O105  1  0.22236180  0.58642440  0.41651142  1  0  -0.642554  0  2.010121  0  0  -0.573718  0  2.259739  0  0  -0.602956  0  2.249382  0  0  -0.328401  -0.55228  0  2.26745  0
O  O106  1  0.56374545  0.33899031  0.55368996  1  0  -0.682962  0  2.079516  0  0  -0.620238  0  2.355043  0  0  -0.648672  0  2.340776  0  0  -0.342323  -0.598961  0  2.363354  0
O  O107  1  0.43625423  0.66101108  0.44631054  1  0  -0.682975  0  2.079517  0  0  -0.620254  0  2.355051  0  0  -0.648686  0  2.340783  0  0  -0.342331  -0.598977  0  2.363363  0
O  O108  1  0.64161454  0.85051148  0.51784856  1  0  -0.632344  0  1.927335  0  0  -0.575188  0  2.162653  0  0  -0.602864  0  2.153412  0  0  -0.33251  -0.55483  0  2.167762  0
O  O109  1  0.35838548  0.14948796  0.48215213  1  0  -0.632335  0  1.927265  0  0  -0.575198  0  2.162603  0  0  -0.602874  0  2.153362  0  0  -0.332519  -0.554839  0  2.167712  0
O  O110  1  0.81110211  0.72167142  0.60809649  1  0  -0.659787  0  1.964896  0  0  -0.60092  0  2.210997  0  0  -0.629311  0  2.202822  0  0  -0.338271  -0.579499  0  2.216678  0
O  O111  1  0.18889791  0.27832802  0.39190347  1  0  -0.659802  0  1.964946  0  0  -0.600918  0  2.211014  0  0  -0.629307  0  2.202839  0  0  -0.33828  -0.579497  0  2.216694  0
