# generated using pymatgen
data_Ag2H3(C2O)4
_symmetry_space_group_name_H-M   'P 1'
_cell_length_a   8.43478883
_cell_length_b   9.76208163
_cell_length_c   9.91379580
_cell_angle_alpha   84.98067328
_cell_angle_beta   80.47332295
_cell_angle_gamma   68.15944683
_symmetry_Int_Tables_number   1
_chemical_formula_structural   Ag2H3(C2O)4
_chemical_formula_sum   'Ag8 H12 C32 O16'
_cell_volume   746.97055022
_cell_formula_units_Z   4
loop_
 _symmetry_equiv_pos_site_id
 _symmetry_equiv_pos_as_xyz
  1  'x, y, z'
loop_
 _atom_site_type_symbol
 _atom_site_label
 _atom_site_symmetry_multiplicity
 _atom_site_fract_x
 _atom_site_fract_y
 _atom_site_fract_z
 _atom_site_occupancy
 _atom_site_hle17_bader_spin_density
 _atom_site_hle17_ddec_charge
 _atom_site_hle17_ddec_spin_density
 _atom_site_hle17_ddec_sum_bond_order
 _atom_site_hle17_magmom
 _atom_site_hse06_10hf_bader_spin_density
 _atom_site_hse06_10hf_ddec_charge
 _atom_site_hse06_10hf_ddec_spin_density
 _atom_site_hse06_10hf_ddec_sum_bond_order
 _atom_site_hse06_10hf_magmom
 _atom_site_hse06_bader_spin_density
 _atom_site_hse06_ddec_charge
 _atom_site_hse06_ddec_spin_density
 _atom_site_hse06_ddec_sum_bond_order
 _atom_site_hse06_magmom
 _atom_site_pbe_bader_spin_density
 _atom_site_pbe_cm5_charge
 _atom_site_pbe_ddec_charge
 _atom_site_pbe_ddec_spin_density
 _atom_site_pbe_ddec_sum_bond_order
 _atom_site_pbe_magmom
Ag  Ag0  1  0.27577844  0.56785198  0.61641218  1  0  0.620475  0  1.447786  0  0  0.536344  0  1.867141  0  0  0.556045  0  1.824539  0  0  0.49354  0.522062  0  1.89689  0
Ag  Ag1  1  0.72422146  0.43214983  0.38358832  1  0  0.62048  0  1.447788  0  0  0.536363  0  1.867124  0  0  0.556061  0  1.824524  0  0  0.493539  0.522077  0  1.89687  0
Ag  Ag2  1  0.21634895  0.76423268  0.05692806  1  0  0.64284  0  1.371893  0  0  0.537243  0  1.822395  0  0  0.572238  0  1.759324  0  0  0.427062  0.51088  0  1.868238  0
Ag  Ag3  1  0.78364942  0.23576698  0.94307080  1  0  0.642834  0  1.371895  0  0  0.537234  0  1.822405  0  0  0.57223  0  1.759332  0  0  0.42705  0.51087  0  1.868246  0
Ag  Ag4  1  0.41703333  0.54117931  0.23285454  1  0  0.575586  0  1.427454  0  0  0.470853  0  1.862347  0  0  0.503022  0  1.806519  0  0  0.432772  0.449265  0  1.900813  0
Ag  Ag5  1  0.58296672  0.45881922  0.76714517  1  0  0.575599  0  1.427444  0  0  0.470877  0  1.862335  0  0  0.503049  0  1.8065  0  0  0.432786  0.449295  0  1.900808  0
Ag  Ag6  1  0.77275776  0.00091031  0.16401204  1  0  0.671949  0  1.309518  0  0  0.56901  0  1.739695  0  0  0.596927  0  1.689189  0  0  0.453865  0.551295  0  1.774225  0
Ag  Ag7  1  0.22724111  0.99908819  0.83598985  1  0  0.671976  0  1.309505  0  0  0.569045  0  1.739671  0  0  0.596962  0  1.689164  0  0  0.453871  0.551325  0  1.77422  0
H  H8  1  0.58383054  0.85520775  0.81919602  1  0  0.10564  0  0.963562  0  0  0.112368  0  1.035814  0  0  0.116389  0  1.032103  0  0  0.103317  0.10947  0  1.038301  0
H  H9  1  0.41617027  0.14479185  0.18080451  1  0  0.105601  0  0.963633  0  0  0.112348  0  1.035873  0  0  0.116369  0  1.032161  0  0  0.103323  0.109448  0  1.038358  0
H  H10  1  0.08062593  0.84987158  0.62440512  1  0  0.11856  0  0.976166  0  0  0.122617  0  1.048202  0  0  0.127693  0  1.043113  0  0  0.102545  0.118904  0  1.051957  0
H  H11  1  0.91937110  0.15013136  0.37559571  1  0  0.118578  0  0.97608  0  0  0.122608  0  1.048162  0  0  0.127685  0  1.04307  0  0  0.10254  0.118894  0  1.051918  0
H  H12  1  0.98311547  0.53516539  0.32895315  1  0  0.122673  0  0.928176  0  0  0.131153  0  0.987756  0  0  0.134206  0  0.986877  0  0  0.11016  0.128821  0  0.988685  0
H  H13  1  0.01688563  0.46483641  0.67104717  1  0  0.122705  0  0.928253  0  0  0.131187  0  0.987823  0  0  0.134239  0  0.986943  0  0  0.110208  0.128855  0  0.988751  0
H  H14  1  0.50606724  0.91348059  0.35250565  1  0  0.105003  0  0.972702  0  0  0.113425  0  1.034746  0  0  0.115659  0  1.035329  0  0  0.10159  0.112026  0  1.034474  0
H  H15  1  0.49393189  0.08652016  0.64749302  1  0  0.105038  0  0.972677  0  0  0.113455  0  1.034723  0  0  0.115689  0  1.035305  0  0  0.101602  0.112058  0  1.034451  0
H  H16  1  0.45274333  0.85016388  0.13248088  1  0  0.109591  0  0.981727  0  0  0.115013  0  1.052192  0  0  0.11909  0  1.048402  0  0  0.10052  0.111875  0  1.055496  0
H  H17  1  0.54725791  0.14983466  0.86751764  1  0  0.109578  0  0.981784  0  0  0.115014  0  1.052236  0  0  0.11909  0  1.048444  0  0  0.100514  0.111876  0  1.055541  0
H  H18  1  0.91326045  0.45766703  0.12030746  1  0  0.132589  0  0.9378  0  0  0.138931  0  0.998921  0  0  0.142506  0  0.997046  0  0  0.112388  0.135986  0  1.000898  0
H  H19  1  0.08673918  0.54233255  0.87969525  1  0  0.13259  0  0.937769  0  0  0.138931  0  0.998892  0  0  0.142505  0  0.997018  0  0  0.112396  0.13599  0  1.00087  0
C  C20  1  0.87824058  0.88138613  0.87091197  1  0  0.66318  0  3.901401  0  0  0.608516  0  4.192369  0  0  0.644186  0  4.186411  0  0  0.205264  0.584635  0  4.19359  0
C  C21  1  0.12176023  0.11861348  0.12908856  1  0  0.663207  0  3.901351  0  0  0.608554  0  4.192294  0  0  0.644224  0  4.186336  0  0  0.205273  0.584673  0  4.193514  0
C  C22  1  0.48798299  0.76444068  0.61006124  1  0  0.665021  0  3.879105  0  0  0.612126  0  4.169386  0  0  0.646682  0  4.163615  0  0  0.208513  0.588269  0  4.173324  0
C  C23  1  0.51202066  0.23555786  0.38993593  1  0  0.664973  0  3.879025  0  0  0.612101  0  4.169261  0  0  0.646657  0  4.163489  0  0  0.208483  0.588243  0  4.173202  0
C  C24  1  0.68031042  0.83934567  0.72819675  1  0  -0.07163  0  3.697979  0  0  -0.103672  0  3.943454  0  0  -0.102088  0  3.961716  0  0  -0.07768  -0.104322  0  3.930408  0
C  C25  1  0.31968565  0.16065953  0.27180103  1  0  -0.071609  0  3.698043  0  0  -0.103665  0  3.943516  0  0  -0.102079  0  3.961775  0  0  -0.0777  -0.104315  0  3.930467  0
C  C26  1  0.77458325  0.77391895  0.48856516  1  0  0.035096  0  3.7006  0  0  0.034771  0  3.935096  0  0  0.037038  0  3.956695  0  0  0.0024  0.033044  0  3.921246  0
C  C27  1  0.22541784  0.22608287  0.51143416  1  0  0.035022  0  3.700627  0  0  0.034728  0  3.935111  0  0  0.036999  0  3.956705  0  0  0.002442  0.032996  0  3.921265  0
C  C28  1  0.83705078  0.85384876  0.73628717  1  0  -0.031892  0  3.718196  0  0  -0.004829  0  3.946673  0  0  -0.012852  0  3.969475  0  0  -0.013068  0.000637  0  3.930969  0
C  C29  1  0.16295048  0.14614975  0.26371236  1  0  -0.031909  0  3.718238  0  0  -0.004841  0  3.946707  0  0  -0.012866  0  3.969509  0  0  -0.013058  0.000624  0  3.931002  0
C  C30  1  0.92862418  0.79642574  0.49582657  1  0  -0.086211  0  3.719082  0  0  -0.070788  0  3.958871  0  0  -0.07751  0  3.978689  0  0  -0.013364  -0.066371  0  3.945939  0
C  C31  1  0.07137480  0.20357830  0.50417289  1  0  -0.086185  0  3.71907  0  0  -0.070787  0  3.958886  0  0  -0.077512  0  3.978703  0  0  -0.013401  -0.066369  0  3.945954  0
C  C32  1  0.96028427  0.83364964  0.61930295  1  0  -0.104279  0  3.724764  0  0  -0.135023  0  3.974693  0  0  -0.132988  0  3.990781  0  0  -0.090719  -0.13689  0  3.965198  0
C  C33  1  0.03971488  0.16635108  0.38069773  1  0  -0.104323  0  3.724623  0  0  -0.135043  0  3.974564  0  0  -0.133008  0  3.990653  0  0  -0.090725  -0.13691  0  3.965068  0
C  C34  1  0.74239975  0.72702545  0.36091285  1  0  0.074371  0  3.763621  0  0  0.084779  0  3.999691  0  0  0.088328  0  4.019304  0  0  -0.008206  0.082831  0  3.986811  0
C  C35  1  0.25760013  0.27297638  0.63908664  1  0  0.074501  0  3.763638  0  0  0.084881  0  3.999728  0  0  0.088429  0  4.019338  0  0  -0.008205  0.082936  0  3.98685  0
C  C36  1  0.64972005  0.79690472  0.60685141  1  0  -0.089216  0  3.696905  0  0  -0.071053  0  3.936064  0  0  -0.077751  0  3.9558  0  0  -0.01035  -0.067027  0  3.923389  0
C  C37  1  0.35028103  0.20309711  0.39314690  1  0  -0.089151  0  3.696885  0  0  -0.071011  0  3.936067  0  0  -0.07771  0  3.9558  0  0  -0.010387  -0.066986  0  3.923393  0
C  C38  1  0.85770032  0.59544431  0.29571599  1  0  -0.147307  0  3.75097  0  0  -0.161115  0  4.01445  0  0  -0.163989  0  4.028794  0  0  -0.123681  -0.159051  0  4.00426  0
C  C39  1  0.14230001  0.40455644  0.70428250  1  0  -0.147377  0  3.750976  0  0  -0.161184  0  4.014459  0  0  -0.164062  0  4.028816  0  0  -0.123717  -0.159118  0  4.004273  0
C  C40  1  0.59571487  0.81355476  0.30205809  1  0  -0.122842  0  3.729167  0  0  -0.141526  0  3.985567  0  0  -0.144796  0  4.002299  0  0  -0.098992  -0.141658  0  3.977053  0
C  C41  1  0.40428303  0.18644603  0.69793974  1  0  -0.12293  0  3.729278  0  0  -0.141595  0  3.985671  0  0  -0.144868  0  4.002408  0  0  -0.099016  -0.141728  0  3.977159  0
C  C42  1  0.06834324  0.77075692  0.37484804  1  0  0.669252  0  3.869665  0  0  0.61963  0  4.148079  0  0  0.653891  0  4.145466  0  0  0.213565  0.596382  0  4.148598  0
C  C43  1  0.93165619  0.22924601  0.62515143  1  0  0.669247  0  3.869523  0  0  0.619632  0  4.147933  0  0  0.653893  0  4.145319  0  0  0.213601  0.596386  0  4.148453  0
C  C44  1  0.56163544  0.77435664  0.18025756  1  0  -0.067393  0  3.731472  0  0  -0.088994  0  3.983701  0  0  -0.086621  0  3.999022  0  0  -0.089708  -0.092413  0  3.976189  0
C  C45  1  0.43836506  0.22564079  0.81974216  1  0  -0.067425  0  3.731514  0  0  -0.089027  0  3.983722  0  0  -0.086658  0  3.999053  0  0  -0.089698  -0.092444  0  3.976211  0
C  C46  1  0.67204606  0.64329903  0.11635391  1  0  -0.090604  0  3.764941  0  0  -0.060487  0  3.989139  0  0  -0.06975  0  4.011377  0  0  -0.033521  -0.053916  0  3.974457  0
C  C47  1  0.32795611  0.35669728  0.88364564  1  0  -0.0905  0  3.764816  0  0  -0.060404  0  3.989033  0  0  -0.069666  0  4.011269  0  0  -0.033505  -0.053832  0  3.974352  0
C  C48  1  0.64668416  0.59925981  0.98222719  1  0  0.632319  0  3.917168  0  0  0.584088  0  4.195502  0  0  0.618278  0  4.193791  0  0  0.187165  0.560761  0  4.195066  0
C  C49  1  0.35331488  0.40073538  0.01777593  1  0  0.632215  0  3.917246  0  0  0.584  0  4.195571  0  0  0.618186  0  4.193858  0  0  0.187099  0.560673  0  4.195134  0
C  C50  1  0.82059500  0.55302560  0.17565331  1  0  -0.07029  0  3.690709  0  0  -0.087351  0  3.942991  0  0  -0.084273  0  3.956722  0  0  -0.096338  -0.089685  0  3.934268  0
C  C51  1  0.17940507  0.44697290  0.82434841  1  0  -0.070309  0  3.690545  0  0  -0.08736  0  3.942836  0  0  -0.084282  0  3.956565  0  0  -0.096355  -0.089702  0  3.934115  0
O  O52  1  0.03585982  0.83020930  0.88685911  1  0  -0.660469  0  2.115877  0  0  -0.59638  0  2.412273  0  0  -0.624629  0  2.393929  0  0  -0.3304  -0.57609  0  2.424435  0
O  O53  1  0.96414080  0.16979364  0.11313918  1  0  -0.660494  0  2.115775  0  0  -0.596415  0  2.412171  0  0  -0.624664  0  2.393829  0  0  -0.330434  -0.576125  0  2.424333  0
O  O54  1  0.51124098  0.63380905  0.57388174  1  0  -0.649977  0  2.166614  0  0  -0.567966  0  2.452519  0  0  -0.598695  0  2.437958  0  0  -0.336827  -0.545849  0  2.461998  0
O  O55  1  0.48876072  0.36618838  0.42611680  1  0  -0.649978  0  2.166628  0  0  -0.56797  0  2.452506  0  0  -0.598696  0  2.437945  0  0  -0.336796  -0.545843  0  2.461961  0
O  O56  1  0.34185935  0.85939917  0.64917017  1  0  -0.603862  0  2.073708  0  0  -0.536904  0  2.343348  0  0  -0.566137  0  2.331974  0  0  -0.316235  -0.516917  0  2.350939  0
O  O57  1  0.65814581  0.14060151  0.35082863  1  0  -0.603824  0  2.073615  0  0  -0.536863  0  2.343234  0  0  -0.566097  0  2.331862  0  0  -0.316209  -0.51688  0  2.350825  0
O  O58  1  0.21787907  0.68292421  0.39791208  1  0  -0.61584  0  2.151956  0  0  -0.534445  0  2.429823  0  0  -0.567227  0  2.418116  0  0  -0.324906  -0.511243  0  2.436968  0
O  O59  1  0.78212082  0.31707760  0.60208842  1  0  -0.615807  0  2.151955  0  0  -0.534414  0  2.429824  0  0  -0.567195  0  2.418113  0  0  -0.324907  -0.511214  0  2.43697  0
O  O60  1  0.03313923  0.83226616  0.25985551  1  0  -0.624285  0  2.149631  0  0  -0.544882  0  2.43168  0  0  -0.578908  0  2.420352  0  0  -0.312602  -0.521141  0  2.439409  0
O  O61  1  0.96686156  0.16773346  0.74014401  1  0  -0.624291  0  2.14951  0  0  -0.544894  0  2.431567  0  0  -0.578922  0  2.420249  0  0  -0.3126  -0.521152  0  2.439299  0
O  O62  1  0.74905776  0.95226053  0.95759230  1  0  -0.643376  0  2.114432  0  0  -0.563197  0  2.389126  0  0  -0.596557  0  2.378071  0  0  -0.324939  -0.539321  0  2.394911  0
O  O63  1  0.25094258  0.04774019  0.04240721  1  0  -0.643381  0  2.114433  0  0  -0.563206  0  2.389114  0  0  -0.596566  0  2.378058  0  0  -0.324922  -0.53933  0  2.3949  0
O  O64  1  0.77622006  0.50773317  0.91269065  1  0  -0.601274  0  1.997096  0  0  -0.537292  0  2.249392  0  0  -0.567597  0  2.241619  0  0  -0.318832  -0.514551  0  2.253321  0
O  O65  1  0.22378062  0.49226093  0.08731029  1  0  -0.601232  0  1.997184  0  0  -0.537248  0  2.249453  0  0  -0.567567  0  2.241716  0  0  -0.318797  -0.514508  0  2.253382  0
O  O66  1  0.49635261  0.65230684  0.94300746  1  0  -0.663426  0  2.121254  0  0  -0.585019  0  2.400703  0  0  -0.619847  0  2.388648  0  0  -0.334318  -0.560758  0  2.408191  0
O  O67  1  0.50364764  0.34768833  0.05699548  1  0  -0.663391  0  2.121249  0  0  -0.584977  0  2.400668  0  0  -0.61981  0  2.388632  0  0  -0.334276  -0.560708  0  2.408136  0
