# generated using pymatgen
data_CuH15C8S2INO
_symmetry_space_group_name_H-M   'P 1'
_cell_length_a   8.09389121
_cell_length_b   10.46986796
_cell_length_c   14.43585907
_cell_angle_alpha   90.00002814
_cell_angle_beta   90.48755417
_cell_angle_gamma   89.99999615
_symmetry_Int_Tables_number   1
_chemical_formula_structural   CuH15C8S2INO
_chemical_formula_sum   'Cu4 H60 C32 S8 I4 N4 O4'
_cell_volume   1223.27887745
_cell_formula_units_Z   4
loop_
 _symmetry_equiv_pos_site_id
 _symmetry_equiv_pos_as_xyz
  1  'x, y, z'
loop_
 _atom_site_type_symbol
 _atom_site_label
 _atom_site_symmetry_multiplicity
 _atom_site_fract_x
 _atom_site_fract_y
 _atom_site_fract_z
 _atom_site_occupancy
 _atom_site_hle17_bader_spin_density
 _atom_site_hle17_ddec_charge
 _atom_site_hle17_ddec_spin_density
 _atom_site_hle17_ddec_sum_bond_order
 _atom_site_hle17_magmom
 _atom_site_hse06_10hf_bader_spin_density
 _atom_site_hse06_10hf_ddec_charge
 _atom_site_hse06_10hf_ddec_spin_density
 _atom_site_hse06_10hf_ddec_sum_bond_order
 _atom_site_hse06_10hf_magmom
 _atom_site_hse06_bader_spin_density
 _atom_site_hse06_ddec_charge
 _atom_site_hse06_ddec_spin_density
 _atom_site_hse06_ddec_sum_bond_order
 _atom_site_hse06_magmom
 _atom_site_pbe_bader_spin_density
 _atom_site_pbe_cm5_charge
 _atom_site_pbe_ddec_charge
 _atom_site_pbe_ddec_spin_density
 _atom_site_pbe_ddec_sum_bond_order
 _atom_site_pbe_magmom
Cu  Cu0  1  0.03263262  0.62991148  0.00958091  1  0  0.119709  0  2.302054  0  0  0.047619  0  2.788376  0  0  0.057616  0  2.738852  0  0  0.22242  0.041949  0  2.821264  0
Cu  Cu1  1  0.96736382  0.12991104  0.49041905  1  0  0.119695  0  2.302082  0  0  0.047604  0  2.788402  0  0  0.057618  0  2.738882  0  0  0.222423  0.041934  0  2.821308  0
Cu  Cu2  1  0.96736559  0.37008998  0.99041984  1  0  0.119731  0  2.302009  0  0  0.04764  0  2.788332  0  0  0.057678  0  2.738817  0  0  0.22243  0.041973  0  2.821217  0
Cu  Cu3  1  0.03263438  0.87008851  0.50958100  1  0  0.119715  0  2.302016  0  0  0.047618  0  2.788337  0  0  0.057627  0  2.738815  0  0  0.222408  0.04195  0  2.821224  0
H  H4  1  0.41830003  0.71374061  0.01951088  1  0  0.126609  0  0.956646  0  0  0.141233  0  1.024928  0  0  0.143004  0  1.02533  0  0  0.087716  0.139877  0  1.024794  0
H  H5  1  0.58169888  0.21374114  0.48048842  1  0  0.126612  0  0.956649  0  0  0.141236  0  1.024935  0  0  0.143007  0  1.025337  0  0  0.087718  0.139881  0  1.024806  0
H  H6  1  0.58169817  0.28625989  0.98048848  1  0  0.126681  0  0.95656  0  0  0.141275  0  1.024892  0  0  0.143046  0  1.025293  0  0  0.08775  0.139918  0  1.024754  0
H  H7  1  0.41830056  0.78626032  0.51951163  1  0  0.126609  0  0.95666  0  0  0.141234  0  1.024945  0  0  0.143005  0  1.025346  0  0  0.087726  0.139876  0  1.024811  0
H  H8  1  0.31505115  0.85971859  0.04828575  1  0  0.131793  0  0.953148  0  0  0.151945  0  1.010658  0  0  0.153386  0  1.010935  0  0  0.095712  0.150857  0  1.010544  0
H  H9  1  0.68494898  0.35972005  0.45171430  1  0  0.131774  0  0.953157  0  0  0.15195  0  1.010643  0  0  0.153391  0  1.010919  0  0  0.095718  0.150866  0  1.01053  0
H  H10  1  0.68494829  0.14027905  0.95171430  1  0  0.131753  0  0.953168  0  0  0.151939  0  1.010641  0  0  0.153379  0  1.010918  0  0  0.095715  0.150852  0  1.010531  0
H  H11  1  0.31505169  0.64028046  0.54828576  1  0  0.131782  0  0.953132  0  0  0.151937  0  1.010643  0  0  0.153378  0  1.010921  0  0  0.095716  0.150848  0  1.010533  0
H  H12  1  0.45339729  0.85680863  0.95289107  1  0  0.125364  0  0.955418  0  0  0.145542  0  1.014432  0  0  0.147698  0  1.013305  0  0  0.095607  0.143879  0  1.01552  0
H  H13  1  0.54660268  0.35680983  0.54710977  1  0  0.125374  0  0.955374  0  0  0.145541  0  1.014403  0  0  0.147698  0  1.013275  0  0  0.09561  0.143884  0  1.015489  0
H  H14  1  0.54660462  0.14318996  0.04710969  1  0  0.125355  0  0.955407  0  0  0.145536  0  1.014418  0  0  0.14769  0  1.013293  0  0  0.095605  0.143875  0  1.015502  0
H  H15  1  0.45339799  0.64319163  0.45289029  1  0  0.125352  0  0.955387  0  0  0.145532  0  1.01441  0  0  0.147686  0  1.013284  0  0  0.095608  0.143868  0  1.015495  0
H  H16  1  0.35689726  0.58217859  0.87357765  1  0  0.089697  0  0.955002  0  0  0.105625  0  1.018454  0  0  0.106495  0  1.01933  0  0  0.091785  0.10501  0  1.017694  0
H  H17  1  0.64310273  0.08217888  0.62642169  1  0  0.089689  0  0.955006  0  0  0.105616  0  1.018461  0  0  0.106487  0  1.01934  0  0  0.091776  0.105  0  1.017705  0
H  H18  1  0.64310341  0.41782287  0.12642102  1  0  0.089701  0  0.955018  0  0  0.105618  0  1.018465  0  0  0.106487  0  1.019345  0  0  0.09178  0.105001  0  1.017702  0
H  H19  1  0.35689795  0.91782258  0.37357836  1  0  0.089708  0  0.954986  0  0  0.105633  0  1.018432  0  0  0.106503  0  1.019314  0  0  0.091788  0.105019  0  1.017677  0
H  H20  1  0.19786289  0.61799182  0.79116657  1  0  0.086238  0  0.964859  0  0  0.099956  0  1.032143  0  0  0.101104  0  1.032086  0  0  0.092491  0.099116  0  1.032211  0
H  H21  1  0.80213832  0.11799120  0.70883210  1  0  0.086238  0  0.964879  0  0  0.099962  0  1.032152  0  0  0.101113  0  1.032094  0  0  0.092495  0.099125  0  1.032212  0
H  H22  1  0.80213778  0.38200964  0.20883210  1  0  0.086246  0  0.964905  0  0  0.099957  0  1.032177  0  0  0.101106  0  1.032121  0  0  0.09249  0.099114  0  1.032241  0
H  H23  1  0.19786359  0.88200835  0.29116796  1  0  0.08625  0  0.964879  0  0  0.099971  0  1.032152  0  0  0.10112  0  1.032097  0  0  0.092499  0.099128  0  1.032221  0
H  H24  1  0.35492824  0.81364469  0.74119395  1  0  0.105368  0  0.938791  0  0  0.113548  0  1.01302  0  0  0.116217  0  1.012104  0  0  0.094645  0.111649  0  1.013693  0
H  H25  1  0.64507298  0.31364316  0.75880687  1  0  0.105342  0  0.938768  0  0  0.113501  0  1.013031  0  0  0.116174  0  1.012115  0  0  0.094605  0.1116  0  1.013703  0
H  H26  1  0.64507244  0.18635772  0.25880680  1  0  0.105315  0  0.938747  0  0  0.113472  0  1.012992  0  0  0.116135  0  1.01209  0  0  0.094594  0.111567  0  1.013675  0
H  H27  1  0.35492646  0.68635734  0.24119249  1  0  0.105408  0  0.93873  0  0  0.113575  0  1.012964  0  0  0.116239  0  1.01206  0  0  0.094652  0.111673  0  1.013636  0
H  H28  1  0.51300078  0.77731570  0.82142987  1  0  0.105603  0  0.944336  0  0  0.122234  0  1.002216  0  0  0.124478  0  1.001535  0  0  0.098931  0.120494  0  1.003152  0
H  H29  1  0.48699796  0.27731508  0.67857024  1  0  0.105637  0  0.944282  0  0  0.122287  0  1.00215  0  0  0.124532  0  1.001471  0  0  0.098941  0.120546  0  1.003088  0
H  H30  1  0.48699495  0.22268576  0.17856948  1  0  0.105603  0  0.94428  0  0  0.122233  0  1.002165  0  0  0.124476  0  1.001484  0  0  0.09892  0.120494  0  1.003097  0
H  H31  1  0.51300272  0.72268543  0.32142982  1  0  0.10562  0  0.944283  0  0  0.12226  0  1.002153  0  0  0.124501  0  1.001474  0  0  0.098939  0.120521  0  1.003081  0
H  H32  1  0.72778298  0.67307168  0.52705655  1  0  0.063031  0  0.937561  0  0  0.076356  0  1.006876  0  0  0.07735  0  1.005532  0  0  0.095596  0.075128  0  1.008544  0
H  H33  1  0.27221824  0.17307127  0.97294352  1  0  0.06304  0  0.93759  0  0  0.076338  0  1.006901  0  0  0.07733  0  1.00556  0  0  0.095596  0.075114  0  1.008576  0
H  H34  1  0.27221646  0.32692882  0.47294281  1  0  0.063019  0  0.937594  0  0  0.076324  0  1.00692  0  0  0.077317  0  1.00558  0  0  0.095592  0.075094  0  1.00859  0
H  H35  1  0.72778367  0.82692923  0.02705585  1  0  0.063018  0  0.937574  0  0  0.076339  0  1.006895  0  0  0.077333  0  1.005551  0  0  0.095592  0.075114  0  1.008558  0
H  H36  1  0.66354242  0.53241091  0.58810973  1  0  0.083249  0  0.962848  0  0  0.095862  0  1.02894  0  0  0.097076  0  1.02841  0  0  0.109777  0.094876  0  1.02936  0
H  H37  1  0.33645510  0.03241045  0.91189029  1  0  0.083257  0  0.962823  0  0  0.095857  0  1.028923  0  0  0.097072  0  1.028389  0  0  0.109756  0.094873  0  1.029341  0
H  H38  1  0.33645331  0.46758864  0.41189032  1  0  0.083243  0  0.962862  0  0  0.095852  0  1.028966  0  0  0.097069  0  1.02843  0  0  0.109756  0.094864  0  1.029385  0
H  H39  1  0.66354681  0.96758910  0.08810977  1  0  0.083233  0  0.962869  0  0  0.095845  0  1.02897  0  0  0.097061  0  1.028434  0  0  0.109757  0.094858  0  1.029394  0
H  H40  1  0.97415729  0.54760020  0.58020745  1  0  0.096028  0  0.929559  0  0  0.11656  0  0.983535  0  0  0.117141  0  0.984132  0  0  0.098949  0.116038  0  0.983283  0
H  H41  1  0.02584023  0.04760072  0.91979257  1  0  0.096067  0  0.929562  0  0  0.116567  0  0.983582  0  0  0.117148  0  0.98418  0  0  0.098954  0.116044  0  0.983332  0
H  H42  1  0.02583844  0.45239935  0.41979190  1  0  0.096071  0  0.92953  0  0  0.116562  0  0.983559  0  0  0.117144  0  0.984157  0  0  0.098952  0.116038  0  0.983307  0
H  H43  1  0.97416046  0.95239883  0.08020887  1  0  0.096045  0  0.929569  0  0  0.116563  0  0.983547  0  0  0.117145  0  0.984144  0  0  0.098954  0.116039  0  0.983296  0
H  H44  1  0.90206204  0.55450386  0.69660447  1  0  0.091025  0  0.956359  0  0  0.101554  0  1.030356  0  0  0.103102  0  1.030062  0  0  0.089442  0.100334  0  1.03071  0
H  H45  1  0.09793670  0.05450430  0.80339348  1  0  0.09101  0  0.956231  0  0  0.101543  0  1.030222  0  0  0.103091  0  1.029928  0  0  0.089466  0.100326  0  1.03057  0
H  H46  1  0.09793615  0.44549569  0.30339419  1  0  0.091002  0  0.956227  0  0  0.101543  0  1.030206  0  0  0.103091  0  1.029911  0  0  0.08946  0.100324  0  1.030555  0
H  H47  1  0.90206397  0.94549525  0.19660519  1  0  0.091027  0  0.956356  0  0  0.101562  0  1.030318  0  0  0.103112  0  1.030022  0  0  0.08944  0.10034  0  1.030671  0
H  H48  1  0.86402832  0.78496621  0.78594349  1  0  0.091758  0  0.955166  0  0  0.103292  0  1.024034  0  0  0.104659  0  1.024126  0  0  0.086362  0.102169  0  1.024263  0
H  H49  1  0.13597289  0.28496467  0.71405594  1  0  0.091736  0  0.955133  0  0  0.103277  0  1.024008  0  0  0.104644  0  1.0241  0  0  0.086362  0.10216  0  1.024228  0
H  H50  1  0.13597112  0.21503430  0.21405518  1  0  0.091739  0  0.955154  0  0  0.103276  0  1.024007  0  0  0.104642  0  1.024102  0  0  0.086357  0.102158  0  1.024233  0
H  H51  1  0.86402779  0.71503488  0.28594412  1  0  0.091762  0  0.955128  0  0  0.103287  0  1.023993  0  0  0.104652  0  1.024089  0  0  0.086361  0.102169  0  1.024214  0
H  H52  1  0.90844562  0.93096325  0.72644617  1  0  0.097121  0  0.951337  0  0  0.114379  0  1.012747  0  0  0.115455  0  1.01255  0  0  0.097733  0.113577  0  1.012894  0
H  H53  1  0.09155804  0.43096462  0.77355261  1  0  0.097091  0  0.951355  0  0  0.114384  0  1.012747  0  0  0.115461  0  1.012549  0  0  0.097728  0.113582  0  1.012896  0
H  H54  1  0.09155628  0.06903630  0.27355319  1  0  0.097111  0  0.951354  0  0  0.114379  0  1.012745  0  0  0.115455  0  1.012551  0  0  0.097718  0.113577  0  1.012898  0
H  H55  1  0.90844139  0.56903588  0.22644605  1  0  0.097123  0  0.951362  0  0  0.114412  0  1.012717  0  0  0.115489  0  1.012521  0  0  0.097726  0.113609  0  1.012867  0
H  H56  1  0.60794723  0.88648896  0.71671472  1  0  0.096324  0  0.97732  0  0  0.110008  0  1.040881  0  0  0.11125  0  1.040641  0  0  0.111476  0.109099  0  1.040947  0
H  H57  1  0.39205644  0.38648650  0.78328543  1  0  0.096307  0  0.977326  0  0  0.110005  0  1.040883  0  0  0.111252  0  1.040644  0  0  0.111462  0.109097  0  1.04095  0
H  H58  1  0.39205097  0.11351441  0.28328602  1  0  0.096356  0  0.977344  0  0  0.110033  0  1.040909  0  0  0.111283  0  1.040649  0  0  0.111491  0.109124  0  1.040976  0
H  H59  1  0.60794546  0.61351305  0.21671324  1  0  0.096358  0  0.977279  0  0  0.110042  0  1.040858  0  0  0.111299  0  1.040591  0  0  0.111478  0.109133  0  1.04092  0
H  H60  1  0.69811542  0.87748021  0.60526767  1  0  0.056476  0  0.980382  0  0  0.067263  0  1.05906  0  0  0.068616  0  1.057191  0  0  0.086409  0.066252  0  1.06031  0
H  H61  1  0.30188702  0.37747879  0.89473317  1  0  0.056474  0  0.980347  0  0  0.067273  0  1.059012  0  0  0.068622  0  1.057154  0  0  0.086415  0.066261  0  1.06027  0
H  H62  1  0.30188525  0.12252125  0.39473238  1  0  0.056481  0  0.980397  0  0  0.067265  0  1.059071  0  0  0.068616  0  1.057203  0  0  0.08641  0.066252  0  1.06033  0
H  H63  1  0.69811366  0.62252076  0.10526689  1  0  0.056465  0  0.980392  0  0  0.06728  0  1.059042  0  0  0.06863  0  1.057181  0  0  0.08641  0.066263  0  1.060297  0
C  C64  1  0.36212312  0.80108588  0.99143616  1  0  -0.336795  0  3.625104  0  0  -0.409954  0  3.878932  0  0  -0.412267  0  3.886652  0  0  -0.237969  -0.408094  0  3.873619  0
C  C65  1  0.63787685  0.30108609  0.50856396  1  0  -0.336809  0  3.625004  0  0  -0.409987  0  3.87885  0  0  -0.412299  0  3.886567  0  0  -0.237984  -0.408137  0  3.873548  0
C  C66  1  0.63787631  0.19891462  0.00856320  1  0  -0.336819  0  3.624962  0  0  -0.409992  0  3.878826  0  0  -0.4123  0  3.886543  0  0  -0.23801  -0.408135  0  3.873516  0
C  C67  1  0.36212506  0.69891441  0.49143680  1  0  -0.33676  0  3.625008  0  0  -0.409939  0  3.878869  0  0  -0.41225  0  3.886589  0  0  -0.237994  -0.408076  0  3.873554  0
C  C68  1  0.29575011  0.65916045  0.83472074  1  0  -0.120368  0  3.661488  0  0  -0.158342  0  3.917775  0  0  -0.15824  0  3.930195  0  0  -0.153641  -0.158322  0  3.909012  0
C  C69  1  0.70425110  0.15915980  0.66527864  1  0  -0.120375  0  3.661497  0  0  -0.158347  0  3.917807  0  0  -0.158244  0  3.930216  0  0  -0.153639  -0.158332  0  3.909046  0
C  C70  1  0.70424932  0.34084196  0.16527862  1  0  -0.120457  0  3.66155  0  0  -0.158389  0  3.917767  0  0  -0.158289  0  3.930184  0  0  -0.153638  -0.158363  0  3.908991  0
C  C71  1  0.29575081  0.84084070  0.33472142  1  0  -0.120404  0  3.661484  0  0  -0.158383  0  3.917786  0  0  -0.158276  0  3.930179  0  0  -0.153629  -0.158365  0  3.909028  0
C  C72  1  0.41793762  0.73396080  0.77678246  1  0  -0.253005  0  3.720161  0  0  -0.292289  0  3.968977  0  0  -0.29804  0  3.979083  0  0  -0.168731  -0.288404  0  3.962228  0
C  C73  1  0.58206359  0.23395924  0.72321764  1  0  -0.253001  0  3.720125  0  0  -0.292272  0  3.968918  0  0  -0.298033  0  3.979043  0  0  -0.168677  -0.28839  0  3.962172  0
C  C74  1  0.58206182  0.26603971  0.22321760  1  0  -0.252891  0  3.720136  0  0  -0.292157  0  3.968858  0  0  -0.29791  0  3.978968  0  0  -0.168655  -0.288266  0  3.96211  0
C  C75  1  0.41793708  0.76603935  0.27678172  1  0  -0.25301  0  3.720152  0  0  -0.29225  0  3.968827  0  0  -0.297998  0  3.978936  0  0  -0.168727  -0.288361  0  3.962072  0
C  C76  1  0.50089804  0.64973717  0.70502554  1  0  0.534015  0  3.77715  0  0  0.488083  0  4.07236  0  0  0.516938  0  4.072856  0  0  0.234085  0.468705  0  4.07148  0
C  C77  1  0.49910566  0.14973758  0.79497522  1  0  0.534067  0  3.777091  0  0  0.488148  0  4.072309  0  0  0.517006  0  4.072807  0  0  0.234097  0.468781  0  4.07141  0
C  C78  1  0.49910141  0.35025856  0.29497451  1  0  0.533885  0  3.777403  0  0  0.488028  0  4.07249  0  0  0.516883  0  4.072994  0  0  0.234047  0.468639  0  4.071618  0
C  C79  1  0.50089873  0.85025911  0.20502623  1  0  0.533889  0  3.77733  0  0  0.488065  0  4.072418  0  0  0.516917  0  4.072921  0  0  0.234047  0.468673  0  4.071556  0
C  C80  1  0.72649494  0.62453432  0.59483648  1  0  0.009324  0  3.666693  0  0  -0.049898  0  3.920227  0  0  -0.045191  0  3.932211  0  0  -0.067384  -0.052732  0  3.911983  0
C  C81  1  0.27350381  0.12453387  0.90516358  1  0  0.009211  0  3.666807  0  0  -0.049937  0  3.920256  0  0  -0.045225  0  3.932231  0  0  -0.06738  -0.052782  0  3.912027  0
C  C82  1  0.27350326  0.37546523  0.40516288  1  0  0.009265  0  3.666792  0  0  -0.049941  0  3.92034  0  0  -0.045232  0  3.932321  0  0  -0.067384  -0.052773  0  3.912099  0
C  C83  1  0.72649440  0.87546473  0.09483786  1  0  0.009345  0  3.666758  0  0  -0.049856  0  3.920277  0  0  -0.045148  0  3.932263  0  0  -0.067362  -0.052695  0  3.912045  0
C  C84  1  0.90269739  0.60452548  0.62959851  1  0  -0.168904  0  3.640595  0  0  -0.210999  0  3.913286  0  0  -0.212015  0  3.925178  0  0  -0.152356  -0.210233  0  3.905066  0
C  C85  1  0.09730259  0.10452406  0.87040154  1  0  -0.168813  0  3.640477  0  0  -0.210894  0  3.913146  0  0  -0.211914  0  3.925044  0  0  -0.15235  -0.210126  0  3.904927  0
C  C86  1  0.09730081  0.39547502  0.37040154  1  0  -0.168849  0  3.640478  0  0  -0.210908  0  3.913157  0  0  -0.211928  0  3.925052  0  0  -0.152356  -0.210137  0  3.904928  0
C  C87  1  0.90269438  0.89547549  0.12959851  1  0  -0.16893  0  3.64072  0  0  -0.21098  0  3.91336  0  0  -0.212002  0  3.92526  0  0  -0.152329  -0.210199  0  3.905124  0
C  C88  1  0.86385416  0.83273565  0.71806650  1  0  -0.152639  0  3.614465  0  0  -0.190733  0  3.876308  0  0  -0.191139  0  3.886687  0  0  -0.151282  -0.19034  0  3.869134  0
C  C89  1  0.13614457  0.33273512  0.78193363  1  0  -0.152586  0  3.614361  0  0  -0.190748  0  3.876319  0  0  -0.191147  0  3.886703  0  0  -0.151287  -0.190348  0  3.869127  0
C  C90  1  0.13614898  0.16726390  0.28193218  1  0  -0.152571  0  3.614376  0  0  -0.190706  0  3.876293  0  0  -0.191115  0  3.886677  0  0  -0.151242  -0.190298  0  3.869075  0
C  C91  1  0.86385734  0.66726539  0.21806643  1  0  -0.152675  0  3.614513  0  0  -0.190782  0  3.876419  0  0  -0.191188  0  3.886805  0  0  -0.15128  -0.190381  0  3.869205  0
C  C92  1  0.69254200  0.83114058  0.67377430  1  0  -0.010709  0  3.673109  0  0  -0.07184  0  3.925018  0  0  -0.068245  0  3.93827  0  0  -0.073205  -0.0739  0  3.915475  0
C  C93  1  0.30746045  0.33114007  0.82622583  1  0  -0.010666  0  3.673009  0  0  -0.07183  0  3.924994  0  0  -0.068254  0  3.938283  0  0  -0.073197  -0.073899  0  3.915466  0
C  C94  1  0.30745868  0.16886087  0.32622645  1  0  -0.010781  0  3.673323  0  0  -0.071904  0  3.925234  0  0  -0.068291  0  3.938456  0  0  -0.073225  -0.073965  0  3.915702  0
C  C95  1  0.69254394  0.66885948  0.17377424  1  0  -0.010705  0  3.673099  0  0  -0.071876  0  3.925103  0  0  -0.068275  0  3.93835  0  0  -0.073201  -0.073931  0  3.915552  0
S  S96  1  0.18966334  0.75936232  0.91748653  1  0  0.075663  0  2.770315  0  0  0.107216  0  3.192992  0  0  0.105591  0  3.182364  0  0  -0.040189  0.107754  0  3.200363  0
S  S97  1  0.81033664  0.25936066  0.58251357  1  0  0.075689  0  2.770265  0  0  0.107241  0  3.192955  0  0  0.105611  0  3.182335  0  0  -0.040184  0.10778  0  3.200338  0
S  S98  1  0.81033363  0.24063723  0.08251420  1  0  0.075691  0  2.770261  0  0  0.107235  0  3.192928  0  0  0.105597  0  3.182319  0  0  -0.040198  0.107765  0  3.200306  0
S  S99  1  0.18966650  0.74063603  0.41748511  1  0  0.07564  0  2.770248  0  0  0.107197  0  3.192928  0  0  0.105569  0  3.182306  0  0  -0.040205  0.107733  0  3.200297  0
S  S100  1  0.01465168  0.75434784  0.64497770  1  0  0.052796  0  2.720946  0  0  0.080456  0  3.137713  0  0  0.079164  0  3.12671  0  0  -0.03107  0.080775  0  3.145324  0
S  S101  1  0.98534831  0.25434540  0.85502379  1  0  0.052734  0  2.720954  0  0  0.080398  0  3.137759  0  0  0.079097  0  3.126769  0  0  -0.031087  0.080713  0  3.145378  0
S  S102  1  0.98535024  0.24565266  0.35502375  1  0  0.052788  0  2.720949  0  0  0.080451  0  3.137704  0  0  0.079157  0  3.126706  0  0  -0.031065  0.080765  0  3.145325  0
S  S103  1  0.01465113  0.74565511  0.14497627  1  0  0.052838  0  2.721009  0  0  0.080469  0  3.137776  0  0  0.079181  0  3.126771  0  0  -0.031067  0.080782  0  3.145384  0
I  I104  1  0.22451329  0.44695122  0.08619562  1  0  -0.40373  0  1.392738  0  0  -0.351852  0  1.785405  0  0  -0.365818  0  1.750182  0  0  -0.211764  -0.341719  0  1.809353  0
I  I105  1  0.77548560  0.94694998  0.41380377  1  0  -0.403744  0  1.392738  0  0  -0.35187  0  1.785412  0  0  -0.365833  0  1.750191  0  0  -0.211771  -0.341733  0  1.809369  0
I  I106  1  0.77548615  0.55305024  0.91380375  1  0  -0.403749  0  1.392742  0  0  -0.35188  0  1.785429  0  0  -0.365845  0  1.750206  0  0  -0.211775  -0.341744  0  1.809374  0
I  I107  1  0.22451260  0.05304957  0.58619559  1  0  -0.403734  0  1.392737  0  0  -0.351854  0  1.7854  0  0  -0.365819  0  1.750177  0  0  -0.211765  -0.341718  0  1.809353  0
N  N108  1  0.63222143  0.70128126  0.66003928  1  0  -0.228007  0  3.401319  0  0  -0.135874  0  3.629033  0  0  -0.15837  0  3.65289  0  0  -0.287992  -0.120781  0  3.612489  0
N  N109  1  0.36777979  0.20128170  0.83996150  1  0  -0.228011  0  3.401353  0  0  -0.135875  0  3.629051  0  0  -0.158363  0  3.65291  0  0  -0.287997  -0.120781  0  3.612502  0
N  N110  1  0.36777801  0.29871829  0.33996077  1  0  -0.227847  0  3.401529  0  0  -0.135772  0  3.629243  0  0  -0.158272  0  3.653105  0  0  -0.287978  -0.120682  0  3.612701  0
N  N111  1  0.63222213  0.79871784  0.16003925  1  0  -0.227911  0  3.40143  0  0  -0.135898  0  3.629242  0  0  -0.158393  0  3.653107  0  0  -0.288001  -0.120804  0  3.612702  0
O  O112  1  0.44929943  0.53991056  0.68742202  1  0  -0.563044  0  1.920505  0  0  -0.516934  0  2.140054  0  0  -0.537015  0  2.134061  0  0  -0.313547  -0.503002  0  2.143834  0
O  O113  1  0.55070058  0.03991003  0.81258078  1  0  -0.563057  0  1.920409  0  0  -0.516997  0  2.14003  0  0  -0.537079  0  2.134039  0  0  -0.31357  -0.503072  0  2.143806  0
O  O114  1  0.55069878  0.46009090  0.31257872  1  0  -0.563056  0  1.920506  0  0  -0.516972  0  2.140032  0  0  -0.537057  0  2.134044  0  0  -0.31354  -0.503031  0  2.143808  0
O  O115  1  0.44930135  0.96009143  0.18742206  1  0  -0.563048  0  1.920445  0  0  -0.516987  0  2.139975  0  0  -0.537073  0  2.133987  0  0  -0.313548  -0.503047  0  2.143761  0
