# generated using pymatgen
data_Al2H16C26S2O11
_symmetry_space_group_name_H-M   'P 1'
_cell_length_a   6.61067542
_cell_length_b   12.89491240
_cell_length_c   17.69203727
_cell_angle_alpha   80.68650817
_cell_angle_beta   79.33409133
_cell_angle_gamma   71.33971436
_symmetry_Int_Tables_number   1
_chemical_formula_structural   Al2H16C26S2O11
_chemical_formula_sum   'Al2 H16 C26 S2 O11'
_cell_volume   1395.62087226
_cell_formula_units_Z   1
loop_
 _symmetry_equiv_pos_site_id
 _symmetry_equiv_pos_as_xyz
  1  'x, y, z'
loop_
 _atom_site_type_symbol
 _atom_site_label
 _atom_site_symmetry_multiplicity
 _atom_site_fract_x
 _atom_site_fract_y
 _atom_site_fract_z
 _atom_site_occupancy
 _atom_site_pbe_bader_charge
 _atom_site_pbe_bader_spin_density
 _atom_site_pbe_cm5_charge
 _atom_site_pbe_ddec_charge
 _atom_site_pbe_ddec_spin_density
 _atom_site_pbe_ddec_sum_bond_order
 _atom_site_pbe_magmom
Al  Al0  1  0.50118519  0.48913744  0.50207923  1  2.500913  0  0.391875  1.637769  0  2.592055  0
Al  Al1  1  0.99953511  0.49440597  0.50013481  1  2.499955  0  0.3961  1.634358  0  2.576782  0
H  H2  1  0.22465797  0.44368982  0.59939479  1  0.602075  0  0.350153  0.426922  0  0.86292  0
H  H3  1  0.68987433  0.61780739  0.44513696  1  0.62909  0  0.349255  0.432364  0  0.861087  0
H  H4  1  0.64026234  0.53990604  0.27528682  1  0.085805  0  0.112084  0.116494  0  0.99316  0
H  H5  1  0.70859126  0.56512587  0.13083638  1  0.073983  0  0.106071  0.111303  0  0.990734  0
H  H6  1  0.22389552  0.40940949  0.12529087  1  0.062377  0  0.1035  0.110293  0  0.99898  0
H  H7  1  0.76675170  0.62376975  0.86629724  1  0.062469  0  0.105656  0.114485  0  0.990344  0
H  H8  1  0.37735142  0.44569526  0.73923570  1  0.073325  0  0.106911  0.106791  0  0.999094  0
H  H9  1  0.31313024  0.44128925  0.88284322  1  0.07811  0  0.106785  0.111907  0  0.988739  0
H  H10  1  0.61872741  0.15159691  0.53746374  1  0.111055  0  0.121186  0.147466  0  0.98304  0
H  H11  1  0.97129579  0.42180765  0.31310333  1  0.109613  0  0.1008  0.151009  0  1.006076  0
H  H12  1  0.18108760  0.29740515  0.31949981  1  0.033306  0  0.089859  0.126512  0  1.006303  0
H  H13  1  0.04739919  0.33707787  0.23603524  1  0.062826  0  0.089493  0.124777  0  1.002456  0
H  H14  1  0.04451895  0.59741652  0.71183262  1  0.032565  0  0.093743  0.136083  0  1.008697  0
H  H15  1  0.85381722  0.72151229  0.73952071  1  0.03462  0  0.091841  0.127942  0  0.993223  0
H  H16  1  0.84792774  0.67168802  0.65189276  1  0.068208  0  0.0901  0.132082  0  1.033466  0
H  H17  1  0.52554144  0.87684988  0.45614457  1  0.610385  0  0.301393  0.318795  0  0.986792  0
C  C18  1  0.87498422  0.29544878  0.51167674  1  1.620715  0  0.261942  0.64008  0  4.158848  0
C  C19  1  0.65904938  0.51884526  0.63823689  1  1.535837  0  0.264879  0.651228  0  4.088257  0
C  C20  1  0.13437929  0.69073620  0.48606498  1  1.569812  0  0.253597  0.65907  0  4.156299  0
C  C21  1  0.34437946  0.46650870  0.36647835  1  1.585207  0  0.270299  0.651137  0  4.084269  0
C  C22  1  0.38940236  0.46549427  0.28085815  1  -0.086571  0  -0.014018  -0.107664  0  3.923507  0
C  C23  1  0.54915736  0.51246144  0.24133303  1  0.110154  0  -0.080067  -0.085015  0  4.013692  0
C  C24  1  0.58737598  0.52647737  0.16110123  1  -0.132265  0  -0.088197  -0.140869  0  3.968667  0
C  C25  1  0.46603112  0.49115720  0.11850258  1  0.192829  0  -0.000516  0.146175  0  4.142617  0
C  C26  1  0.31255540  0.43937017  0.15878543  1  -0.034749  0  -0.086794  -0.196826  0  3.899085  0
C  C27  1  0.27039816  0.42604209  0.23945986  1  0.0062  0  0.00401  0.171981  0  3.949392  0
C  C28  1  0.49553347  0.50703903  0.03666984  1  -0.17294  0  -0.04325  -0.102742  0  4.120558  0
C  C29  1  0.51667512  0.52055148  0.96604956  1  -0.221949  0  -0.048222  -0.113642  0  4.122738  0
C  C30  1  0.54222421  0.52914160  0.88434151  1  -0.00419  0  0.000788  0.149656  0  4.141582  0
C  C31  1  0.68427876  0.58309785  0.83800977  1  0.035901  0  -0.085921  -0.195971  0  3.895086  0
C  C32  1  0.72390178  0.58545382  0.75741369  1  0.0134  0  0.002619  0.16987  0  3.943506  0
C  C33  1  0.61429319  0.53225035  0.72242441  1  -0.008323  0  -0.017717  -0.108356  0  3.923145  0
C  C34  1  0.46283560  0.48399577  0.76797270  1  0.004091  0  -0.08525  -0.092588  0  4.036911  0
C  C35  1  0.42687561  0.48122557  0.84780291  1  -0.078787  0  -0.087731  -0.1366  0  3.96873  0
C  C36  1  0.23109620  0.87048518  0.47478692  1  0.620609  0  0.091591  0.291492  0  4.072647  0
C  C37  1  0.79109682  0.11494486  0.52113649  1  0.067017  0  -0.085069  -0.13322  0  3.958305  0
C  C38  1  0.08584082  0.80875609  0.48828852  1  -0.093695  0  -0.037058  -0.244619  0  3.91907  0
C  C39  1  0.93413610  0.17627583  0.50753235  1  -0.203222  0  -0.012364  -0.104158  0  3.946932  0
C  C40  1  0.89929269  0.00392353  0.50986530  1  -0.171788  0  -0.022331  0.010929  0  4.10655  0
C  C41  1  0.12297741  0.98247883  0.48720549  1  -0.159471  0  -0.035299  -0.150942  0  4.083256  0
C  C42  1  0.10830092  0.36777733  0.27882746  1  -0.127017  0  -0.238849  -0.416134  0  3.955332  0
C  C43  1  0.87463671  0.64727670  0.71229933  1  -0.04948  0  -0.240323  -0.417707  0  3.959307  0
S  S44  1  0.82091483  0.88689388  0.51740735  1  0.221896  0  0.083136  0.099156  0  2.876259  0
S  S45  1  0.20047929  0.09982926  0.48037706  1  0.248312  0  0.090468  0.133652  0  2.777227  0
O  O46  1  0.67439724  0.34364165  0.52873390  1  -1.258421  0  -0.233166  -0.579241  0  2.34215  0
O  O47  1  0.85557902  0.49697853  0.60624434  1  -1.259552  0  -0.238295  -0.603936  0  2.349281  0
O  O48  1  0.97584788  0.65036847  0.49851220  1  -1.253826  0  -0.24719  -0.601888  0  2.310726  0
O  O49  1  0.50446374  0.44801632  0.40256551  1  -1.260761  0  -0.235653  -0.587187  0  2.321871  0
O  O50  1  0.33302250  0.63633589  0.47223984  1  -1.256761  0  -0.239045  -0.594198  0  2.372682  0
O  O51  1  0.14730540  0.49187464  0.39738113  1  -1.264036  0  -0.229855  -0.586246  0  2.360883  0
O  O52  1  0.02498782  0.34064979  0.49825326  1  -1.239181  0  -0.230443  -0.566111  0  2.318492  0
O  O53  1  0.49897132  0.52537731  0.60499175  1  -1.260229  0  -0.242027  -0.606163  0  2.331184  0
O  O54  1  0.25356862  0.44922866  0.54333868  1  -1.409171  0  -0.449191  -0.987641  0  2.197589  0
O  O55  1  0.73863491  0.53951441  0.46246436  1  -1.430236  0  -0.448292  -0.98974  0  2.18666  0
O  O56  1  0.44442914  0.82675481  0.45190007  1  -1.126041  0  -0.327999  -0.39238  0  2.354151  0
