# generated using pymatgen
data_SrH6C9O7
_symmetry_space_group_name_H-M   'P 1'
_cell_length_a   6.85627883
_cell_length_b   7.02670959
_cell_length_c   10.78291512
_cell_angle_alpha   87.49599143
_cell_angle_beta   82.97401611
_cell_angle_gamma   71.51256767
_symmetry_Int_Tables_number   1
_chemical_formula_structural   SrH6C9O7
_chemical_formula_sum   'Sr2 H12 C18 O14'
_cell_volume   488.97392455
_cell_formula_units_Z   2
loop_
 _symmetry_equiv_pos_site_id
 _symmetry_equiv_pos_as_xyz
  1  'x, y, z'
loop_
 _atom_site_type_symbol
 _atom_site_label
 _atom_site_symmetry_multiplicity
 _atom_site_fract_x
 _atom_site_fract_y
 _atom_site_fract_z
 _atom_site_occupancy
 _atom_site_hle17_bader_spin_density
 _atom_site_hle17_ddec_charge
 _atom_site_hle17_ddec_spin_density
 _atom_site_hle17_ddec_sum_bond_order
 _atom_site_hle17_magmom
 _atom_site_hse06_10hf_bader_spin_density
 _atom_site_hse06_10hf_ddec_charge
 _atom_site_hse06_10hf_ddec_spin_density
 _atom_site_hse06_10hf_ddec_sum_bond_order
 _atom_site_hse06_10hf_magmom
 _atom_site_hse06_bader_spin_density
 _atom_site_hse06_ddec_charge
 _atom_site_hse06_ddec_spin_density
 _atom_site_hse06_ddec_sum_bond_order
 _atom_site_hse06_magmom
 _atom_site_pbe_bader_spin_density
 _atom_site_pbe_cm5_charge
 _atom_site_pbe_ddec_charge
 _atom_site_pbe_ddec_spin_density
 _atom_site_pbe_ddec_sum_bond_order
 _atom_site_pbe_magmom
Sr  Sr0  1  0.24452959  0.25717830  0.05153270  1  0  1.604996  0  1.094824  0  0  1.461545  0  1.459104  0  0  1.502147  0  1.412889  0  0  0.983803  1.43117  0  1.49272  0
Sr  Sr1  1  0.75547114  0.74282227  0.94846740  1  0  1.605014  0  1.094792  0  0  1.461555  0  1.459094  0  0  1.502148  0  1.412884  0  0  0.98381  1.431176  0  1.492712  0
H  H2  1  0.22144664  0.19596616  0.62426533  1  0  0.109785  0  0.945178  0  0  0.119916  0  1.006945  0  0  0.123756  0  1.003965  0  0  0.112009  0.117076  0  1.009274  0
H  H3  1  0.77855261  0.80403441  0.37573395  1  0  0.10979  0  0.945201  0  0  0.119925  0  1.006961  0  0  0.123765  0  1.003981  0  0  0.11201  0.117084  0  1.009293  0
H  H4  1  0.72843049  0.30150812  0.39345204  1  0  0.103439  0  0.954573  0  0  0.112333  0  1.018426  0  0  0.116582  0  1.014821  0  0  0.109594  0.10923  0  1.021063  0
H  H5  1  0.27156925  0.69849096  0.60654725  1  0  0.10343  0  0.9546  0  0  0.11233  0  1.018442  0  0  0.116579  0  1.014837  0  0  0.109599  0.109226  0  1.021079  0
H  H6  1  0.47901164  0.31205120  0.58303970  1  0  0.100738  0  0.971224  0  0  0.107637  0  1.039479  0  0  0.111012  0  1.037521  0  0  0.104525  0.10515  0  1.041065  0
H  H7  1  0.52098762  0.68794938  0.41696051  1  0  0.100704  0  0.971281  0  0  0.10761  0  1.039521  0  0  0.110986  0  1.037562  0  0  0.104515  0.105124  0  1.041108  0
H  H8  1  0.41581388  0.23459681  0.31725703  1  0  0.40826  0  0.88851  0  0  0.377475  0  0.963536  0  0  0.389992  0  0.947747  0  0  0.305189  0.368736  0  0.972273  0
H  H9  1  0.58418490  0.76540527  0.68274317  1  0  0.408244  0  0.888528  0  0  0.377459  0  0.963558  0  0  0.389976  0  0.947769  0  0  0.305182  0.36872  0  0.972295  0
H  H10  1  0.58103965  0.37678764  0.18535744  1  0  0.435608  0  0.86806  0  0  0.402069  0  0.935134  0  0  0.413732  0  0.918298  0  0  0.302732  0.393841  0  0.946988  0
H  H11  1  0.41896109  0.62321293  0.81464265  1  0  0.435616  0  0.868054  0  0  0.402077  0  0.93513  0  0  0.413741  0  0.918291  0  0  0.302732  0.393849  0  0.946983  0
H  H12  1  0.66757742  0.13155773  0.17704738  1  0  0.449967  0  0.843819  0  0  0.416362  0  0.910134  0  0  0.428236  0  0.892829  0  0  0.31017  0.407999  0  0.922306  0
H  H13  1  0.33242184  0.86844285  0.82295190  1  0  0.449974  0  0.843809  0  0  0.416371  0  0.91012  0  0  0.428245  0  0.892814  0  0  0.310167  0.408008  0  0.922292  0
C  C14  1  0.55919110  0.25994169  0.82425953  1  0  0.676605  0  3.901632  0  0  0.623647  0  4.200605  0  0  0.657651  0  4.191323  0  0  0.225677  0.600501  0  4.206069  0
C  C15  1  0.44080964  0.74005888  0.17574056  1  0  0.676627  0  3.901749  0  0  0.623712  0  4.200641  0  0  0.657719  0  4.191356  0  0  0.225763  0.600567  0  4.206105  0
C  C16  1  0.70942369  0.26283737  0.71113457  1  0  -0.051532  0  3.698638  0  0  -0.040945  0  3.935806  0  0  -0.042796  0  3.953239  0  0  0.00328  -0.039496  0  3.923941  0
C  C17  1  0.29057704  0.73716320  0.28886552  1  0  -0.05152  0  3.698683  0  0  -0.040945  0  3.935842  0  0  -0.042795  0  3.953274  0  0  0.003302  -0.039496  0  3.923979  0
C  C18  1  0.91997241  0.22991798  0.72234130  1  0  -0.062963  0  3.71245  0  0  -0.048143  0  3.951609  0  0  -0.053317  0  3.970306  0  0  0.002134  -0.044925  0  3.939344  0
C  C19  1  0.08002685  0.77008260  0.27765891  1  0  -0.062937  0  3.712468  0  0  -0.048109  0  3.951623  0  0  -0.053285  0  3.970325  0  0  0.002139  -0.044891  0  3.939359  0
C  C20  1  0.99656114  0.22011669  0.84762886  1  0  0.689308  0  3.903223  0  0  0.634879  0  4.204794  0  0  0.669356  0  4.195012  0  0  0.227268  0.61127  0  4.210968  0
C  C21  1  0.00343812  0.77988388  0.15237135  1  0  0.689294  0  3.903237  0  0  0.634867  0  4.204796  0  0  0.669343  0  4.195016  0  0  0.227265  0.611258  0  4.210971  0
C  C22  1  0.05872353  0.22187394  0.61526224  1  0  -0.06172  0  3.680084  0  0  -0.099201  0  3.932713  0  0  -0.097572  0  3.951006  0  0  -0.070039  -0.100301  0  3.920784  0
C  C23  1  0.94127668  0.77812364  0.38473705  1  0  -0.061757  0  3.680213  0  0  -0.099256  0  3.932846  0  0  -0.097627  0  3.951143  0  0  -0.07006  -0.100356  0  3.920917  0
C  C24  1  0.98919484  0.24991655  0.49690141  1  0  -0.087906  0  3.787529  0  0  -0.065845  0  4.026024  0  0  -0.075262  0  4.050866  0  0  -0.01768  -0.059747  0  4.009481  0
C  C25  1  0.01080537  0.75008102  0.50309788  1  0  -0.087908  0  3.787596  0  0  -0.065837  0  4.026057  0  0  -0.075261  0  4.050909  0  0  -0.017666  -0.059737  0  4.009511  0
C  C26  1  0.13273777  0.24830107  0.38172532  1  0  0.672558  0  3.821537  0  0  0.621261  0  4.119482  0  0  0.654713  0  4.111868  0  0  0.241765  0.598483  0  4.124156  0
C  C27  1  0.86726245  0.75169650  0.61827489  1  0  0.672546  0  3.821532  0  0  0.621284  0  4.119425  0  0  0.654739  0  4.111805  0  0  0.24176  0.598506  0  4.124097  0
C  C28  1  0.77989597  0.28183477  0.48608904  1  0  -0.039036  0  3.70051  0  0  -0.067522  0  3.954581  0  0  -0.065925  0  3.972671  0  0  -0.073519  -0.068119  0  3.942051  0
C  C29  1  0.22010377  0.71816431  0.51391024  1  0  -0.039043  0  3.70058  0  0  -0.06754  0  3.954661  0  0  -0.065941  0  3.972752  0  0  -0.073528  -0.068133  0  3.942124  0
C  C30  1  0.64117802  0.28845875  0.59257696  1  0  -0.076567  0  3.714306  0  0  -0.100653  0  3.97224  0  0  -0.102924  0  3.990875  0  0  -0.081858  -0.099259  0  3.959653  0
C  C31  1  0.35882124  0.71154183  0.40742232  1  0  -0.076504  0  3.714387  0  0  -0.100592  0  3.972312  0  0  -0.102863  0  3.990947  0  0  -0.081847  -0.099199  0  3.959727  0
O  O32  1  0.39302399  0.40777276  0.84365708  1  0  -0.666616  0  1.960241  0  0  -0.605048  0  2.18385  0  0  -0.630587  0  2.172788  0  0  -0.329474  -0.586909  0  2.190878  0
O  O33  1  0.60697674  0.59222780  0.15634301  1  0  -0.666647  0  1.960379  0  0  -0.60509  0  2.183965  0  0  -0.630631  0  2.172906  0  0  -0.329539  -0.586952  0  2.190995  0
O  O34  1  0.60051552  0.10762534  0.89590818  1  0  -0.720878  0  2.002549  0  0  -0.659934  0  2.254518  0  0  -0.687128  0  2.244125  0  0  -0.387495  -0.640537  0  2.261155  0
O  O35  1  0.39948520  0.89237523  0.10409098  1  0  -0.720889  0  2.002554  0  0  -0.659987  0  2.254542  0  0  -0.687169  0  2.244119  0  0  -0.387524  -0.640591  0  2.261182  0
O  O36  1  0.90697316  0.36463119  0.92344587  1  0  -0.738391  0  1.952618  0  0  -0.674447  0  2.195481  0  0  -0.701834  0  2.184445  0  0  -0.387288  -0.654925  0  2.202652  0
O  O37  1  0.09302610  0.63536938  0.07655433  1  0  -0.738378  0  1.952616  0  0  -0.674433  0  2.195475  0  0  -0.701824  0  2.184439  0  0  -0.387278  -0.654913  0  2.202647  0
O  O38  1  0.15298171  0.07543428  0.87301673  1  0  -0.676481  0  1.989089  0  0  -0.61534  0  2.220191  0  0  -0.641198  0  2.208877  0  0  -0.336621  -0.59711  0  2.227741  0
O  O39  1  0.84701902  0.92456629  0.12698336  1  0  -0.676475  0  1.9891  0  0  -0.615335  0  2.2202  0  0  -0.641193  0  2.208887  0  0  -0.336627  -0.597106  0  2.227752  0
O  O40  1  0.32504699  0.22768006  0.40157614  1  0  -0.558264  0  2.102651  0  0  -0.502737  0  2.322031  0  0  -0.526883  0  2.308788  0  0  -0.320662  -0.48585  0  2.329054  0
O  O41  1  0.67495227  0.77232051  0.59842406  1  0  -0.55824  0  2.102631  0  0  -0.502752  0  2.322032  0  0  -0.526897  0  2.308788  0  0  -0.320666  -0.485864  0  2.329052  0
O  O42  1  0.07364648  0.26648898  0.27597453  1  0  -0.628992  0  1.960584  0  0  -0.579426  0  2.196326  0  0  -0.601432  0  2.186802  0  0  -0.336366  -0.564133  0  2.202897  0
O  O43  1  0.92635425  0.73351159  0.72402463  1  0  -0.628993  0  1.96058  0  0  -0.579431  0  2.196305  0  0  -0.601436  0  2.186777  0  0  -0.336369  -0.564138  0  2.202875  0
O  O44  1  0.53983848  0.24999359  0.19484846  1  0  -0.881929  0  1.868398  0  0  -0.817877  0  2.053049  0  0  -0.840313  0  2.01938  0  0  -0.587145  -0.802138  0  2.076142  0
O  O45  1  0.46016226  0.75000698  0.80515163  1  0  -0.881939  0  1.868401  0  0  -0.817889  0  2.053055  0  0  -0.840324  0  2.019384  0  0  -0.587136  -0.802152  0  2.076147  0
