# generated using pymatgen
data_AgH10C9SN2O3
_symmetry_space_group_name_H-M   'P 1'
_cell_length_a   7.36803348
_cell_length_b   7.88103598
_cell_length_c   9.84585296
_cell_angle_alpha   110.38639489
_cell_angle_beta   93.11543133
_cell_angle_gamma   93.26825210
_symmetry_Int_Tables_number   1
_chemical_formula_structural   AgH10C9SN2O3
_chemical_formula_sum   'Ag2 H20 C18 S2 N4 O6'
_cell_volume   533.35977757
_cell_formula_units_Z   2
loop_
 _symmetry_equiv_pos_site_id
 _symmetry_equiv_pos_as_xyz
  1  'x, y, z'
loop_
 _atom_site_type_symbol
 _atom_site_label
 _atom_site_symmetry_multiplicity
 _atom_site_fract_x
 _atom_site_fract_y
 _atom_site_fract_z
 _atom_site_occupancy
 _atom_site_hle17_bader_spin_density
 _atom_site_hle17_ddec_charge
 _atom_site_hle17_ddec_spin_density
 _atom_site_hle17_ddec_sum_bond_order
 _atom_site_hle17_magmom
 _atom_site_hse06_10hf_bader_spin_density
 _atom_site_hse06_10hf_ddec_charge
 _atom_site_hse06_10hf_ddec_spin_density
 _atom_site_hse06_10hf_ddec_sum_bond_order
 _atom_site_hse06_10hf_magmom
 _atom_site_hse06_bader_spin_density
 _atom_site_hse06_ddec_charge
 _atom_site_hse06_ddec_spin_density
 _atom_site_hse06_ddec_sum_bond_order
 _atom_site_hse06_magmom
 _atom_site_pbe_bader_spin_density
 _atom_site_pbe_cm5_charge
 _atom_site_pbe_ddec_charge
 _atom_site_pbe_ddec_spin_density
 _atom_site_pbe_ddec_sum_bond_order
 _atom_site_pbe_magmom
Ag  Ag0  1  0.45211048  0.35469581  0.28650340  1  0  0.550344  0  1.395749  0  0  0.416454  0  1.830659  0  0  0.444735  0  1.787509  0  0  0.464506  0.396354  0  1.860782  0
Ag  Ag1  1  0.54789132  0.64530294  0.71349333  1  0  0.55035  0  1.395787  0  0  0.416449  0  1.830715  0  0  0.444732  0  1.787567  0  0  0.464524  0.396356  0  1.860834  0
H  H2  1  0.14964218  0.93058334  0.14893939  1  0  0.124538  0  0.946086  0  0  0.133891  0  1.003677  0  0  0.137805  0  1.001317  0  0  0.11228  0.131072  0  1.005519  0
H  H3  1  0.85035721  0.06941948  0.85106141  1  0  0.124603  0  0.946008  0  0  0.133945  0  1.003612  0  0  0.137863  0  1.001244  0  0  0.112287  0.131125  0  1.00546  0
H  H4  1  0.41119179  0.96387005  0.32978295  1  0  0.099837  0  0.965114  0  0  0.11146  0  1.022039  0  0  0.114071  0  1.021254  0  0  0.105095  0.109511  0  1.022786  0
H  H5  1  0.58881041  0.03613414  0.67021630  1  0  0.099855  0  0.96511  0  0  0.11149  0  1.022022  0  0  0.114104  0  1.021234  0  0  0.105089  0.109542  0  1.022769  0
H  H6  1  0.39983416  0.16161251  0.58883305  1  0  0.091583  0  0.967261  0  0  0.102787  0  1.027966  0  0  0.10572  0  1.026434  0  0  0.1024  0.100606  0  1.02935  0
H  H7  1  0.60017192  0.83838899  0.41116562  1  0  0.091562  0  0.967287  0  0  0.102762  0  1.028001  0  0  0.105692  0  1.026474  0  0  0.102362  0.100581  0  1.029385  0
H  H8  1  0.12734386  0.33324095  0.67102281  1  0  0.10767  0  0.929457  0  0  0.116366  0  0.992425  0  0  0.120533  0  0.989321  0  0  0.109666  0.113357  0  0.994785  0
H  H9  1  0.87266184  0.66675516  0.32897944  1  0  0.107652  0  0.929422  0  0  0.116367  0  0.99236  0  0  0.120534  0  0.989256  0  0  0.109653  0.113355  0  0.994716  0
H  H10  1  0.18682023  0.60320411  0.14701628  1  0  0.054501  0  0.932434  0  0  0.074103  0  0.994875  0  0  0.073847  0  0.995652  0  0  0.098873  0.074173  0  0.994475  0
H  H11  1  0.81317623  0.39679594  0.85297856  1  0  0.054561  0  0.932421  0  0  0.074165  0  0.994855  0  0  0.073913  0  0.995632  0  0  0.098902  0.074235  0  0.994459  0
H  H12  1  0.17413881  0.46904401  0.95918348  1  0  0.040282  0  0.92691  0  0  0.062439  0  0.987138  0  0  0.061745  0  0.98808  0  0  0.092801  0.062824  0  0.986572  0
H  H13  1  0.82585882  0.53095335  0.04081270  1  0  0.040213  0  0.926999  0  0  0.062354  0  0.98726  0  0  0.061661  0  0.988206  0  0  0.092779  0.06274  0  0.98669  0
H  H14  1  0.52124695  0.61047927  0.16375544  1  0  0.050532  0  0.953255  0  0  0.069727  0  1.02269  0  0  0.070308  0  1.021601  0  0  0.079361  0.069249  0  1.023627  0
H  H15  1  0.47874951  0.38952077  0.83623940  1  0  0.050541  0  0.953284  0  0  0.069762  0  1.022688  0  0  0.070344  0  1.021594  0  0  0.07939  0.069273  0  1.023638  0
H  H16  1  0.43922967  0.69253420  0.02776392  1  0  0.078444  0  0.950593  0  0  0.09515  0  1.015414  0  0  0.096291  0  1.015086  0  0  0.089885  0.094263  0  1.015697  0
H  H17  1  0.56076543  0.30746583  0.97223086  1  0  0.078342  0  0.950762  0  0  0.095023  0  1.015597  0  0  0.096157  0  1.015279  0  0  0.089865  0.094138  0  1.015871  0
H  H18  1  0.27456111  0.22492598  0.01851279  1  0  0.279754  0  0.958387  0  0  0.27233  0  1.011708  0  0  0.277491  0  1.009331  0  0  0.279109  0.268622  0  1.013425  0
H  H19  1  0.72543672  0.77507408  0.98148313  1  0  0.279683  0  0.958461  0  0  0.272278  0  1.011766  0  0  0.277438  0  1.009391  0  0  0.279109  0.268571  0  1.013474  0
H  H20  1  0.12092841  0.31013338  0.13271355  1  0  0.282437  0  0.936047  0  0  0.274198  0  0.990798  0  0  0.279022  0  0.988821  0  0  0.282543  0.270738  0  0.992237  0
H  H21  1  0.87906941  0.68986669  0.86728339  1  0  0.282401  0  0.936089  0  0  0.274162  0  0.990841  0  0  0.278986  0  0.988862  0  0  0.282547  0.270703  0  0.992281  0
C  C22  1  0.99559684  0.11319978  0.31260208  1  0  -0.133355  0  3.774487  0  0  -0.113823  0  4.018614  0  0  -0.119051  0  4.04024  0  0  -0.015929  -0.110434  0  4.004353  0
C  C23  1  0.00440343  0.88679630  0.68740299  1  0  -0.13337  0  3.774481  0  0  -0.113926  0  4.018648  0  0  -0.119161  0  4.040301  0  0  -0.015993  -0.110532  0  4.004389  0
C  C24  1  0.14398467  0.01511490  0.26281691  1  0  -0.057435  0  3.711034  0  0  -0.081642  0  3.961789  0  0  -0.0807  0  3.977794  0  0  -0.079691  -0.082407  0  3.951249  0
C  C25  1  0.85601599  0.98488659  0.73718560  1  0  -0.057512  0  3.711036  0  0  -0.081694  0  3.96179  0  0  -0.080749  0  3.977796  0  0  -0.079703  -0.082464  0  3.951255  0
C  C26  1  0.29045244  0.03513247  0.36570727  1  0  -0.063424  0  3.733993  0  0  -0.075127  0  3.986527  0  0  -0.076262  0  4.004676  0  0  -0.084447  -0.074111  0  3.974156  0
C  C27  1  0.70955083  0.96486767  0.63429295  1  0  -0.063432  0  3.734062  0  0  -0.075138  0  3.986577  0  0  -0.076275  0  4.004726  0  0  -0.084418  -0.07412  0  3.974211  0
C  C28  1  0.28381397  0.14702206  0.51128150  1  0  -0.061885  0  3.726503  0  0  -0.080829  0  3.987213  0  0  -0.081806  0  4.005577  0  0  -0.083046  -0.080115  0  3.974925  0
C  C29  1  0.71618784  0.85297670  0.48871726  1  0  -0.061803  0  3.726548  0  0  -0.080757  0  3.98729  0  0  -0.081732  0  4.005652  0  0  -0.083007  -0.080045  0  3.974998  0
C  C30  1  0.13184044  0.24363773  0.55853689  1  0  -0.044204  0  3.69127  0  0  -0.069091  0  3.94654  0  0  -0.06915  0  3.965213  0  0  -0.071889  -0.069141  0  3.933981  0
C  C31  1  0.86816129  0.75635971  0.44146658  1  0  -0.044231  0  3.691286  0  0  -0.069175  0  3.946519  0  0  -0.069232  0  3.965201  0  0  -0.071892  -0.069214  0  3.933948  0
C  C32  1  0.98715118  0.22668071  0.45659316  1  0  -0.053646  0  3.780988  0  0  -0.038527  0  4.00881  0  0  -0.044349  0  4.033246  0  0  -0.010253  -0.034623  0  3.992474  0
C  C33  1  0.01285045  0.77331538  0.54341299  1  0  -0.053673  0  3.781132  0  0  -0.03842  0  4.008773  0  0  -0.044253  0  4.03323  0  0  -0.010205  -0.03453  0  3.992455  0
C  C34  1  0.81560726  0.32310796  0.47828046  1  0  0.559646  0  3.888771  0  0  0.514852  0  4.171749  0  0  0.544752  0  4.173607  0  0  0.226707  0.494436  0  4.16999  0
C  C35  1  0.18439039  0.67688946  0.52172590  1  0  0.559622  0  3.888815  0  0  0.514843  0  4.171676  0  0  0.54475  0  4.173536  0  0  0.226694  0.494424  0  4.169921  0
C  C36  1  0.25348922  0.49859488  0.06435575  1  0  0.090339  0  3.653489  0  0  0.032548  0  3.914851  0  0  0.037139  0  3.929691  0  0  -0.078511  0.029473  0  3.904475  0
C  C37  1  0.74650724  0.50140517  0.93564011  1  0  0.090323  0  3.653531  0  0  0.032504  0  3.914949  0  0  0.037082  0  3.929797  0  0  -0.078544  0.029431  0  3.90457  0
C  C38  1  0.44713064  0.56916863  0.05506029  1  0  -0.140223  0  3.697351  0  0  -0.178875  0  3.952633  0  0  -0.180526  0  3.967938  0  0  -0.174959  -0.177542  0  3.941979  0
C  C39  1  0.55286466  0.43083412  0.94493525  1  0  -0.140117  0  3.697486  0  0  -0.178759  0  3.952784  0  0  -0.18042  0  3.968129  0  0  -0.174943  -0.177419  0  3.942136  0
S  S40  1  0.79569150  0.13274375  0.21353430  1  0  1.202056  0  5.441048  0  0  1.1119  0  5.951636  0  0  1.157291  0  5.935208  0  0  0.542685  1.08041  0  5.962116  0
S  S41  1  0.20431052  0.86725777  0.78647031  1  0  1.20223  0  5.441019  0  0  1.112059  0  5.951615  0  0  1.157452  0  5.935189  0  0  0.542805  1.080578  0  5.962085  0
N  N42  1  0.70897887  0.28205877  0.35115186  1  0  -0.695902  0  3.178727  0  0  -0.615976  0  3.511138  0  0  -0.647001  0  3.511218  0  0  -0.42534  -0.59426  0  3.510214  0
N  N43  1  0.29102159  0.71794000  0.64885092  1  0  -0.695925  0  3.178697  0  0  -0.615983  0  3.511062  0  0  -0.647013  0  3.511147  0  0  -0.425347  -0.594268  0  3.510134  0
N  N44  1  0.24960363  0.33569054  0.10635803  1  0  -0.620587  0  3.185914  0  0  -0.550271  0  3.432041  0  0  -0.572561  0  3.435178  0  0  -0.651901  -0.534417  0  3.429372  0
N  N45  1  0.75039838  0.66431092  0.89363945  1  0  -0.62049  0  3.185892  0  0  -0.550179  0  3.432008  0  0  -0.572465  0  3.435151  0  0  -0.651901  -0.534326  0  3.429332  0
O  O46  1  0.67868284  0.96393656  0.16120520  1  0  -0.599863  0  1.968513  0  0  -0.549192  0  2.213633  0  0  -0.570755  0  2.202389  0  0  -0.307393  -0.533787  0  2.220742  0
O  O47  1  0.32131781  0.03606491  0.83879426  1  0  -0.599889  0  1.968588  0  0  -0.549215  0  2.213706  0  0  -0.570775  0  2.202462  0  0  -0.307387  -0.533812  0  2.220814  0
O  O48  1  0.77880357  0.42821296  0.59898046  1  0  -0.541752  0  2.01793  0  0  -0.486493  0  2.274761  0  0  -0.50969  0  2.266527  0  0  -0.295096  -0.470474  0  2.280256  0
O  O49  1  0.22119377  0.57178037  0.40102171  1  0  -0.541742  0  2.017819  0  0  -0.486497  0  2.274612  0  0  -0.509692  0  2.266375  0  0  -0.295102  -0.47047  0  2.280101  0
O  O50  1  0.84283495  0.20901655  0.10357014  1  0  -0.59967  0  1.943976  0  0  -0.548349  0  2.184509  0  0  -0.568882  0  2.171919  0  0  -0.307459  -0.53377  0  2.192525  0
O  O51  1  0.15717417  0.79098910  0.89643690  1  0  -0.599769  0  1.94402  0  0  -0.548431  0  2.184553  0  0  -0.56896  0  2.171959  0  0  -0.307559  -0.533859  0  2.192572  0
