# generated using pymatgen
data_ZnH11C12NO5
_symmetry_space_group_name_H-M   'P 1'
_cell_length_a   8.88753569
_cell_length_b   8.92939728
_cell_length_c   13.63739691
_cell_angle_alpha   72.99103404
_cell_angle_beta   72.54956793
_cell_angle_gamma   80.30895563
_symmetry_Int_Tables_number   1
_chemical_formula_structural   ZnH11C12NO5
_chemical_formula_sum   'Zn2 H22 C24 N2 O10'
_cell_volume   983.43566903
_cell_formula_units_Z   2
loop_
 _symmetry_equiv_pos_site_id
 _symmetry_equiv_pos_as_xyz
  1  'x, y, z'
loop_
 _atom_site_type_symbol
 _atom_site_label
 _atom_site_symmetry_multiplicity
 _atom_site_fract_x
 _atom_site_fract_y
 _atom_site_fract_z
 _atom_site_occupancy
 _atom_site_pbe_bader_charge
 _atom_site_pbe_bader_spin_density
 _atom_site_pbe_cm5_charge
 _atom_site_pbe_ddec_charge
 _atom_site_pbe_ddec_spin_density
 _atom_site_pbe_ddec_sum_bond_order
 _atom_site_pbe_magmom
Zn  Zn0  1  0.49685492  0.84854581  0.85080151  1  1.293616  0  0.671066  0.823619  0  2.41399  0
Zn  Zn1  1  0.61956241  0.89639196  0.62442223  1  1.291412  0  0.671507  0.834507  0  2.389689  0
H  H2  1  0.13335449  0.73749830  0.38182881  1  0.094091  0  0.115398  0.128585  0  0.979625  0
H  H3  1  0.92294569  0.74969555  0.55068369  1  0.172474  0  0.129049  0.112968  0  0.978482  0
H  H4  1  0.45155711  0.03532964  0.01270034  1  0.111525  0  0.129995  0.105344  0  0.983105  0
H  H5  1  0.24231415  0.07076441  0.17674247  1  0.08093  0  0.113969  0.123937  0  0.990243  0
H  H6  1  0.02112440  0.68491621  0.16272438  1  0.09249  0  0.118657  0.130562  0  0.974166  0
H  H7  1  0.24280112  0.66345745  0.99982599  1  0.10562  0  0.129075  0.103597  0  0.977766  0
H  H8  1  0.90808651  0.12010925  0.11975302  1  0.037363  0  0.106129  0.053487  0  0.974554  0
H  H9  1  0.70997294  0.28478090  0.21691808  1  0.022948  0  0.097031  0.034537  0  0.96181  0
H  H10  1  0.49640352  0.02236744  0.26613466  1  0.026657  0  0.092731  0.095959  0  0.992813  0
H  H11  1  0.42341108  0.20992476  0.29047657  1  0.028421  0  0.094735  0.095853  0  0.988862  0
H  H12  1  0.58028350  0.17850933  0.41475495  1  0.06807  0  0.10688  0.122712  0  0.958787  0
H  H13  1  0.48491984  0.00629566  0.45314629  1  0.105733  0  0.107796  0.135179  0  1.001059  0
H  H14  1  0.74238686  0.08288646  0.98956134  1  0.07992  0  0.093765  0.098874  0  1.025445  0
H  H15  1  0.77788676  0.87413383  0.00835347  1  0.086194  0  0.097641  0.11559  0  1.012143  0
H  H16  1  0.93603812  0.98790573  0.99230024  1  0.019493  0  0.086626  0.082784  0  1.015431  0
H  H17  1  0.56729966  0.48553121  0.12338246  1  0.027887  0  0.088743  0.082122  0  0.996181  0
H  H18  1  0.40382083  0.37850432  0.13992137  1  0.013459  0  0.079479  0.063048  0  1.025718  0
H  H19  1  0.52607905  0.45780457  0.00933496  1  0.128454  0  0.10095  0.122243  0  1.028357  0
H  H20  1  0.10022553  0.92403036  0.61749942  1  0.087955  0  0.107779  0.125345  0  0.994909  0
H  H21  1  0.01329984  0.81454869  0.86232039  1  0.105952  0  0.106717  0.120963  0  1.00991  0
H  H22  1  0.52267600  0.32478329  0.86023369  1  0.091286  0  0.10739  0.124429  0  1.000781  0
H  H23  1  0.59966443  0.41657387  0.61545747  1  0.093551  0  0.108363  0.12859  0  0.985305  0
C  C24  1  0.73296635  0.98071716  0.38067393  1  0.490734  0  0.136734  0.246106  0  3.877835  0
C  C25  1  0.84359644  0.97992654  0.28220874  1  0.04794  0  -0.00349  -0.081318  0  3.871512  0
C  C26  1  0.99026136  0.89117025  0.28226687  1  -0.103444  0  0.017756  0.074911  0  3.971943  0
C  C27  1  0.02100389  0.80741523  0.37929036  1  0.032739  0  -0.087514  -0.195545  0  3.983359  0
C  C28  1  0.90544756  0.81326290  0.47298601  1  0.432274  0  0.059891  0.119168  0  3.93683  0
C  C29  1  0.35494266  0.95933720  0.04948409  1  0.513719  0  0.064125  0.114944  0  3.908033  0
C  C30  1  0.23748936  0.97892139  0.14011220  1  0.007218  0  -0.077377  -0.184167  0  3.944238  0
C  C31  1  0.11446288  0.87974826  0.18290379  1  -0.070834  0  0.020435  0.116313  0  3.983644  0
C  C32  1  0.11556865  0.76326904  0.13260250  1  0.022849  0  -0.072846  -0.169039  0  3.936463  0
C  C33  1  0.23723943  0.75097566  0.04260407  1  0.5169  0  0.059719  0.103377  0  3.92373  0
C  C34  1  0.80333148  0.06477993  0.17795505  1  0.486403  0  0.004965  0.08288  0  3.891505  0
C  C35  1  0.66667208  0.19360600  0.19373859  1  0.485607  0  -0.003884  0.113757  0  3.901712  0
C  C36  1  0.52761068  0.12393577  0.28390788  1  -0.02038  0  -0.170297  -0.210582  0  3.95753  0
C  C37  1  0.57460199  0.07413627  0.38848136  1  -0.031229  0  -0.157314  -0.234554  0  3.942803  0
C  C38  1  0.80780785  0.97588095  0.02594150  1  0.355469  0  -0.157367  -0.191437  0  3.939799  0
C  C39  1  0.52609126  0.40283024  0.09250326  1  0.361762  0  -0.151265  -0.174395  0  3.962372  0
C  C40  1  0.27963914  0.89294221  0.70593904  1  1.560745  0  0.210718  0.63435  0  4.175909  0
C  C41  1  0.11722919  0.89198833  0.69725725  1  -0.080599  0  -0.080692  -0.165625  0  3.889743  0
C  C42  1  0.99587108  0.84844132  0.78269848  1  0.003296  0  -0.083995  -0.174657  0  3.89141  0
C  C43  1  0.83361434  0.84714369  0.77380297  1  1.564106  0  0.209752  0.629763  0  4.175488  0
C  C44  1  0.56228542  0.56957265  0.76785066  1  1.567303  0  0.210587  0.63117  0  4.173751  0
C  C45  1  0.55301691  0.40041581  0.77949027  1  -0.111687  0  -0.081714  -0.169454  0  3.891542  0
C  C46  1  0.57186309  0.34138934  0.69638171  1  0.063431  0  -0.082089  -0.17186  0  3.88648  0
C  C47  1  0.55741561  0.17263715  0.70948351  1  1.55426  0  0.209195  0.634399  0  4.171408  0
N  N48  1  0.76554346  0.89846456  0.47352440  1  -1.236208  0  -0.316895  -0.253581  0  3.477387  0
N  N49  1  0.35472164  0.84731773  0.00172444  1  -1.257255  0  -0.318167  -0.205159  0  3.514877  0
O  O50  1  0.76542452  0.94582644  0.13987619  1  -1.028811  0  -0.237081  -0.224104  0  2.464822  0
O  O51  1  0.63018751  0.26236168  0.09434070  1  -1.051108  0  -0.232823  -0.208851  0  2.500522  0
O  O52  1  0.39172698  0.88924352  0.62170470  1  -1.162104  0  -0.319285  -0.549598  0  2.296094  0
O  O53  1  0.29522722  0.89584555  0.79488324  1  -1.164976  0  -0.319539  -0.56328  0  2.328083  0
O  O54  1  0.81277241  0.89195754  0.68093446  1  -1.17569  0  -0.316731  -0.567754  0  2.368723  0
O  O55  1  0.72703928  0.80362618  0.86070111  1  -1.160595  0  -0.317969  -0.54205  0  2.268959  0
O  O56  1  0.63438075  0.65228216  0.67814424  1  -1.176158  0  -0.318637  -0.557968  0  2.313458  0
O  O57  1  0.49311341  0.61840103  0.85121079  1  -1.1677  0  -0.316495  -0.556477  0  2.315079  0
O  O58  1  0.57700395  0.13096624  0.62420304  1  -1.158819  0  -0.322917  -0.554169  0  2.269072  0
O  O59  1  0.52889342  0.08335039  0.80373836  1  -1.174662  0  -0.318961  -0.560349  0  2.336821  0
