# generated using pymatgen
data_AgH25C30(NO)4
_symmetry_space_group_name_H-M   'P 1'
_cell_length_a   8.42263455
_cell_length_b   12.00320842
_cell_length_c   14.21082429
_cell_angle_alpha   80.55549977
_cell_angle_beta   80.05208269
_cell_angle_gamma   70.71747157
_symmetry_Int_Tables_number   1
_chemical_formula_structural   AgH25C30(NO)4
_chemical_formula_sum   'Ag2 H50 C60 N8 O8'
_cell_volume   1326.82708294
_cell_formula_units_Z   2
loop_
 _symmetry_equiv_pos_site_id
 _symmetry_equiv_pos_as_xyz
  1  'x, y, z'
loop_
 _atom_site_type_symbol
 _atom_site_label
 _atom_site_symmetry_multiplicity
 _atom_site_fract_x
 _atom_site_fract_y
 _atom_site_fract_z
 _atom_site_occupancy
 _atom_site_hle17_bader_spin_density
 _atom_site_hle17_ddec_charge
 _atom_site_hle17_ddec_spin_density
 _atom_site_hle17_ddec_sum_bond_order
 _atom_site_hle17_magmom
 _atom_site_hse06_10hf_bader_spin_density
 _atom_site_hse06_10hf_ddec_charge
 _atom_site_hse06_10hf_ddec_spin_density
 _atom_site_hse06_10hf_ddec_sum_bond_order
 _atom_site_hse06_10hf_magmom
 _atom_site_hse06_bader_spin_density
 _atom_site_hse06_ddec_charge
 _atom_site_hse06_ddec_spin_density
 _atom_site_hse06_ddec_sum_bond_order
 _atom_site_hse06_magmom
 _atom_site_pbe_bader_spin_density
 _atom_site_pbe_cm5_charge
 _atom_site_pbe_ddec_charge
 _atom_site_pbe_ddec_spin_density
 _atom_site_pbe_ddec_sum_bond_order
 _atom_site_pbe_magmom
Ag  Ag0  1  0.95408487  0.24374324  0.23511955  1  0  0.53524  0  1.448858  0  0  0.387899  0  1.898706  0  0  0.419106  0  1.852173  0  0  0.463228  0.366268  0  1.930704  0
Ag  Ag1  1  0.04591642  0.75625701  0.76488049  1  0  0.535267  0  1.448861  0  0  0.387908  0  1.89874  0  0  0.419115  0  1.852207  0  0  0.463221  0.366277  0  1.93074  0
H  H2  1  0.24103635  0.34421171  0.10030351  1  0  0.093275  0  0.953854  0  0  0.103956  0  1.019504  0  0  0.105818  0  1.017105  0  0  0.137305  0.102562  0  1.0212  0
H  H3  1  0.75896334  0.65578946  0.89969306  1  0  0.093288  0  0.953921  0  0  0.103967  0  1.019577  0  0  0.105828  0  1.017178  0  0  0.137324  0.102572  0  1.021273  0
H  H4  1  0.94437359  0.78884190  0.06318306  1  0  0.127319  0  0.95181  0  0  0.136945  0  1.011708  0  0  0.140143  0  1.010203  0  0  0.109668  0.134616  0  1.012905  0
H  H5  1  0.05561888  0.21116188  0.93682092  1  0  0.127398  0  0.951725  0  0  0.137001  0  1.011652  0  0  0.140201  0  1.010145  0  0  0.109702  0.134663  0  1.012858  0
H  H6  1  0.64521639  0.86193130  0.14098646  1  0  0.082615  0  0.999137  0  0  0.093057  0  1.061069  0  0  0.094096  0  1.063256  0  0  0.093606  0.092278  0  1.05963  0
H  H7  1  0.35477164  0.13806897  0.85901281  1  0  0.082593  0  0.999189  0  0  0.093015  0  1.061126  0  0  0.094053  0  1.063315  0  0  0.093559  0.092234  0  1.059691  0
H  H8  1  0.49047918  0.72400872  0.22312132  1  0  0.087651  0  0.968187  0  0  0.098214  0  1.028872  0  0  0.100453  0  1.029226  0  0  0.093554  0.096612  0  1.028702  0
H  H9  1  0.50951125  0.27598890  0.77687595  1  0  0.087682  0  0.968206  0  0  0.098192  0  1.028934  0  0  0.10043  0  1.029288  0  0  0.093568  0.096588  0  1.028756  0
H  H10  1  0.63360486  0.50294823  0.23655945  1  0  0.109576  0  0.951486  0  0  0.122063  0  1.008119  0  0  0.12485  0  1.006676  0  0  0.104506  0.119967  0  1.009344  0
H  H11  1  0.36639481  0.49705026  0.76343888  1  0  0.109645  0  0.951495  0  0  0.122128  0  1.008132  0  0  0.124916  0  1.006687  0  0  0.10454  0.120029  0  1.009362  0
H  H12  1  0.26880414  0.64535751  0.07261645  1  0  0.074608  0  0.902293  0  0  0.094726  0  0.957216  0  0  0.094598  0  0.95794  0  0  0.113308  0.094731  0  0.95681  0
H  H13  1  0.73119875  0.35464187  0.92738284  1  0  0.074609  0  0.902242  0  0  0.094731  0  0.957175  0  0  0.094603  0  0.9579  0  0  0.1133  0.09473  0  0.956762  0
H  H14  1  0.22844340  0.61936247  0.96117065  1  0  0.085037  0  0.930582  0  0  0.09639  0  0.999872  0  0  0.096962  0  0.999951  0  0  0.110083  0.095834  0  1.000048  0
H  H15  1  0.77155708  0.38063690  0.03882959  1  0  0.085015  0  0.93057  0  0  0.096373  0  0.999877  0  0  0.096945  0  0.999956  0  0  0.110086  0.09581  0  1.000057  0
H  H16  1  0.41886018  0.40806870  0.98558755  1  0  0.070164  0  0.944178  0  0  0.087427  0  1.006859  0  0  0.087397  0  1.009182  0  0  0.093409  0.087387  0  1.0053  0
H  H17  1  0.58113870  0.59193157  0.01441133  1  0  0.070193  0  0.944161  0  0  0.087453  0  1.00683  0  0  0.087423  0  1.009152  0  0  0.09342  0.08741  0  1.005277  0
H  H18  1  0.45728504  0.43339777  0.09799895  1  0  0.077608  0  0.935543  0  0  0.096159  0  0.994352  0  0  0.096866  0  0.995049  0  0  0.095265  0.095551  0  0.99399  0
H  H19  1  0.54271424  0.56660160  0.90200000  1  0  0.077605  0  0.935528  0  0  0.096159  0  0.994326  0  0  0.096867  0  0.995021  0  0  0.095265  0.095551  0  0.993963  0
H  H20  1  0.17946461  0.96973860  0.02871457  1  0  0.118518  0  0.955005  0  0  0.125661  0  1.021154  0  0  0.129783  0  1.017862  0  0  0.106851  0.122697  0  1.023501  0
H  H21  1  0.82054108  0.03025989  0.97128386  1  0  0.118514  0  0.955028  0  0  0.125656  0  1.021176  0  0  0.12978  0  1.017874  0  0  0.106856  0.122689  0  1.023514  0
H  H22  1  0.23757827  0.07991154  0.14523529  1  0  0.090196  0  0.985745  0  0  0.095621  0  1.061962  0  0  0.099443  0  1.058695  0  0  0.093307  0.092822  0  1.064479  0
H  H23  1  0.76242782  0.92008608  0.85476110  1  0  0.090151  0  0.985821  0  0  0.095609  0  1.062009  0  0  0.099434  0  1.05874  0  0  0.093287  0.092809  0  1.064523  0
H  H24  1  0.43138587  0.16149246  0.20266826  1  0  0.094146  0  0.989162  0  0  0.103018  0  1.056499  0  0  0.106581  0  1.0538  0  0  0.098504  0.100406  0  1.058552  0
H  H25  1  0.56861742  0.83850605  0.79732830  1  0  0.094174  0  0.98901  0  0  0.102979  0  1.056444  0  0  0.10654  0  1.053749  0  0  0.098498  0.100364  0  1.058495  0
H  H26  1  0.12655022  0.18670160  0.43908597  1  0  0.091856  0  0.936938  0  0  0.1039  0  1.000994  0  0  0.105462  0  0.998996  0  0  0.136901  0.102693  0  1.002443  0
H  H27  1  0.87344747  0.81330130  0.56091760  1  0  0.091843  0  0.936912  0  0  0.103873  0  1.00099  0  0  0.105439  0  0.998979  0  0  0.136891  0.102672  0  1.002427  0
H  H28  1  0.00910671  0.96749427  0.20154079  1  0  0.118169  0  0.965254  0  0  0.129033  0  1.023735  0  0  0.131887  0  1.022403  0  0  0.106677  0.126931  0  1.024814  0
H  H29  1  0.99089177  0.03250686  0.79846154  1  0  0.1182  0  0.965314  0  0  0.129064  0  1.023785  0  0  0.131917  0  1.022456  0  0  0.106679  0.126955  0  1.024861  0
H  H30  1  0.08057233  0.74586152  0.23286656  1  0  0.085185  0  0.973524  0  0  0.095387  0  1.035408  0  0  0.097942  0  1.034931  0  0  0.093697  0.093522  0  1.035856  0
H  H31  1  0.91942817  0.25414050  0.76713544  1  0  0.085228  0  0.97351  0  0  0.095428  0  1.0354  0  0  0.097983  0  1.034924  0  0  0.093715  0.093564  0  1.035838  0
H  H32  1  0.21966774  0.63453625  0.37452897  1  0  0.080963  0  0.99462  0  0  0.091991  0  1.055691  0  0  0.092898  0  1.057988  0  0  0.09122  0.091295  0  1.054211  0
H  H33  1  0.78032995  0.36546665  0.62547320  1  0  0.080935  0  0.99455  0  0  0.091952  0  1.05564  0  0  0.092859  0  1.057937  0  0  0.091201  0.091255  0  1.05416  0
H  H34  1  0.28998742  0.73786326  0.49251270  1  0  0.12046  0  0.992095  0  0  0.128574  0  1.057702  0  0  0.131953  0  1.055807  0  0  0.103433  0.126119  0  1.059174  0
H  H35  1  0.71001106  0.26213787  0.50748891  1  0  0.120401  0  0.992181  0  0  0.128545  0  1.057748  0  0  0.131924  0  1.055856  0  0  0.103417  0.126092  0  1.059222  0
H  H36  1  0.25016641  0.89961864  0.59632468  1  0  0.091101  0  0.929415  0  0  0.102066  0  0.99922  0  0  0.103255  0  0.998439  0  0  0.113435  0.101064  0  0.999973  0
H  H37  1  0.74983369  0.10038426  0.40367724  1  0  0.091131  0  0.929339  0  0  0.102057  0  0.999228  0  0  0.103245  0  0.998444  0  0  0.113432  0.101059  0  0.999983  0
H  H38  1  0.22349795  0.05336672  0.58853425  1  0  0.076305  0  0.916518  0  0  0.095936  0  0.972011  0  0  0.096145  0  0.972963  0  0  0.114036  0.095704  0  0.971418  0
H  H39  1  0.77650094  0.94663619  0.41146709  1  0  0.076298  0  0.916401  0  0  0.095932  0  0.971921  0  0  0.096142  0  0.972872  0  0  0.114034  0.095706  0  0.97133  0
H  H40  1  0.52903183  0.86824594  0.49113522  1  0  0.072497  0  0.924226  0  0  0.093847  0  0.980515  0  0  0.093924  0  0.982033  0  0  0.094422  0.093671  0  0.979598  0
H  H41  1  0.47096667  0.13175787  0.50886463  1  0  0.072499  0  0.924194  0  0  0.09381  0  0.980489  0  0  0.093888  0  0.982008  0  0  0.094425  0.093637  0  0.979568  0
H  H42  1  0.52320322  0.92557571  0.59897417  1  0  0.078013  0  0.931172  0  0  0.099356  0  0.98598  0  0  0.099649  0  0.986955  0  0  0.097031  0.099055  0  0.985372  0
H  H43  1  0.47680048  0.07442455  0.40102634  1  0  0.078045  0  0.931191  0  0  0.09936  0  0.985981  0  0  0.099655  0  0.986957  0  0  0.097032  0.099059  0  0.985373  0
H  H44  1  0.54549606  0.26915295  0.24081833  1  0  0.40316  0  0.913159  0  0  0.367595  0  0.992217  0  0  0.381445  0  0.972854  0  0  0.291553  0.357918  0  1.005702  0
H  H45  1  0.45450315  0.73083840  0.75918592  1  0  0.403178  0  0.91303  0  0  0.367638  0  0.992138  0  0  0.381491  0  0.972768  0  0  0.291554  0.357955  0  1.005637  0
H  H46  1  0.87292526  0.60635247  0.66924838  1  0  0.102702  0  0.967578  0  0  0.104066  0  1.047872  0  0  0.108267  0  1.044142  0  0  0.100499  0.101008  0  1.050593  0
H  H47  1  0.12707842  0.39364514  0.33074966  1  0  0.102709  0  0.967449  0  0  0.104072  0  1.04776  0  0  0.108276  0  1.044033  0  0  0.100522  0.101018  0  1.050479  0
H  H48  1  0.18660053  0.52965204  0.63296068  1  0  0.099612  0  0.970901  0  0  0.106627  0  1.039875  0  0  0.109856  0  1.038001  0  0  0.100773  0.104295  0  1.041315  0
H  H49  1  0.81340599  0.47035002  0.36703648  1  0  0.099648  0  0.970913  0  0  0.106663  0  1.039883  0  0  0.109892  0  1.038009  0  0  0.100791  0.104327  0  1.041322  0
H  H50  1  0.44167350  0.42425550  0.52795354  1  0  0.101216  0  0.959941  0  0  0.110095  0  1.024174  0  0  0.113201  0  1.022743  0  0  0.105396  0.107878  0  1.025238  0
H  H51  1  0.55832899  0.57574478  0.47204427  1  0  0.101206  0  0.959987  0  0  0.110088  0  1.024216  0  0  0.113194  0  1.022785  0  0  0.105409  0.107866  0  1.025284  0
C  C52  1  0.12759519  0.41878130  0.11286671  1  0  0.197515  0  3.674813  0  0  0.132506  0  3.944374  0  0  0.15008  0  3.955421  0  0  0.154218  0.121022  0  3.936529  0
C  C53  1  0.87240250  0.58122163  0.88713264  1  0  0.197472  0  3.674966  0  0  0.132461  0  3.944526  0  0  0.150036  0  3.955573  0  0  0.154175  0.120973  0  3.936687  0
C  C54  1  0.95682911  0.60429825  0.11221693  1  0  0.093153  0  3.78526  0  0  0.082599  0  4.028584  0  0  0.086039  0  4.051899  0  0  0.088491  0.08028  0  4.012892  0
C  C55  1  0.04316736  0.39570200  0.88778500  1  0  0.093171  0  3.785319  0  0  0.082618  0  4.028665  0  0  0.086056  0  4.051982  0  0  0.088451  0.080294  0  4.012977  0
C  C56  1  0.87894371  0.72727711  0.10278595  1  0  -0.153927  0  3.749664  0  0  -0.171354  0  4.001839  0  0  -0.174853  0  4.022122  0  0  -0.095584  -0.168946  0  3.988152  0
C  C57  1  0.12105517  0.27272313  0.89721574  1  0  -0.154035  0  3.749828  0  0  -0.171442  0  4.002003  0  0  -0.17494  0  4.022285  0  0  -0.095628  -0.169028  0  3.988316  0
C  C58  1  0.71075038  0.76691989  0.14493833  1  0  -0.067587  0  3.784199  0  0  -0.081394  0  4.030576  0  0  -0.083525  0  4.054617  0  0  -0.097563  -0.079906  0  4.014249  0
C  C59  1  0.28924447  0.23307862  0.85505907  1  0  -0.067571  0  3.784438  0  0  -0.081353  0  4.030799  0  0  -0.083484  0  4.054838  0  0  -0.097533  -0.079865  0  4.014472  0
C  C60  1  0.62221829  0.68792285  0.19201624  1  0  -0.084113  0  3.792387  0  0  -0.096786  0  4.038783  0  0  -0.099202  0  4.060963  0  0  -0.101424  -0.095087  0  4.023668  0
C  C61  1  0.37777856  0.31207387  0.80798190  1  0  -0.084112  0  3.792388  0  0  -0.096738  0  4.038794  0  0  -0.099151  0  4.060971  0  0  -0.101436  -0.09504  0  4.023674  0
C  C62  1  0.69964402  0.56532058  0.19969627  1  0  -0.14651  0  3.75602  0  0  -0.160512  0  4.001341  0  0  -0.16323  0  4.021677  0  0  -0.095713  -0.158573  0  3.987622  0
C  C63  1  0.30035285  0.43467881  0.80030152  1  0  -0.146647  0  3.755927  0  0  -0.160628  0  4.001238  0  0  -0.163347  0  4.021572  0  0  -0.095769  -0.15869  0  3.987522  0
C  C64  1  0.86957797  0.52394276  0.15992169  1  0  0.135081  0  3.846544  0  0  0.130689  0  4.093495  0  0  0.133537  0  4.118558  0  0  0.079304  0.128704  0  4.076555  0
C  C65  1  0.13041689  0.47605837  0.84007958  1  0  0.135208  0  3.84639  0  0  0.13078  0  4.093399  0  0  0.133628  0  4.118465  0  0  0.079401  0.128794  0  4.07646  0
C  C66  1  0.26044044  0.57634390  0.03296616  1  0  0.017619  0  3.614455  0  0  -0.043129  0  3.872513  0  0  -0.038359  0  3.884012  0  0  -0.048024  -0.046229  0  3.864615  0
C  C67  1  0.73955843  0.42365636  0.96703412  1  0  0.017743  0  3.614315  0  0  -0.043043  0  3.872398  0  0  -0.038273  0  3.883897  0  0  -0.04798  -0.046115  0  3.864469  0
C  C68  1  0.42830267  0.47635609  0.02561462  1  0  -0.129673  0  3.692396  0  0  -0.169886  0  3.952224  0  0  -0.171549  0  3.966478  0  0  -0.161812  -0.168562  0  3.942337  0
C  C69  1  0.57169539  0.52364328  0.97438517  1  0  -0.129762  0  3.692368  0  0  -0.169943  0  3.952182  0  0  -0.171605  0  3.966436  0  0  -0.161852  -0.168622  0  3.942293  0
C  C70  1  0.30810581  0.95743200  0.99220297  1  0  -0.10232  0  3.674539  0  0  -0.131312  0  3.916201  0  0  -0.130751  0  3.933615  0  0  -0.075938  -0.131406  0  3.904278  0
C  C71  1  0.69190108  0.04256650  0.00779463  1  0  -0.102437  0  3.674639  0  0  -0.131441  0  3.916314  0  0  -0.130879  0  3.933729  0  0  -0.076025  -0.131527  0  3.904375  0
C  C72  1  0.41658958  0.00652680  0.02535416  1  0  0.05573  0  3.79355  0  0  0.073261  0  4.016478  0  0  0.073068  0  4.039742  0  0  -0.004683  0.073375  0  4.000634  0
C  C73  1  0.58341371  0.99347170  0.97464380  1  0  0.055741  0  3.793508  0  0  0.07324  0  4.01648  0  0  0.073045  0  4.039746  0  0  -0.004657  0.073359  0  4.000622  0
C  C74  1  0.36504042  0.06913002  0.10744728  1  0  -0.107501  0  3.74391  0  0  -0.124779  0  3.991869  0  0  -0.127894  0  4.012858  0  0  -0.08973  -0.122616  0  3.977638  0
C  C75  1  0.63496488  0.93086938  0.89254825  1  0  -0.107534  0  3.74401  0  0  -0.124818  0  3.991926  0  0  -0.127935  0  4.012916  0  0  -0.089709  -0.122649  0  3.977677  0
C  C76  1  0.47334423  0.11567653  0.13852339  1  0  -0.10149  0  3.769034  0  0  -0.124974  0  4.018133  0  0  -0.125578  0  4.038416  0  0  -0.09997  -0.124418  0  4.004376  0
C  C77  1  0.52665945  0.88432108  0.86147465  1  0  -0.101471  0  3.768961  0  0  -0.12491  0  4.018132  0  0  -0.125511  0  4.038414  0  0  -0.100014  -0.12435  0  4.004362  0
C  C78  1  0.63899665  0.10289788  0.08842406  1  0  -0.071828  0  3.779002  0  0  -0.049205  0  4.013424  0  0  -0.056464  0  4.036115  0  0  -0.026312  -0.044505  0  3.998036  0
C  C79  1  0.36100583  0.89709973  0.91157410  1  0  -0.071829  0  3.779036  0  0  -0.049253  0  4.01348  0  0  -0.056513  0  4.03617  0  0  -0.026333  -0.044549  0  3.998088  0
C  C80  1  0.76105134  0.15087301  0.12155952  1  0  0.63047  0  3.931352  0  0  0.581974  0  4.219585  0  0  0.615558  0  4.213016  0  0  0.196266  0.559248  0  4.223189  0
C  C81  1  0.23895152  0.84912369  0.87844154  1  0  0.63022  0  3.931533  0  0  0.581786  0  4.219708  0  0  0.615371  0  4.213142  0  0  0.196139  0.559061  0  4.223303  0
C  C82  1  0.13352753  0.10438746  0.41381058  1  0  0.19206  0  3.681617  0  0  0.126859  0  3.954341  0  0  0.144413  0  3.965441  0  0  0.155107  0.115388  0  3.946418  0
C  C83  1  0.86647176  0.89561456  0.58619084  1  0  0.1922  0  3.681585  0  0  0.127  0  3.954295  0  0  0.144557  0  3.965396  0  0  0.155185  0.115524  0  3.946389  0
C  C84  1  0.10854498  0.97590251  0.33040721  1  0  0.133307  0  3.837389  0  0  0.129827  0  4.082718  0  0  0.132622  0  4.107585  0  0  0.080482  0.12788  0  4.065907  0
C  C85  1  0.89145149  0.02409773  0.66959543  1  0  0.133322  0  3.837445  0  0  0.129906  0  4.082717  0  0  0.132702  0  4.107583  0  0  0.080495  0.12796  0  4.065895  0
C  C86  1  0.06992799  0.91749914  0.26402647  1  0  -0.140665  0  3.737785  0  0  -0.157709  0  3.983368  0  0  -0.160355  0  4.00374  0  0  -0.092715  -0.155839  0  3.969578  0
C  C87  1  0.93007049  0.08250197  0.73597726  1  0  -0.140721  0  3.737987  0  0  -0.157779  0  3.983549  0  0  -0.160425  0  4.003923  0  0  -0.092722  -0.155903  0  3.969747  0
C  C88  1  0.11170948  0.79427101  0.28191804  1  0  -0.089106  0  3.803546  0  0  -0.102582  0  4.052746  0  0  -0.104977  0  4.074539  0  0  -0.103109  -0.100884  0  4.037945  0
C  C89  1  0.88828740  0.20573101  0.71808362  1  0  -0.089192  0  3.803666  0  0  -0.102673  0  4.052873  0  0  -0.105068  0  4.074665  0  0  -0.103146  -0.100981  0  4.038063  0
C  C90  1  0.19052680  0.73072288  0.36297348  1  0  -0.076266  0  3.801263  0  0  -0.088234  0  4.047953  0  0  -0.090323  0  4.072077  0  0  -0.101912  -0.086762  0  4.031565  0
C  C91  1  0.80947489  0.26927647  0.63702805  1  0  -0.076181  0  3.801122  0  0  -0.088129  0  4.047813  0  0  -0.090218  0  4.071935  0  0  -0.101901  -0.086663  0  4.031436  0
C  C92  1  0.23106550  0.78744715  0.42932357  1  0  -0.166005  0  3.763757  0  0  -0.18441  0  4.014823  0  0  -0.188545  0  4.035736  0  0  -0.10268  -0.181533  0  4.000691  0
C  C93  1  0.76893217  0.21255308  0.57067965  1  0  -0.165998  0  3.763854  0  0  -0.184413  0  4.014936  0  0  -0.188547  0  4.03585  0  0  -0.102641  -0.181548  0  4.000821  0
C  C94  1  0.18838996  0.91109881  0.41134983  1  0  0.098154  0  3.779503  0  0  0.088398  0  4.020271  0  0  0.09213  0  4.043339  0  0  0.087957  0.085871  0  4.004738  0
C  C95  1  0.81160973  0.08890233  0.58865167  1  0  0.098318  0  3.779501  0  0  0.088492  0  4.020323  0  0  0.092224  0  4.04339  0  0  0.087936  0.085966  0  4.004791  0
C  C96  1  0.28190560  0.97416188  0.55034233  1  0  0.009472  0  3.613946  0  0  -0.052152  0  3.87264  0  0  -0.047779  0  3.883901  0  0  -0.049854  -0.054941  0  3.864916  0
C  C97  1  0.71809330  0.02584103  0.44965901  1  0  0.009573  0  3.613806  0  0  -0.052128  0  3.872601  0  0  -0.047749  0  3.883863  0  0  -0.049867  -0.054922  0  3.864889  0
C  C98  1  0.47382725  0.94811220  0.52911358  1  0  -0.12875  0  3.685457  0  0  -0.172077  0  3.951511  0  0  -0.17325  0  3.965369  0  0  -0.164804  -0.171087  0  3.941864  0
C  C99  1  0.52617285  0.05189071  0.47088764  1  0  -0.128964  0  3.685472  0  0  -0.172106  0  3.951422  0  0  -0.173295  0  3.965292  0  0  -0.164844  -0.171113  0  3.941774  0
C  C100  1  0.86081983  0.57795044  0.60242906  1  0  -0.113944  0  3.697099  0  0  -0.14299  0  3.944689  0  0  -0.142359  0  3.96171  0  0  -0.081489  -0.143147  0  3.933107  0
C  C101  1  0.13918226  0.42205071  0.39757078  1  0  -0.113946  0  3.696978  0  0  -0.142992  0  3.944585  0  0  -0.142367  0  3.961608  0  0  -0.081509  -0.143158  0  3.933011  0
C  C102  1  0.00873270  0.51973975  0.54336059  1  0  0.056109  0  3.785541  0  0  0.073149  0  4.009502  0  0  0.072594  0  4.033754  0  0  -0.004139  0.073494  0  3.99304  0
C  C103  1  0.99126902  0.48026494  0.45664093  1  0  0.056137  0  3.785414  0  0  0.073132  0  4.009413  0  0  0.072577  0  4.033665  0  0  -0.004138  0.073479  0  3.992951  0
C  C104  1  0.17349933  0.49846340  0.56780891  1  0  -0.091242  0  3.71676  0  0  -0.109543  0  3.962658  0  0  -0.111825  0  3.983067  0  0  -0.080543  -0.10793  0  3.948807  0
C  C105  1  0.82650279  0.50154043  0.43218847  1  0  -0.091302  0  3.716698  0  0  -0.109595  0  3.962596  0  0  -0.111877  0  3.983002  0  0  -0.080558  -0.107979  0  3.948739  0
C  C106  1  0.31505999  0.44083623  0.50948367  1  0  -0.075314  0  3.74494  0  0  -0.101061  0  3.996979  0  0  -0.101767  0  4.016872  0  0  -0.085545  -0.100465  0  3.983461  0
C  C107  1  0.68494210  0.55916492  0.49051547  1  0  -0.075227  0  3.745118  0  0  -0.100967  0  3.997137  0  0  -0.101674  0  4.017034  0  0  -0.085486  -0.100369  0  3.983617  0
C  C108  1  0.29859561  0.40312689  0.42299182  1  0  -0.081309  0  3.803943  0  0  -0.060693  0  4.041487  0  0  -0.06782  0  4.063807  0  0  -0.02391  -0.056023  0  4.026352  0
C  C109  1  0.70140851  0.59687518  0.57700348  1  0  -0.081376  0  3.804016  0  0  -0.060763  0  4.041601  0  0  -0.067894  0  4.063929  0  0  -0.023974  -0.056095  0  4.026466  0
C  C110  1  0.45559000  0.34786518  0.35877544  1  0  0.641069  0  3.847588  0  0  0.59379  0  4.143009  0  0  0.626729  0  4.134554  0  0  0.221735  0.571474  0  4.148109  0
C  C111  1  0.54441326  0.65213067  0.64122077  1  0  0.641082  0  3.847538  0  0  0.593746  0  4.143064  0  0  0.626685  0  4.134608  0  0  0.221706  0.571421  0  4.148175  0
N  N112  1  0.98061350  0.40877461  0.15876919  1  0  -0.415317  0  3.325368  0  0  -0.343073  0  3.64247  0  0  -0.364188  0  3.653304  0  0  -0.37805  -0.328709  0  3.634661  0
N  N113  1  0.01938419  0.59122831  0.84123015  1  0  -0.415379  0  3.325428  0  0  -0.343129  0  3.64255  0  0  -0.364244  0  3.653384  0  0  -0.378121  -0.328764  0  3.634744  0
N  N114  1  0.12082036  0.53389417  0.08318810  1  0  -0.118837  0  3.501361  0  0  -0.028311  0  3.722172  0  0  -0.044968  0  3.746353  0  0  -0.23938  -0.017268  0  3.705641  0
N  N115  1  0.87917573  0.46610963  0.91681270  1  0  -0.118889  0  3.50152  0  0  -0.028352  0  3.722353  0  0  -0.04501  0  3.746534  0  0  -0.239351  -0.017315  0  3.70582  0
N  N116  1  0.20156689  0.99600636  0.46297112  1  0  -0.121837  0  3.516557  0  0  -0.031909  0  3.73887  0  0  -0.048704  0  3.763425  0  0  -0.242221  -0.020791  0  3.722081  0
N  N117  1  0.79842918  0.00399477  0.53703074  1  0  -0.122  0  3.516713  0  0  -0.032025  0  3.739046  0  0  -0.048822  0  3.763599  0  0  -0.24222  -0.020914  0  3.72227  0
N  N118  1  0.07580065  0.09675353  0.33457603  1  0  -0.406987  0  3.320419  0  0  -0.33296  0  3.63488  0  0  -0.354067  0  3.645984  0  0  -0.373314  -0.318571  0  3.626802  0
N  N119  1  0.92419582  0.90324671  0.66542661  1  0  -0.40708  0  3.320497  0  0  -0.33306  0  3.634946  0  0  -0.354172  0  3.646058  0  0  -0.373338  -0.318668  0  3.626867  0
O  O120  1  0.91209269  0.12584679  0.08283544  1  0  -0.615439  0  1.928849  0  0  -0.569592  0  2.166016  0  0  -0.592623  0  2.155416  0  0  -0.322465  -0.553459  0  2.17272  0
O  O121  1  0.08790901  0.87415525  0.91716433  1  0  -0.615342  0  1.928909  0  0  -0.569512  0  2.166034  0  0  -0.59254  0  2.155434  0  0  -0.322442  -0.553407  0  2.172797  0
O  O122  1  0.70500337  0.21699541  0.19148601  1  0  -0.660961  0  2.125255  0  0  -0.584622  0  2.379843  0  0  -0.613262  0  2.363781  0  0  -0.342755  -0.564506  0  2.39017  0
O  O123  1  0.29500658  0.78298256  0.80852527  1  0  -0.660896  0  2.125195  0  0  -0.584576  0  2.379742  0  0  -0.613218  0  2.363679  0  0  -0.342639  -0.564451  0  2.390059  0
O  O124  1  0.59877284  0.33849535  0.37664444  1  0  -0.573976  0  1.938619  0  0  -0.531144  0  2.170645  0  0  -0.550924  0  2.160484  0  0  -0.296999  -0.517444  0  2.177266  0
O  O125  1  0.40122883  0.66150136  0.62335463  1  0  -0.573976  0  1.938592  0  0  -0.531127  0  2.17066  0  0  -0.550908  0  2.1605  0  0  -0.296991  -0.51742  0  2.177282  0
O  O126  1  0.42723731  0.31193386  0.28159672  1  0  -0.585882  0  2.104908  0  0  -0.536088  0  2.33313  0  0  -0.559424  0  2.315441  0  0  -0.342488  -0.519814  0  2.344843  0
O  O127  1  0.57276394  0.68806111  0.71839910  1  0  -0.585923  0  2.104817  0  0  -0.536102  0  2.333075  0  0  -0.559438  0  2.315383  0  0  -0.342493  -0.519819  0  2.344788  0
