# generated using pymatgen
data_Cu2P2H10C4NO9
_symmetry_space_group_name_H-M   'P 1'
_cell_length_a   6.28775673
_cell_length_b   7.94576762
_cell_length_c   10.80809549
_cell_angle_alpha   87.37381657
_cell_angle_beta   88.74003865
_cell_angle_gamma   83.80836301
_symmetry_Int_Tables_number   1
_chemical_formula_structural   Cu2P2H10C4NO9
_chemical_formula_sum   'Cu4 P4 H20 C8 N2 O18'
_cell_volume   536.19113688
_cell_formula_units_Z   2
loop_
 _symmetry_equiv_pos_site_id
 _symmetry_equiv_pos_as_xyz
  1  'x, y, z'
loop_
 _atom_site_type_symbol
 _atom_site_label
 _atom_site_symmetry_multiplicity
 _atom_site_fract_x
 _atom_site_fract_y
 _atom_site_fract_z
 _atom_site_occupancy
 _atom_site_pbe_cm5_charge
 _atom_site_pbe_ddec_charge
 _atom_site_pbe_ddec_spin_density
 _atom_site_pbe_ddec_sum_bond_order
 _atom_site_pbe_magmom
Cu  Cu0  1  0.50193678  0.99735340  0.50056613  1  0.753907  0.991839  0.788676  2.144039  0.615
Cu  Cu1  1  0.98931139  0.14519396  0.18334009  1  0.761243  0.951572  -0.754827  2.175658  -0.61
Cu  Cu2  1  0.01179024  0.85777261  0.81778746  1  0.758536  0.951802  -0.756733  2.170736  -0.609
Cu  Cu3  1  0.99770184  0.49741320  0.49581768  1  0.734291  1.096335  -0.807976  1.958598  -0.661
P  P4  1  0.51372211  0.09532292  0.22884357  1  0.328495  1.224913  -0.006912  5.400003  -0.008
P  P5  1  0.48834558  0.90749304  0.77312074  1  0.326518  1.218778  -0.006642  5.412003  -0.007
P  P6  1  0.83421780  0.82418016  0.33600915  1  0.327827  1.218606  -0.003652  5.368222  -0.003
P  P7  1  0.16747184  0.17676380  0.66258514  1  0.329058  1.223939  -0.0035  5.363429  -0.003
H  H8  1  0.27077349  0.84175893  0.29888186  1  0.301284  0.361208  -0.000124  0.950864  0.0
H  H9  1  0.73204228  0.15865377  0.70420729  1  0.300106  0.357908  -9.7e-05  0.959955  0.0
H  H10  1  0.02309949  0.17023747  0.43161591  1  0.292115  0.394778  0.000404  0.945175  0.0
H  H11  1  0.97683743  0.82484100  0.56868501  1  0.289725  0.393211  0.000417  0.948766  0.0
H  H12  1  0.78556714  0.22884536  0.38811386  1  0.292849  0.38567  -8.4e-05  0.952551  0.0
H  H13  1  0.21348486  0.76693634  0.61343078  1  0.29244  0.38608  -0.000104  0.949303  0.0
H  H14  1  0.37481587  0.57063505  0.39303677  1  0.305565  0.403668  -0.000958  0.912267  -0.001
H  H15  1  0.63485358  0.42088130  0.61489622  1  0.299797  0.396038  -0.000985  0.927074  -0.001
H  H16  1  0.37982993  0.36614994  0.39811686  1  0.302974  0.415304  -0.000825  0.904028  -0.002
H  H17  1  0.62376366  0.62646828  0.60208821  1  0.300795  0.411482  -0.000752  0.9074  -0.001
H  H18  1  0.61844532  0.64138893  0.14289924  1  0.093958  0.143718  3.7e-05  0.981218  0.0
H  H19  1  0.37660502  0.36073384  0.85960077  1  0.092322  0.140775  5.9e-05  0.983342  0.0
H  H20  1  0.73266676  0.82090651  0.07425078  1  0.095165  0.135599  0.00025  1.038021  0.0
H  H21  1  0.26422252  0.17929866  0.92635582  1  0.095956  0.136566  0.000272  1.03673  0.0
H  H22  1  0.45559818  0.81828119  0.07257238  1  0.094555  0.145766  -2.5e-05  1.021597  0.0
H  H23  1  0.54093068  0.18448517  0.92944083  1  0.094866  0.146732  -4.2e-05  1.018951  0.0
H  H24  1  0.81626221  0.26514816  0.94029085  1  0.130293  0.111547  -0.001686  1.019619  -0.003
H  H25  1  0.18345822  0.73721285  0.06074936  1  0.129895  0.110401  -0.001697  1.021433  -0.003
H  H26  1  0.16512470  0.47799096  0.20427918  1  0.13205  0.124098  -0.001805  1.009024  -0.003
H  H27  1  0.83793022  0.52385732  0.79644342  1  0.132392  0.1146  -0.001813  0.996539  -0.003
C  C28  1  0.57927866  0.86350175  0.25237603  1  0.043602  -0.138402  -0.006953  3.944311  -0.008
C  C29  1  0.42108841  0.14011021  0.74856555  1  0.043927  -0.139312  -0.006546  3.938078  -0.007
C  C30  1  0.59719891  0.77984963  0.12844801  1  -0.248425  -0.397264  0.000195  3.933085  0.0
C  C31  1  0.39959360  0.22215473  0.87313386  1  -0.24954  -0.397702  0.000253  3.935447  0.0
C  C32  1  0.89700517  0.37165223  0.96681049  1  0.068782  0.06254  -0.004135  3.873023  -0.005
C  C33  1  0.10329568  0.63056968  0.03396673  1  0.070506  0.06547  -0.004064  3.864612  -0.005
C  C34  1  0.09375713  0.48791324  0.11281545  1  0.07628  0.085062  -0.004055  3.827226  -0.004
C  C35  1  0.90754650  0.51402074  0.88806714  1  0.073239  0.08098  -0.004118  3.851069  -0.004
N  N36  1  0.98988097  0.35988154  0.07786406  1  -0.319613  -0.179279  -0.059832  3.590258  -0.08
N  N37  1  0.01094764  0.64240286  0.92283782  1  -0.319649  -0.179921  -0.059588  3.595905  -0.08
O  O38  1  0.51553396  0.16971773  0.36062594  1  -0.370323  -0.743653  0.050458  2.351076  0.067
O  O39  1  0.49179020  0.82834784  0.64298582  1  -0.371415  -0.746834  0.049414  2.345944  0.066
O  O40  1  0.68736903  0.16109694  0.14335181  1  -0.378972  -0.728208  -0.05476  2.365353  -0.078
O  O41  1  0.31360315  0.84249212  0.85814500  1  -0.380339  -0.727796  -0.054416  2.366906  -0.078
O  O42  1  0.29782166  0.12360720  0.16701776  1  -0.386294  -0.727878  -0.046759  2.417727  -0.066
O  O43  1  0.70322424  0.88264682  0.83659851  1  -0.386906  -0.72904  -0.046987  2.416877  -0.066
O  O44  1  0.79598709  0.91059572  0.46177508  1  -0.383928  -0.742749  0.048473  2.40273  0.065
O  O45  1  0.20853940  0.08586666  0.53899383  1  -0.383108  -0.743894  0.047675  2.406264  0.064
O  O46  1  0.00670245  0.90567251  0.25554516  1  -0.374925  -0.742451  -0.044368  2.343314  -0.063
O  O47  1  0.99539664  0.09639435  0.74429694  1  -0.376528  -0.742401  -0.04463  2.344918  -0.064
O  O48  1  0.89033790  0.63279856  0.35147522  1  -0.37703  -0.70648  -0.057741  2.321749  -0.08
O  O49  1  0.10622458  0.36754100  0.64277529  1  -0.382806  -0.731854  -0.055054  2.328681  -0.077
O  O50  1  0.41522735  0.80063571  0.33333154  1  -0.375359  -0.495905  -0.003083  2.343887  -0.004
O  O51  1  0.58824877  0.20455702  0.67067067  1  -0.374866  -0.495271  -0.002627  2.350886  -0.003
O  O52  1  0.93532109  0.25519699  0.37828593  1  -0.585555  -0.802733  -0.000492  2.1579  -0.003
O  O53  1  0.06390419  0.74103291  0.62353120  1  -0.586833  -0.813793  -0.000463  2.144675  -0.003
O  O54  1  0.28657457  0.47534744  0.39988133  1  -0.57502  -0.766907  -0.037242  2.164076  -0.052
O  O55  1  0.68780260  0.51818734  0.56779172  1  -0.577882  -0.767258  -0.037433  2.134303  -0.052
