# generated using pymatgen
data_P2H32Au2C44Cl
_symmetry_space_group_name_H-M   'P 1'
_cell_length_a   15.28529922
_cell_length_b   15.28554548
_cell_length_c   15.26356449
_cell_angle_alpha   92.33767476
_cell_angle_beta   92.33893955
_cell_angle_gamma   92.31049486
_symmetry_Int_Tables_number   1
_chemical_formula_structural   P2H32Au2C44Cl
_chemical_formula_sum   'P6 H96 Au6 C132 Cl3'
_cell_volume   3557.15690364
_cell_formula_units_Z   3
loop_
 _symmetry_equiv_pos_site_id
 _symmetry_equiv_pos_as_xyz
  1  'x, y, z'
loop_
 _atom_site_type_symbol
 _atom_site_label
 _atom_site_symmetry_multiplicity
 _atom_site_fract_x
 _atom_site_fract_y
 _atom_site_fract_z
 _atom_site_occupancy
 _atom_site_pbe_bader_charge
 _atom_site_pbe_bader_spin_density
 _atom_site_pbe_cm5_charge
 _atom_site_pbe_ddec_charge
 _atom_site_pbe_ddec_spin_density
 _atom_site_pbe_ddec_sum_bond_order
 _atom_site_pbe_magmom
P  P0  1  0.64293790  0.67965133  0.02226173  1  1.660882  -0.022916  -0.001795  0.379485  -0.03332  4.497671  -0.003
P  P1  1  0.32035311  0.35707037  0.97772569  1  1.662384  -0.022889  -0.001822  0.37984  -0.033274  4.497361  -0.003
P  P2  1  0.83665829  0.60239155  0.21695106  1  1.705503  -0.021912  -0.001856  0.378378  -0.032583  4.500213  -0.003
P  P3  1  0.39762270  0.16333974  0.78304058  1  1.704979  -0.021991  -0.001838  0.378369  -0.032701  4.500561  -0.003
P  P4  1  0.88136109  0.92528112  0.53847848  1  1.650243  -0.022994  -0.002089  0.378457  -0.033544  4.49796  -0.003
P  P5  1  0.07471799  0.11863179  0.46153952  1  1.650256  -0.022941  -0.001949  0.378777  -0.033455  4.497331  -0.003
H  H6  1  0.99249957  0.49479060  0.89796574  1  0.054116  -0.00123  0.09867  0.093271  -0.001047  1.010055  0.0
H  H7  1  0.50519842  0.00748578  0.10203186  1  0.053974  -0.00123  0.098685  0.093189  -0.001047  1.010089  0.0
H  H8  1  0.61854226  0.85878402  0.06819124  1  0.064649  -0.000864  0.096791  0.097926  -0.000481  1.018979  0.0
H  H9  1  0.14119572  0.38145367  0.93179912  1  0.06444  -0.000865  0.096822  0.098021  -0.000482  1.018892  0.0
H  H10  1  0.61926095  0.94542015  0.20786821  1  0.01309  -0.000716  0.092808  0.094447  -0.000439  1.012603  0.0
H  H11  1  0.05456523  0.38076947  0.79212736  1  0.013303  -0.000714  0.092835  0.094443  -0.000439  1.012303  0.0
H  H12  1  0.62966100  0.95301104  0.36919088  1  0.014946  -0.000588  0.090074  0.089877  -8.6e-05  1.019312  0.0
H  H13  1  0.04698041  0.37032817  0.63080598  1  0.014615  -0.000589  0.09014  0.089999  -8.7e-05  1.019217  0.0
H  H14  1  0.63850630  0.87742028  0.51175622  1  0.050343  -0.00223  0.089419  0.083436  -0.00211  1.057797  0.0
H  H15  1  0.12258981  0.36147622  0.48822760  1  0.050397  -0.002224  0.089431  0.083398  -0.002106  1.057719  0.0
H  H16  1  0.64515948  0.71605426  0.51193887  1  0.065904  -0.000677  0.09311  0.093576  -0.000337  1.025485  0.0
H  H17  1  0.28396691  0.35477533  0.48806304  1  0.066088  -0.000672  0.093103  0.093649  -0.000333  1.025404  0.0
H  H18  1  0.65082691  0.62863667  0.37249985  1  0.083203  -0.00096  0.096503  0.104289  -0.000864  1.017664  0.0
H  H19  1  0.37136504  0.34910315  0.62752179  1  0.083336  -0.000971  0.09653  0.104439  -0.000875  1.017556  0.0
H  H20  1  0.48738556  0.65839772  0.20684425  1  0.021826  -0.001112  0.096182  0.103861  -0.000806  1.017565  0.0
H  H21  1  0.34161203  0.51262341  0.79314982  1  0.02167  -0.001134  0.096162  0.1039  -0.000821  1.017913  0.0
H  H22  1  0.34719459  0.57331911  0.21500572  1  0.06902  -0.000698  0.093289  0.0936  -0.000352  1.02343  0.0
H  H23  1  0.42669624  0.65281579  0.78501227  1  0.069567  -0.000717  0.093306  0.093635  -0.000367  1.023491  0.0
H  H24  1  0.34538769  0.41248423  0.22825141  1  0.038672  -0.002258  0.089479  0.08405  -0.002025  1.054783  0.0
H  H25  1  0.58752955  0.65461255  0.77178029  1  0.038223  -0.002275  0.08938  0.083887  -0.002039  1.054923  0.0
H  H26  1  0.48688209  0.33527126  0.23885066  1  0.028805  -0.000478  0.090329  0.089375  -2.5e-05  1.020079  0.0
H  H27  1  0.66473276  0.51312838  0.76114345  1  0.028546  -0.00049  0.090312  0.089313  -3.2e-05  1.020295  0.0
H  H28  1  0.64753548  0.34036069  0.24682042  1  0.053633  -0.000618  0.092475  0.093301  -0.000477  1.015684  0.0
H  H29  1  0.65962686  0.35246910  0.75317515  1  0.053705  -0.000637  0.092396  0.093211  -0.000492  1.015988  0.0
H  H30  1  0.78820176  0.42455724  0.24507702  1  0.082868  -0.000899  0.096382  0.096866  -0.000506  1.020902  0.0
H  H31  1  0.57543596  0.21181475  0.75488905  1  0.083078  -0.00091  0.096381  0.096823  -0.000513  1.020997  0.0
H  H32  1  0.73624195  0.60515087  0.87866180  1  0.09669  -0.001069  0.090108  0.083376  -0.0009  1.05607  0.0
H  H33  1  0.39484345  0.26376313  0.12132954  1  0.096767  -0.001067  0.090121  0.083436  -0.000898  1.055947  0.0
H  H34  1  0.87275238  0.65025580  0.80623024  1  0.058716  -0.000874  0.099868  0.094811  -0.000673  0.998081  0.0
H  H35  1  0.34973054  0.12727118  0.19378214  1  0.058839  -0.000869  0.099885  0.094849  -0.000668  0.998205  0.0
H  H36  1  0.96083196  0.78253983  0.86210204  1  0.068092  -0.001231  0.098834  0.093465  -0.001094  1.010712  0.0
H  H37  1  0.21746428  0.03916354  0.13788654  1  0.067714  -0.001226  0.098821  0.093454  -0.00109  1.010639  0.0
H  H38  1  0.91158884  0.87018989  0.99173276  1  0.05018  -0.000426  0.098223  0.0957  -0.000229  0.995518  0.0
H  H39  1  0.12979730  0.08841889  0.00826923  1  0.050553  -0.000427  0.09823  0.095715  -0.00023  0.995552  0.0
H  H40  1  0.77480627  0.82682390  0.06242117  1  0.091285  -0.000653  0.088706  0.091008  -0.000482  1.063538  0.0
H  H41  1  0.17316448  0.22519137  0.93757031  1  0.090996  -0.000657  0.088731  0.091009  -0.000485  1.063521  0.0
H  H42  1  0.63916868  0.80428070  0.87764265  1  0.060404  -0.000602  0.097303  0.094224  -0.000411  1.03284  0.0
H  H43  1  0.19574032  0.36083320  0.12231037  1  0.060552  -0.000596  0.097376  0.094312  -0.000406  1.032803  0.0
H  H44  1  0.51452336  0.87331693  0.79989280  1  0.056676  -0.000659  0.097305  0.091377  -0.000433  1.030978  0.0
H  H45  1  0.12671974  0.48546601  0.20010149  1  0.05729  -0.000647  0.097276  0.091457  -0.000424  1.030919  0.0
H  H46  1  0.36179160  0.84139498  0.84360472  1  0.070807  -0.001032  0.098029  0.092317  -0.000835  1.048626  0.0
H  H47  1  0.15863408  0.63820642  0.15639421  1  0.070535  -0.001026  0.098019  0.092208  -0.000831  1.048492  0.0
H  H48  1  0.33334099  0.74086646  0.96309304  1  0.053356  -0.000499  0.096503  0.088913  -0.000279  1.029084  0.0
H  H49  1  0.25915490  0.66667363  0.03689719  1  0.051693  -0.000496  0.096535  0.089  -0.000275  1.028896  0.0
H  H50  1  0.45668251  0.66726766  0.03740596  1  0.107751  -0.001503  0.098778  0.095281  -0.001476  1.02755  0.0
H  H51  1  0.33276109  0.54334106  0.96258111  1  0.10741  -0.00151  0.098795  0.095256  -0.001483  1.027751  0.0
H  H52  1  0.97789504  0.67608651  0.12025128  1  0.056088  -0.001147  0.089551  0.082357  -0.000914  1.05704  0.0
H  H53  1  0.32390744  0.02211953  0.87974814  1  0.056138  -0.001153  0.089553  0.082365  -0.000919  1.056955  0.0
H  H54  1  0.04891463  0.62871343  0.98334074  1  0.053826  -0.000917  0.099781  0.094792  -0.000715  0.998797  0.0
H  H55  1  0.37125779  0.95109662  0.01666654  1  0.052993  -0.00092  0.099809  0.094821  -0.000717  0.998788  0.0
H  H56  1  0.86380981  0.40816588  0.95006018  1  0.066849  -0.000392  0.098752  0.0969  -0.000213  0.995541  0.0
H  H57  1  0.59181975  0.13617812  0.04996052  1  0.068089  -0.000392  0.098804  0.096927  -0.000212  0.995574  0.0
H  H58  1  0.79489934  0.45364900  0.08744445  1  0.123711  -0.000623  0.088411  0.091217  -0.000472  1.061605  0.0
H  H59  1  0.54635822  0.20509038  0.91256412  1  0.123872  -0.000632  0.088455  0.091257  -0.00048  1.061517  0.0
H  H60  1  0.82250741  0.61323129  0.40295728  1  0.077277  -0.001575  0.099482  0.095958  -0.00148  1.025644  0.0
H  H61  1  0.38677927  0.17746425  0.59705652  1  0.077404  -0.001586  0.099409  0.095793  -0.001492  1.025631  0.0
H  H62  1  0.89721311  0.53920546  0.52594051  1  0.04908  -0.000492  0.096748  0.089656  -0.000266  1.024351  0.0
H  H63  1  0.46078179  0.10276348  0.47405780  1  0.048976  -0.000495  0.09665  0.089541  -0.000268  1.024385  0.0
H  H64  1  0.01631359  0.43860742  0.49639561  1  0.100209  -0.001071  0.097421  0.092499  -0.000904  1.049631  0.0
H  H65  1  0.56139007  0.98367011  0.50358777  1  0.099845  -0.001074  0.09736  0.092497  -0.000905  1.049486  0.0
H  H66  1  0.05987209  0.40789223  0.34314830  1  0.040152  -0.000723  0.097082  0.091201  -0.000489  1.031539  0.0
H  H67  1  0.59212608  0.94009384  0.65683009  1  0.055682  -0.000722  0.097109  0.091225  -0.000497  1.031496  0.0
H  H68  1  0.98196527  0.47766159  0.21897150  1  0.099885  -0.000505  0.097295  0.094644  -0.000371  1.032056  0.0
H  H69  1  0.52236619  0.01798875  0.78101467  1  0.099865  -0.000516  0.09727  0.094665  -0.000381  1.031891  0.0
H  H70  1  0.92810389  0.89608404  0.71677013  1  0.082602  -0.00093  0.096474  0.096842  -0.000537  1.021909  0.0
H  H71  1  0.10388468  0.07190973  0.28325356  1  0.082329  -0.000929  0.096411  0.096827  -0.000539  1.021778  0.0
H  H72  1  0.06799735  0.89456571  0.80250524  1  0.033494  -0.00067  0.092822  0.093407  -0.000477  1.013929  0.0
H  H73  1  0.10543916  0.93202276  0.19751084  1  0.033774  -0.000661  0.092853  0.093492  -0.000469  1.013615  0.0
H  H74  1  0.22855971  0.90405228  0.80945693  1  0.047207  -0.000493  0.090511  0.089415  -5.3e-05  1.018824  0.0
H  H75  1  0.09594817  0.77147457  0.19053822  1  0.047585  -0.000484  0.090524  0.089385  -4.8e-05  1.018713  0.0
H  H76  1  0.37078490  0.91643570  0.73396461  1  0.03747  -0.002363  0.08961  0.08402  -0.002136  1.057227  0.0
H  H77  1  0.08357174  0.62922861  0.26601110  1  0.03809  -0.002342  0.089682  0.083982  -0.002124  1.056951  0.0
H  H78  1  0.37075275  0.92883904  0.57289185  1  0.060479  -0.000656  0.093261  0.093995  -0.000313  1.0256  0.0
H  H79  1  0.07113881  0.62923604  0.42708754  1  0.060415  -0.00065  0.093176  0.09385  -0.000309  1.025653  0.0
H  H80  1  0.23120679  0.93518131  0.48583852  1  0.061616  -0.001109  0.096461  0.104259  -0.000933  1.017291  0.0
H  H81  1  0.06479309  0.76877460  0.51415789  1  0.061682  -0.001104  0.096471  0.104202  -0.000932  1.017093  0.0
H  H82  1  0.73766782  0.92257969  0.66463937  1  0.062402  -0.000589  0.097506  0.094751  -0.000393  1.032117  0.0
H  H83  1  0.07742274  0.26229993  0.33537824  1  0.062971  -0.000582  0.097459  0.094616  -0.000387  1.032125  0.0
H  H84  1  0.65936442  0.79834590  0.73342907  1  0.057601  -0.000619  0.09731  0.091343  -0.000395  1.030673  0.0
H  H85  1  0.20165027  0.34061750  0.26659458  1  0.058239  -0.000609  0.097317  0.091388  -0.000387  1.030648  0.0
H  H86  1  0.70054640  0.64512191  0.69941068  1  0.078631  -0.001027  0.09802  0.092354  -0.000824  1.047272  0.0
H  H87  1  0.35487985  0.29943892  0.30060492  1  0.078371  -0.001024  0.097969  0.092243  -0.000822  1.047303  0.0
H  H88  1  0.81793177  0.61586699  0.59642146  1  0.047054  -0.000473  0.096541  0.089104  -0.000247  1.026045  0.0
H  H89  1  0.38413896  0.18204502  0.40358245  1  0.047786  -0.000471  0.09651  0.089065  -0.000245  1.026238  0.0
H  H90  1  0.89320385  0.73902448  0.52368213  1  0.081006  -0.001717  0.098867  0.095437  -0.001629  1.027346  0.0
H  H91  1  0.26099042  0.10676573  0.47633247  1  0.080807  -0.00172  0.098918  0.095433  -0.001632  1.027614  0.0
H  H92  1  0.74124488  0.02428270  0.46505651  1  0.091853  -0.001037  0.0907  0.083706  -0.000854  1.053918  0.0
H  H93  1  0.97572475  0.25876536  0.53493921  1  0.091718  -0.001035  0.090669  0.083633  -0.000854  1.053941  0.0
H  H94  1  0.67027918  0.16035417  0.51465461  1  0.05928  -0.00089  0.099929  0.095136  -0.000695  0.99775  0.0
H  H95  1  0.83965978  0.32973383  0.48532417  1  0.059486  -0.000885  0.099923  0.09516  -0.000691  0.997754  0.0
H  H96  1  0.72610305  0.24302486  0.65057518  1  0.067824  -0.001145  0.098781  0.092988  -0.000995  1.011193  0.0
H  H97  1  0.75696980  0.27388334  0.34942317  1  0.068205  -0.001132  0.098739  0.092936  -0.000985  1.011236  0.0
H  H98  1  0.85359601  0.18866325  0.73731888  1  0.043551  -0.000395  0.099199  0.097411  -0.00021  0.994242  0.0
H  H99  1  0.81135062  0.14640332  0.26267611  1  0.043558  -0.000385  0.099229  0.09741  -0.000201  0.994297  0.0
H  H100  1  0.92224233  0.05207822  0.68987044  1  0.091182  -0.000617  0.08956  0.092407  -0.000436  1.060954  0.0
H  H101  1  0.94792933  0.07774887  0.31013799  1  0.09088  -0.000615  0.089558  0.092476  -0.000433  1.060766  0.0
Au  Au102  1  0.62549998  0.53308030  0.01345065  1  0.053731  -0.017418  0.287548  -0.004027  -0.020088  2.600027  -0.006
Au  Au103  1  0.46692308  0.37451176  0.98652974  1  0.053581  -0.017453  0.287509  -0.004074  -0.02013  2.599947  -0.006
Au  Au104  1  0.84703737  0.74901949  0.23369351  1  0.028945  -0.016549  0.288875  -0.002462  -0.019731  2.599916  -0.006
Au  Au105  1  0.25099193  0.15295654  0.76630294  1  0.029071  -0.016559  0.288912  -0.002459  -0.019715  2.600103  -0.006
Au  Au106  1  0.87266220  0.90885918  0.39155992  1  0.064746  -0.016911  0.288665  -0.002404  -0.020357  2.601294  -0.007
Au  Au107  1  0.09115234  0.12732857  0.60845266  1  0.064766  -0.01694  0.288609  -0.002537  -0.020407  2.601449  -0.007
C  C108  1  0.63960897  0.73436245  0.12868493  1  -0.512994  -0.058411  -0.046283  -0.148413  -0.05296  3.99663  -0.028
C  C109  1  0.26563812  0.36039555  0.87130354  1  -0.512894  -0.058251  -0.046062  -0.148123  -0.052811  3.996514  -0.028
C  C110  1  0.62764080  0.82631110  0.13004607  1  -0.115038  0.00207  -0.102061  -0.098174  0.001849  4.063916  0.005
C  C111  1  0.17367823  0.37236772  0.86994690  1  -0.114607  0.002039  -0.102119  -0.098357  0.001822  4.064154  0.005
C  C112  1  0.62704189  0.87471211  0.20785354  1  0.047895  -0.044304  -0.109641  -0.158571  -0.044598  4.035804  -0.027
C  C113  1  0.12528428  0.37297223  0.79214202  1  0.047636  -0.044118  -0.109612  -0.158478  -0.044407  4.036101  -0.026
C  C114  1  0.63548283  0.83378202  0.28968249  1  -0.047631  -0.012584  -0.017319  0.084589  -0.011346  4.022064  -0.005
C  C115  1  0.16621951  0.36452522  0.71032207  1  -0.047978  -0.012561  -0.017402  0.08447  -0.011324  4.022044  -0.005
C  C116  1  0.63444021  0.88191080  0.37048606  1  -0.00218  -0.026734  -0.112291  -0.168549  -0.027447  4.040676  -0.014
C  C117  1  0.11808185  0.36556829  0.62951110  1  -0.001687  -0.026674  -0.112196  -0.168549  -0.027388  4.039899  -0.014
C  C118  1  0.63868130  0.84018007  0.44953073  1  -0.062461  -0.049468  -0.11087  -0.105118  -0.050046  4.069233  -0.027
C  C119  1  0.15982580  0.36129628  0.55046493  1  -0.063055  -0.04935  -0.110953  -0.105039  -0.049919  4.06915  -0.027
C  C120  1  0.64367041  0.74853116  0.44975370  1  -0.05272  -0.000618  -0.100063  -0.073131  -0.001469  4.036534  0.003
C  C121  1  0.25147415  0.35630130  0.55025193  1  -0.051949  -0.0006  -0.099933  -0.073173  -0.001451  4.037117  0.003
C  C122  1  0.64700065  0.69963470  0.37178699  1  -0.05521  -0.050375  -0.104688  -0.147091  -0.050308  3.986379  -0.029
C  C123  1  0.30037062  0.35297101  0.62820741  1  -0.054797  -0.050201  -0.104634  -0.14705  -0.050136  3.986266  -0.029
C  C124  1  0.64451003  0.74042108  0.28963241  1  -0.061236  0.001605  -0.015907  0.031936  0.001642  3.961021  0.007
C  C125  1  0.25957484  0.35548335  0.71037182  1  -0.061486  0.00154  -0.015844  0.031995  0.001581  3.960348  0.006
C  C126  1  0.64846070  0.69093741  0.20814680  1  -0.042326  -0.080458  -0.019324  -0.001752  -0.081393  3.983434  -0.048
C  C127  1  0.30907478  0.35154805  0.79186118  1  -0.04295  -0.080132  -0.019355  -0.001716  -0.081065  3.983609  -0.048
C  C128  1  0.65089985  0.59393771  0.21186929  1  -0.039395  -0.081662  -0.019425  -0.002647  -0.082025  3.9803  -0.048
C  C129  1  0.40607389  0.34912091  0.78814020  1  -0.038885  -0.082222  -0.019408  -0.002855  -0.082588  3.980534  -0.049
C  C130  1  0.56881900  0.54578205  0.21653736  1  -0.025793  0.002019  -0.014629  0.033332  0.001864  3.957478  0.007
C  C131  1  0.45421670  0.43118494  0.78344443  1  -0.025902  0.002081  -0.014792  0.033427  0.001932  3.958047  0.007
C  C132  1  0.48731101  0.58760447  0.21282300  1  -0.009467  -0.049962  -0.104819  -0.148094  -0.050083  3.984187  -0.029
C  C133  1  0.41240003  0.51269336  0.78718586  1  -0.009615  -0.05035  -0.10496  -0.148602  -0.050474  3.984699  -0.029
C  C134  1  0.40885568  0.54001865  0.21766117  1  -0.063854  -0.001716  -0.099776  -0.072943  -0.002486  4.034567  0.003
C  C135  1  0.45999929  0.59115519  0.78234747  1  -0.064321  -0.001725  -0.099818  -0.072944  -0.002505  4.035054  0.003
C  C136  1  0.40793441  0.44869485  0.22595961  1  -0.043111  -0.04787  -0.10993  -0.104248  -0.048722  4.068555  -0.026
C  C137  1  0.55130839  0.59207704  0.77403964  1  -0.043215  -0.048179  -0.109923  -0.1041  -0.049032  4.068886  -0.026
C  C138  1  0.48629769  0.40603815  0.23121164  1  -0.002601  -0.026768  -0.110988  -0.165677  -0.027399  4.036528  -0.014
C  C139  1  0.59397094  0.51370732  0.76880461  1  -0.002699  -0.026944  -0.110989  -0.165708  -0.027576  4.036855  -0.015
C  C140  1  0.56755126  0.45280257  0.22801908  1  -0.073562  -0.012178  -0.017747  0.083026  -0.010959  4.023796  -0.005
C  C141  1  0.54720360  0.43246735  0.77196781  1  -0.072929  -0.012241  -0.017729  0.083148  -0.011013  4.023679  -0.005
C  C142  1  0.64860573  0.41080475  0.23723558  1  -0.07604  -0.046109  -0.110061  -0.159169  -0.04601  4.037455  -0.027
C  C143  1  0.58919740  0.35140374  0.76275410  1  -0.07722  -0.046469  -0.110204  -0.159334  -0.046366  4.036976  -0.028
C  C144  1  0.72697588  0.45786496  0.23543947  1  -0.029368  0.002171  -0.101754  -0.097246  0.001597  4.064631  0.005
C  C145  1  0.54212618  0.27302963  0.76453752  1  -0.028687  0.002231  -0.101878  -0.097333  0.001647  4.064885  0.005
C  C146  1  0.72963399  0.54950432  0.22174525  1  -0.604287  -0.05863  -0.046277  -0.147408  -0.052865  3.993399  -0.028
C  C147  1  0.45049995  0.27035735  0.77823468  1  -0.604846  -0.058994  -0.046437  -0.147731  -0.053197  3.993557  -0.028
C  C148  1  0.74506500  0.71420682  0.97370401  1  -0.545225  -0.019761  -0.031026  -0.068656  -0.017225  3.964467  -0.011
C  C149  1  0.28579332  0.25493718  0.02628046  1  -0.544587  -0.019737  -0.03112  -0.068844  -0.017205  3.964422  -0.011
C  C150  1  0.77414420  0.66417844  0.90208213  1  -0.052419  -0.01055  -0.088618  -0.091707  -0.010263  3.976814  -0.005
C  C151  1  0.33581751  0.22585891  0.09790569  1  -0.052553  -0.010525  -0.088593  -0.091695  -0.010239  3.976562  -0.005
C  C152  1  0.85102138  0.68919721  0.86202037  1  -0.033652  -0.002466  -0.089843  -0.069512  -0.002574  4.011913  0.0
C  C153  1  0.31080088  0.14898576  0.13797938  1  -0.0336  -0.002481  -0.089793  -0.069529  -0.002588  4.011792  0.0
C  C154  1  0.90044080  0.76366093  0.89348406  1  -0.072387  -0.014983  -0.091037  -0.080914  -0.014811  4.004877  -0.008
C  C155  1  0.23633859  0.09955817  0.10650665  1  -0.071848  -0.014983  -0.091008  -0.080863  -0.01481  4.004748  -0.008
C  C156  1  0.87282712  0.81268170  0.96580226  1  0.006218  -0.003333  -0.095649  -0.085009  -0.003214  4.019544  -0.001
C  C157  1  0.18731753  0.12717269  0.03418961  1  0.005704  -0.003335  -0.095609  -0.084951  -0.003216  4.019714  -0.001
C  C158  1  0.79553415  0.78835146  0.00588658  1  -0.100603  -0.006968  -0.093651  -0.098695  -0.006997  3.993027  -0.003
C  C159  1  0.21164604  0.20446555  0.99410203  1  -0.100699  -0.006986  -0.093693  -0.098801  -0.007014  3.993063  -0.003
C  C160  1  0.55560957  0.73077046  0.96122941  1  -0.512045  -0.018464  -0.026593  -0.063573  -0.015803  3.981217  -0.009
C  C161  1  0.26925065  0.44440704  0.03874569  1  -0.513694  -0.018473  -0.026602  -0.064002  -0.015814  3.982048  -0.009
C  C162  1  0.57185348  0.78971226  0.89528787  1  -0.025689  -0.01367  -0.089728  -0.102061  -0.013424  3.995613  -0.007
C  C163  1  0.21031323  0.42815033  0.10469169  1  -0.025413  -0.013666  -0.089714  -0.101916  -0.01342  3.995366  -0.007
C  C164  1  0.50208492  0.82885383  0.85245884  1  -0.027071  -0.002264  -0.092359  -0.082532  -0.002305  4.007333  0.0
C  C165  1  0.17117388  0.49791576  0.14753130  1  -0.027203  -0.002238  -0.092302  -0.082682  -0.002283  4.007225  0.0
C  C166  1  0.41636325  0.81122423  0.87688107  1  -0.064427  -0.017704  -0.092299  -0.084215  -0.017566  4.012701  -0.01
C  C167  1  0.18879623  0.58363445  0.12310336  1  -0.064066  -0.017714  -0.092315  -0.083828  -0.017577  4.01245  -0.01
C  C168  1  0.40040162  0.75399319  0.94416351  1  -0.05705  -0.005022  -0.093076  -0.086426  -0.004657  4.020947  -0.002
C  C169  1  0.24602838  0.59960859  0.05582714  1  -0.057415  -0.005002  -0.093185  -0.086932  -0.004643  4.02099  -0.002
C  C170  1  0.46928673  0.71305464  0.98580282  1  -0.104507  -0.00852  -0.083199  -0.086456  -0.008651  3.973068  -0.004
C  C171  1  0.28697562  0.53073461  0.01418256  1  -0.104744  -0.008521  -0.083227  -0.0862  -0.008651  3.973362  -0.004
C  C172  1  0.88342957  0.56683212  0.11416906  1  -0.566392  -0.018783  -0.031057  -0.06854  -0.016382  3.966433  -0.01
C  C173  1  0.43317166  0.11656536  0.88582752  1  -0.566205  -0.018841  -0.031087  -0.0685  -0.016434  3.966296  -0.01
C  C174  1  0.95436838  0.61642708  0.08341116  1  -0.074657  -0.010121  -0.088093  -0.090217  -0.009801  3.978268  -0.005
C  C175  1  0.38357013  0.04563469  0.91659227  1  -0.075195  -0.010124  -0.088134  -0.090182  -0.009802  3.978214  -0.005
C  C176  1  0.99357455  0.59012861  0.00635540  1  0.010796  -0.002881  -0.08968  -0.069559  -0.003041  4.013298  -0.001
C  C177  1  0.40985835  0.00642826  0.99364702  1  0.011848  -0.002881  -0.089698  -0.069676  -0.00304  4.013594  -0.001
C  C178  1  0.96178462  0.51480424  0.95845730  1  0.002065  -0.013534  -0.090637  -0.079637  -0.013455  4.005266  -0.007
C  C179  1  0.48518891  0.03819937  0.04154510  1  0.014965  -0.01353  -0.090681  -0.079517  -0.013457  4.004838  -0.007
C  C180  1  0.89003550  0.46624226  0.98773915  1  -0.134207  -0.003682  -0.096231  -0.086548  -0.003415  4.02141  -0.001
C  C181  1  0.53376044  0.10995633  0.01226498  1  -0.148276  -0.003682  -0.096302  -0.086612  -0.003405  4.021033  -0.001
C  C182  1  0.85091250  0.49181808  0.06527780  1  -0.012887  -0.00644  -0.093469  -0.098827  -0.006535  3.994341  -0.003
C  C183  1  0.50818309  0.14907918  0.93472491  1  -0.012778  -0.006452  -0.09346  -0.098818  -0.006549  3.994458  -0.003
C  C184  1  0.89827554  0.55036577  0.30336555  1  -0.584814  -0.01792  -0.027019  -0.065257  -0.015141  3.982412  -0.008
C  C185  1  0.44964827  0.10169461  0.69663933  1  -0.585128  -0.017926  -0.027262  -0.065288  -0.015143  3.981935  -0.008
C  C186  1  0.87402848  0.56752646  0.39000695  1  -0.016505  -0.009274  -0.084012  -0.087339  -0.00947  3.976126  -0.004
C  C187  1  0.43249444  0.12594646  0.60999728  1  -0.016537  -0.009282  -0.083833  -0.086871  -0.009475  3.976027  -0.004
C  C188  1  0.91585445  0.52629496  0.45863520  1  -0.067392  -0.005094  -0.093075  -0.08673  -0.004723  4.01984  -0.002
C  C189  1  0.47370804  0.08412186  0.54136601  1  -0.066904  -0.005116  -0.093011  -0.086891  -0.004743  4.019876  -0.002
C  C190  1  0.98299098  0.46914611  0.44203985  1  -0.099531  -0.017866  -0.092087  -0.084826  -0.017704  4.013106  -0.01
C  C191  1  0.53084817  0.01697725  0.55795026  1  -0.09914  -0.017838  -0.091894  -0.084588  -0.017676  4.012604  -0.01
C  C192  1  0.00729622  0.45219768  0.35601302  1  -0.065722  -0.003133  -0.092204  -0.081635  -0.003049  4.0061  0.0
C  C193  1  0.54782081  0.99267685  0.64397510  1  -0.081134  -0.003153  -0.092294  -0.081651  -0.003057  4.005805  0.0
C  C194  1  0.96434297  0.49176014  0.28648726  1  0.009824  -0.013034  -0.08894  -0.100943  -0.012855  3.991869  -0.007
C  C195  1  0.50826434  0.03563158  0.71350905  1  0.009778  -0.013057  -0.08889  -0.101205  -0.012876  3.99153  -0.007
C  C196  1  0.98786931  0.91966662  0.59231337  1  -0.627842  -0.058496  -0.046167  -0.148648  -0.052942  3.995384  -0.028
C  C197  1  0.08031425  0.01211070  0.40771643  1  -0.626406  -0.058172  -0.046089  -0.14858  -0.052646  3.994931  -0.028
C  C198  1  0.98965699  0.90576963  0.68404366  1  -0.032105  0.002464  -0.102192  -0.098416  0.001937  4.065375  0.005
C  C199  1  0.09422354  0.01035140  0.31597805  1  -0.031228  0.002412  -0.102029  -0.098283  0.001889  4.064325  0.005
C  C200  1  0.06757283  0.90397444  0.73196025  1  -0.105239  -0.045327  -0.109534  -0.156439  -0.045247  4.035404  -0.027
C  C201  1  0.09602318  0.93244207  0.26806115  1  -0.103668  -0.045053  -0.109323  -0.156162  -0.044978  4.035283  -0.027
C  C202  1  0.14902932  0.91350000  0.69076259  1  0.007987  -0.012098  -0.018152  0.081114  -0.011223  4.025188  -0.005
C  C203  1  0.08649805  0.85099414  0.30926189  1  0.006937  -0.012029  -0.018176  0.080741  -0.011157  4.025048  -0.005
C  C204  1  0.22979573  0.91132633  0.73857995  1  -0.069682  -0.027645  -0.111075  -0.164193  -0.027973  4.038463  -0.015
C  C205  1  0.08869778  0.77022971  0.26141767  1  -0.071142  -0.027522  -0.110999  -0.163642  -0.027847  4.037701  -0.015
C  C206  1  0.30863692  0.91747981  0.69681327  1  -0.037195  -0.048233  -0.111366  -0.107705  -0.049023  4.072603  -0.026
C  C207  1  0.08251643  0.69138282  0.30316747  1  -0.037289  -0.047951  -0.111336  -0.107759  -0.048728  4.072538  -0.026
C  C208  1  0.30863718  0.92545894  0.60536161  1  -0.055266  -0.001172  -0.10022  -0.07333  -0.001898  4.036684  0.003
C  C209  1  0.07453698  0.69136223  0.39462480  1  -0.054852  -0.00118  -0.10017  -0.073308  -0.001905  4.036723  0.003
C  C210  1  0.23061711  0.92930839  0.55671737  1  -0.059877  -0.049751  -0.104571  -0.14766  -0.049711  3.981801  -0.029
C  C211  1  0.07069547  0.76936031  0.44327941  1  -0.059674  -0.049428  -0.10441  -0.147171  -0.049391  3.981348  -0.029
C  C212  1  0.14863062  0.92480248  0.59762598  1  -0.022922  0.001647  -0.014996  0.035126  0.001713  3.955113  0.007
C  C213  1  0.07518899  0.85136468  0.40238460  1  -0.023049  0.001586  -0.014923  0.034991  0.001652  3.954381  0.006
C  C214  1  0.06703444  0.92940733  0.54857084  1  0.069327  -0.080363  -0.019378  -0.002485  -0.081427  3.980434  -0.048
C  C215  1  0.07058975  0.93297038  0.45146428  1  0.019235  -0.080437  -0.019205  -0.00226  -0.080958  3.980501  -0.048
C  C216  1  0.81941943  0.83848601  0.58933880  1  -0.566249  -0.018926  -0.026683  -0.06442  -0.016153  3.982973  -0.009
C  C217  1  0.16152100  0.18055471  0.41067708  1  -0.567286  -0.018954  -0.027005  -0.064935  -0.016181  3.98294  -0.009
C  C218  1  0.75437248  0.85513870  0.64919094  1  -0.040167  -0.013052  -0.08916  -0.101455  -0.012802  3.993414  -0.007
C  C219  1  0.14486819  0.24560833  0.35083021  1  -0.023686  -0.01302  -0.089154  -0.101317  -0.012804  3.99353  -0.007
C  C220  1  0.71112051  0.78552546  0.68813136  1  -0.068381  -0.002884  -0.091956  -0.081358  -0.002872  4.00571  0.0
C  C221  1  0.21447660  0.28886006  0.31189184  1  -0.085078  -0.002907  -0.09192  -0.081404  -0.002863  4.005967  0.0
C  C222  1  0.73412535  0.69953771  0.66929330  1  -0.030945  -0.018082  -0.092468  -0.085683  -0.017972  4.013592  -0.01
C  C223  1  0.30046876  0.26585351  0.33071874  1  -0.030292  -0.018164  -0.092399  -0.085428  -0.018056  4.013242  -0.01
C  C224  1  0.80033088  0.68312038  0.61094843  1  -0.057205  -0.004805  -0.092446  -0.085103  -0.004426  4.017746  -0.002
C  C225  1  0.31688221  0.19964440  0.38906552  1  -0.058144  -0.004779  -0.092539  -0.085292  -0.004403  4.018129  -0.002
C  C226  1  0.84247489  0.75190685  0.57035028  1  -0.018354  -0.009498  -0.083509  -0.087421  -0.009717  3.976079  -0.005
C  C227  1  0.24810398  0.15749790  0.42966754  1  -0.018922  -0.009545  -0.083306  -0.087099  -0.009762  3.975929  -0.005
C  C228  1  0.83473229  0.02773244  0.57526405  1  -0.564245  -0.019273  -0.030641  -0.06871  -0.016843  3.963813  -0.011
C  C229  1  0.97226619  0.16525819  0.42474334  1  -0.564517  -0.019215  -0.030624  -0.068553  -0.016789  3.963507  -0.011
C  C230  1  0.76440419  0.05977881  0.52565472  1  -0.051961  -0.009953  -0.087986  -0.08963  -0.00966  3.973422  -0.005
C  C231  1  0.94023009  0.23559509  0.47434641  1  -0.051792  -0.009951  -0.087815  -0.089523  -0.009658  3.972902  -0.005
C  C232  1  0.72529601  0.13643978  0.55313574  1  0.00682  -0.002501  -0.089377  -0.070642  -0.002653  4.013503  0.0
C  C233  1  0.86356358  0.27470746  0.44685753  1  0.00681  -0.002501  -0.08945  -0.070674  -0.002654  4.013601  0.0
C  C234  1  0.75663909  0.18279483  0.62959327  1  -0.126915  -0.013968  -0.09096  -0.079222  -0.013789  4.004063  -0.008
C  C235  1  0.81720556  0.24335100  0.37040970  1  -0.126533  -0.01394  -0.090911  -0.079226  -0.01376  4.004267  -0.008
C  C236  1  0.86678980  0.07514909  0.65147194  1  -0.007846  -0.006383  -0.094376  -0.100257  -0.006456  3.994535  -0.003
C  C237  1  0.92485697  0.13320383  0.34853569  1  -0.007342  -0.006365  -0.094375  -0.100415  -0.006439  3.994296  -0.003
C  C238  1  0.82783635  0.15233182  0.67819337  1  -0.018554  -0.003212  -0.096113  -0.086456  -0.003034  4.019428  -0.001
C  C239  1  0.84766950  0.17215694  0.32180626  1  -0.019144  -0.003223  -0.096189  -0.086486  -0.003046  4.019284  -0.001
Cl  Cl240  1  0.62187674  0.37813026  0.00000458  1  -0.420319  -0.006682  -0.21264  -0.155884  -0.005699  1.850359  -0.003
Cl  Cl241  1  0.86152463  0.90393732  0.23619923  1  -0.417752  -0.006874  -0.211709  -0.15571  -0.006018  1.849703  -0.004
Cl  Cl242  1  0.09607377  0.13849187  0.76382080  1  -0.417981  -0.006894  -0.211701  -0.155659  -0.006034  1.849632  -0.004
