# generated using pymatgen
data_NdH28C24N3O11
_symmetry_space_group_name_H-M   'P 1'
_cell_length_a   9.84583200
_cell_length_b   10.86819385
_cell_length_c   13.00640000
_cell_angle_alpha   101.34401919
_cell_angle_beta   92.94439149
_cell_angle_gamma   105.01725388
_symmetry_Int_Tables_number   1
_chemical_formula_structural   NdH28C24N3O11
_chemical_formula_sum   'Nd2 H56 C48 N6 O22'
_cell_volume   1310.25704583
_cell_formula_units_Z   2
loop_
 _symmetry_equiv_pos_site_id
 _symmetry_equiv_pos_as_xyz
  1  'x, y, z'
loop_
 _atom_site_type_symbol
 _atom_site_label
 _atom_site_symmetry_multiplicity
 _atom_site_fract_x
 _atom_site_fract_y
 _atom_site_fract_z
 _atom_site_occupancy
 _atom_site_hle17_bader_spin_density
 _atom_site_hle17_ddec_charge
 _atom_site_hle17_ddec_spin_density
 _atom_site_hle17_ddec_sum_bond_order
 _atom_site_hle17_magmom
 _atom_site_hse06_10hf_bader_spin_density
 _atom_site_hse06_10hf_ddec_charge
 _atom_site_hse06_10hf_ddec_spin_density
 _atom_site_hse06_10hf_ddec_sum_bond_order
 _atom_site_hse06_10hf_magmom
 _atom_site_hse06_bader_spin_density
 _atom_site_hse06_ddec_charge
 _atom_site_hse06_ddec_spin_density
 _atom_site_hse06_ddec_sum_bond_order
 _atom_site_hse06_magmom
 _atom_site_pbe_bader_charge
 _atom_site_pbe_bader_spin_density
 _atom_site_pbe_cm5_charge
 _atom_site_pbe_ddec_charge
 _atom_site_pbe_ddec_spin_density
 _atom_site_pbe_ddec_sum_bond_order
 _atom_site_pbe_magmom
Nd  Nd0  1  0.76115812  0.98310666  0.50251247  1  0  2.35113  0  1.641337  0  0  2.247979  0  2.018874  0  0  2.288347  0  1.971032  0  2.277499  0  1.494721  2.171283  0  2.140318  0
Nd  Nd1  1  0.23884597  0.01688985  0.49748066  1  0  2.351132  0  1.641078  0  0  2.247978  0  2.018586  0  0  2.288341  0  1.970741  0  2.277564  0  1.49479  2.171252  0  2.14008  0
H  H2  1  0.86569138  0.27287104  0.28888060  1  0  0.095755  0  0.959421  0  0  0.107153  0  1.021712  0  0  0.109231  0  1.020617  0  0.125351  0  0.108483  0.105377  0  1.023032  0
H  H3  1  0.13430893  0.72713327  0.71112366  1  0  0.095731  0  0.959462  0  0  0.107098  0  1.021778  0  0  0.109171  0  1.020688  0  0.125252  0  0.108449  0.105325  0  1.023096  0
H  H4  1  0.89526738  0.47880639  0.21920875  1  0  0.102508  0  0.952634  0  0  0.114017  0  1.009526  0  0  0.116742  0  1.010065  0  0.070196  0  0.102617  0.112055  0  1.009332  0
H  H5  1  0.10472102  0.52120573  0.78080786  1  0  0.102502  0  0.952666  0  0  0.114083  0  1.009459  0  0  0.116809  0  1.009995  0  0.069871  0  0.102639  0.11212  0  1.009265  0
H  H6  1  0.10339936  0.67068834  0.30087496  1  0  0.079712  0  0.969447  0  0  0.087416  0  1.035916  0  0  0.089558  0  1.034289  0  0.1139  0  0.116806  0.085735  0  1.037243  0
H  H7  1  0.89659427  0.32932086  0.69913368  1  0  0.079692  0  0.969448  0  0  0.087425  0  1.035896  0  0  0.089571  0  1.034261  0  0.113998  0  0.116815  0.085742  0  1.037225  0
H  H8  1  0.27587474  0.28728559  0.15938408  1  0  0.050035  0  0.910298  0  0  0.068681  0  0.967437  0  0  0.068264  0  0.967445  0  0.081946  0  0.101776  0.06886  0  0.967293  0
H  H9  1  0.72413037  0.71271775  0.84061713  1  0  0.050003  0  0.910311  0  0  0.068683  0  0.967433  0  0  0.068269  0  0.967437  0  0.081967  0  0.101764  0.068862  0  0.96729  0
H  H10  1  0.26083951  0.16194697  0.04584236  1  0  0.05058  0  0.952806  0  0  0.058904  0  1.025971  0  0  0.059387  0  1.025321  0  0.076553  0  0.09771  0.058507  0  1.026463  0
H  H11  1  0.73916835  0.83805540  0.95415956  1  0  0.050601  0  0.952677  0  0  0.058924  0  1.025862  0  0  0.059408  0  1.025212  0  0.076357  0  0.097721  0.058525  0  1.026353  0
H  H12  1  0.65158741  0.19044420  0.97564003  1  0  0.061771  0  0.943322  0  0  0.073413  0  1.005551  0  0  0.075313  0  1.003835  0  0.051657  0  0.108529  0.072205  0  1.006561  0
H  H13  1  0.34841624  0.80956793  0.02436487  1  0  0.061893  0  0.943306  0  0  0.073503  0  1.005561  0  0  0.075405  0  1.003843  0  0.051708  0  0.108583  0.072298  0  1.006574  0
H  H14  1  0.73040484  0.01111349  0.23299982  1  0  0.121677  0  0.946374  0  0  0.127862  0  1.010617  0  0  0.131843  0  1.006849  0  0.147476  0  0.117378  0.125428  0  1.012472  0
H  H15  1  0.26959896  0.98888887  0.76699964  1  0  0.12166  0  0.946384  0  0  0.127831  0  1.010636  0  0  0.131807  0  1.006873  0  0.147427  0  0.117379  0.125388  0  1.012509  0
H  H16  1  0.14761507  0.82353348  0.17908718  1  0  0.114142  0  0.927612  0  0  0.125623  0  0.983795  0  0  0.129289  0  0.980296  0  0.137012  0  0.117917  0.123008  0  0.985823  0
H  H17  1  0.85237681  0.17646302  0.82091393  1  0  0.114088  0  0.927591  0  0  0.125643  0  0.983705  0  0  0.129312  0  0.980203  0  0.137139  0  0.117928  0.123031  0  0.985734  0
H  H18  1  0.12198986  0.67582440  0.99718153  1  0  0.096108  0  0.971372  0  0  0.104348  0  1.036689  0  0  0.107628  0  1.036092  0  0.064258  0  0.100808  0.101901  0  1.037584  0
H  H19  1  0.87800928  0.32416235  0.00282287  1  0  0.096168  0  0.971457  0  0  0.104367  0  1.0368  0  0  0.107643  0  1.03621  0  0.064353  0  0.100817  0.101923  0  1.037693  0
H  H20  1  0.87828557  0.54846824  0.91570143  1  0  0.059783  0  0.953358  0  0  0.065961  0  1.022411  0  0  0.068297  0  1.02077  0  0.08372  0  0.105225  0.064214  0  1.023717  0
H  H21  1  0.12171357  0.45152534  0.08429948  1  0  0.059806  0  0.953374  0  0  0.065982  0  1.022413  0  0  0.06832  0  1.020774  0  0.083858  0  0.105239  0.064234  0  1.023719  0
H  H22  1  0.52867989  0.52801770  0.09882505  1  0  0.050578  0  0.93393  0  0  0.062539  0  1.003876  0  0  0.063007  0  1.002583  0  0.085761  0  0.10057  0.06217  0  1.004734  0
H  H23  1  0.47130908  0.47197588  0.90116778  1  0  0.050497  0  0.933958  0  0  0.062487  0  1.003881  0  0  0.062957  0  1.002588  0  0.085916  0  0.10055  0.06212  0  1.004742  0
H  H24  1  0.54067832  0.66674308  0.04258204  1  0  0.056732  0  0.947104  0  0  0.063757  0  1.024835  0  0  0.064801  0  1.022752  0  0.080151  0  0.100573  0.06291  0  1.026417  0
H  H25  1  0.45931545  0.33325636  0.95742040  1  0  0.056743  0  0.947  0  0  0.063735  0  1.024768  0  0  0.06478  0  1.022685  0  0.080316  0  0.100578  0.06289  0  1.026354  0
H  H26  1  0.41372080  0.62696740  0.25052892  1  0  0.110766  0  0.955748  0  0  0.131124  0  1.015923  0  0  0.132819  0  1.015955  0  0.046181  0  0.09057  0.129618  0  1.016388  0
H  H27  1  0.58627471  0.37302423  0.74947230  1  0  0.110746  0  0.955927  0  0  0.131142  0  1.016043  0  0  0.132842  0  1.016071  0  0.046291  0  0.090553  0.129636  0  1.016507  0
H  H28  1  0.31986175  0.61887776  0.12798826  1  0  0.10002  0  0.966858  0  0  0.121356  0  1.032817  0  0  0.121282  0  1.034223  0  0.050425  0  0.08942  0.121253  0  1.031533  0
H  H29  1  0.68013129  0.38111582  0.87201472  1  0  0.100047  0  0.96692  0  0  0.121427  0  1.032817  0  0  0.121348  0  1.034225  0  0.050478  0  0.089456  0.121315  0  1.031548  0
H  H30  1  0.43477770  0.77038960  0.19994789  1  0  0.114654  0  0.948227  0  0  0.134863  0  1.008174  0  0  0.135901  0  1.00903  0  0.008199  0  0.093067  0.133946  0  1.007701  0
H  H31  1  0.56521505  0.22960300  0.80005492  1  0  0.114671  0  0.948157  0  0  0.13484  0  1.008176  0  0  0.135879  0  1.009031  0  0.008083  0  0.093053  0.133924  0  1.007702  0
H  H32  1  0.30248394  0.66334148  0.58916847  1  0  0.056626  0  0.935612  0  0  0.070685  0  1.001869  0  0  0.070304  0  1.00206  0  0.077019  0  0.107176  0.070691  0  1.002109  0
H  H33  1  0.69751637  0.33666283  0.41083425  1  0  0.056607  0  0.935499  0  0  0.070647  0  1.001777  0  0  0.070267  0  1.001967  0  0.077075  0  0.107168  0.070665  0  1.002  0
H  H34  1  0.42906116  0.62269028  0.50613961  1  0  0.062903  0  0.943751  0  0  0.078373  0  1.005376  0  0  0.078699  0  1.004768  0  0.080716  0  0.106648  0.077861  0  1.006294  0
H  H35  1  0.57094017  0.37731404  0.49386315  1  0  0.062865  0  0.943807  0  0  0.078312  0  1.005441  0  0  0.078637  0  1.004831  0  0.080704  0  0.106619  0.0778  0  1.00636  0
H  H36  1  0.05047968  0.02020945  0.10334398  1  0  0.097345  0  0.960111  0  0  0.119125  0  1.021816  0  0  0.119561  0  1.023195  0  -0.00753  0  0.084955  0.11875  0  1.021066  0
H  H37  1  0.94952513  0.97979291  0.89665321  1  0  0.097354  0  0.96018  0  0  0.119155  0  1.021863  0  0  0.119591  0  1.02324  0  -0.007527  0  0.084964  0.118781  0  1.021112  0
H  H38  1  0.02282015  0.17752010  0.11255598  1  0  0.091471  0  0.991946  0  0  0.11109  0  1.060572  0  0  0.110625  0  1.063391  0  0.018207  0  0.084  0.11079  0  1.059813  0
H  H39  1  0.97718466  0.82248226  0.88744045  1  0  0.091484  0  0.99195  0  0  0.111089  0  1.060593  0  0  0.110624  0  1.063411  0  0.018225  0  0.083982  0.110787  0  1.059836  0
H  H40  1  0.07544328  0.12964698  0.22827842  1  0  0.122451  0  0.943555  0  0  0.143861  0  0.998847  0  0  0.144938  0  0.999821  0  0.037635  0  0.09784  0.143117  0  0.998239  0
H  H41  1  0.92455718  0.87035441  0.77171844  1  0  0.122492  0  0.943499  0  0  0.143914  0  0.998775  0  0  0.144977  0  0.999768  0  0.037564  0  0.09786  0.143171  0  0.998166  0
H  H42  1  0.37967346  0.54669668  0.72068980  1  0  0.102854  0  0.944368  0  0  0.124861  0  1.003357  0  0  0.125965  0  1.003835  0  0.028245  0  0.087325  0.124022  0  1.002983  0
H  H43  1  0.62031799  0.45330178  0.27930931  1  0  0.102824  0  0.944326  0  0  0.12486  0  1.003301  0  0  0.125962  0  1.003781  0  0.02812  0  0.087324  0.12402  0  1.002928  0
H  H44  1  0.52646421  0.66590854  0.69158308  1  0  0.120534  0  0.963248  0  0  0.139861  0  1.025056  0  0  0.141014  0  1.025654  0  0.079167  0  0.096977  0.138968  0  1.02472  0
H  H45  1  0.47353101  0.33408895  0.30842216  1  0  0.12056  0  0.963165  0  0  0.139887  0  1.024976  0  0  0.141029  0  1.025586  0  0.079125  0  0.096991  0.138991  0  1.024646  0
H  H46  1  0.50102001  0.49783578  0.63552615  1  0  0.105953  0  0.97316  0  0  0.12513  0  1.037614  0  0  0.126828  0  1.037176  0  0.030572  0  0.088649  0.123682  0  1.038286  0
H  H47  1  0.49897289  0.50216073  0.36447577  1  0  0.105974  0  0.973333  0  0  0.125158  0  1.037769  0  0  0.126857  0  1.037329  0  0.030743  0  0.088689  0.123713  0  1.038437  0
H  H48  1  0.80306730  0.07968898  0.06407740  1  0  0.098897  0  0.971574  0  0  0.112575  0  1.028626  0  0  0.115415  0  1.028998  0  0.087376  0  0.102035  0.110135  0  1.029303  0
H  H49  1  0.19693911  0.92032217  0.93592592  1  0  0.098881  0  0.971562  0  0  0.112563  0  1.028607  0  0  0.115403  0  1.028979  0  0.087555  0  0.102055  0.110125  0  1.029281  0
H  H50  1  0.71184610  0.26689947  0.56947148  1  0  0.409572  0  0.908157  0  0  0.371111  0  0.98633  0  0  0.382026  0  0.970556  0  0.627695  0  0.292989  0.363196  0  0.99771  0
H  H51  1  0.28815276  0.73309997  0.43052730  1  0  0.409511  0  0.908234  0  0  0.371027  0  0.986449  0  0  0.381942  0  0.970677  0  0.627677  0  0.292978  0.363113  0  0.997828  0
H  H52  1  0.57319734  0.15567769  0.58475414  1  0  0.435102  0  0.860675  0  0  0.405199  0  0.924665  0  0  0.415214  0  0.909766  0  0.654587  0  0.308967  0.398246  0  0.934726  0
H  H53  1  0.42680007  0.84431686  0.41523918  1  0  0.435046  0  0.86067  0  0  0.405133  0  0.924723  0  0  0.415147  0  0.909826  0  0.654602  0  0.308982  0.398179  0  0.934787  0
H  H54  1  0.67910625  0.69959551  0.44841920  1  0  0.432525  0  0.848951  0  0  0.399971  0  0.925615  0  0  0.410461  0  0.910049  0  0.631935  0  0.308613  0.392512  0  0.936533  0
H  H55  1  0.32089420  0.30039221  0.55158310  1  0  0.432457  0  0.848879  0  0  0.3999  0  0.925697  0  0  0.410389  0  0.910134  0  0.632115  0  0.308597  0.392443  0  0.936611  0
H  H56  1  0.65008152  0.74147461  0.34299946  1  0  0.431944  0  0.849804  0  0  0.39942  0  0.927782  0  0  0.409353  0  0.913099  0  0.653481  0  0.310117  0.392422  0  0.937998  0
H  H57  1  0.34992009  0.25852385  0.65700850  1  0  0.431905  0  0.849808  0  0  0.39938  0  0.927826  0  0  0.409317  0  0.913136  0  0.65349  0  0.310063  0.392381  0  0.938044  0
C  C58  1  0.02961123  0.22650594  0.43579645  1  0  0.745871  0  3.870707  0  0  0.694397  0  4.173578  0  0  0.731234  0  4.159466  0  1.629034  0  0.234401  0.669127  0  4.179601  0
C  C59  1  0.97043238  0.77349349  0.56419331  1  0  0.74599  0  3.870582  0  0  0.694516  0  4.173521  0  0  0.731367  0  4.159404  0  1.629412  0  0.234453  0.669246  0  4.179544  0
C  C60  1  0.05216975  0.35170987  0.39814621  1  0  -0.204038  0  3.676155  0  0  -0.184209  0  3.917775  0  0  -0.198759  0  3.937178  0  0.023518  0  -0.015312  -0.17571  0  3.906314  0
C  C61  1  0.94783738  0.64829347  0.60185047  1  0  -0.20383  0  3.676065  0  0  -0.18416  0  3.917836  0  0  -0.19872  0  3.937245  0  0.023714  0  -0.015278  -0.175659  0  3.906374  0
C  C62  1  0.95461922  0.35853843  0.31934115  1  0  0.001372  0  3.73592  0  0  -0.027357  0  3.985453  0  0  -0.019776  0  4.002189  0  -0.098124  0  -0.066939  -0.032128  0  3.974712  0
C  C63  1  0.04538342  0.64146686  0.68066336  1  0  0.001448  0  3.735754  0  0  -0.027223  0  3.985338  0  0  -0.019646  0  4.002084  0  -0.098419  0  -0.066867  -0.031996  0  3.974594  0
C  C64  1  0.16543928  0.46525273  0.43810839  1  0  0.436117  0  3.775743  0  0  0.393527  0  4.053552  0  0  0.414972  0  4.063025  0  1.091204  0  0.224125  0.379019  0  4.047346  0
C  C65  1  0.83456437  0.53475256  0.56189154  1  0  0.435869  0  3.776046  0  0  0.393422  0  4.053714  0  0  0.414865  0  4.063195  0  1.091096  0  0.22406  0.378912  0  4.047507  0
C  C66  1  0.97062277  0.47200614  0.28072335  1  0  -0.161452  0  3.783705  0  0  -0.176214  0  4.044618  0  0  -0.18511  0  4.065726  0  -0.05159  0  -0.103254  -0.170471  0  4.030246  0
C  C67  1  0.02937028  0.52800111  0.71928649  1  0  -0.161648  0  3.783764  0  0  -0.176471  0  4.044703  0  0  -0.185368  0  4.065809  0  -0.051732  0  -0.103343  -0.170725  0  4.030331  0
C  C68  1  0.08517282  0.57762920  0.32492336  1  0  0.145055  0  3.727142  0  0  0.114275  0  3.981422  0  0  0.123148  0  3.998227  0  0.531152  0  0.044484  0.108511  0  3.970146  0
C  C69  1  0.91482357  0.42237902  0.67508369  1  0  0.145089  0  3.727079  0  0  0.114279  0  3.981398  0  0  0.123156  0  3.998187  0  0.522861  0  0.044437  0.108513  0  3.970123  0
C  C70  1  0.45636813  0.12378668  0.16352599  1  0  0.424352  0  3.818966  0  0  0.386661  0  4.096954  0  0  0.408307  0  4.106512  0  1.109284  0  0.220574  0.371508  0  4.090731  0
C  C71  1  0.54363349  0.87621861  0.83647694  1  0  0.424356  0  3.81898  0  0  0.386635  0  4.096991  0  0  0.408277  0  4.10655  0  1.109078  0  0.220478  0.371482  0  4.090769  0
C  C72  1  0.24098119  0.18085532  0.12887751  1  0  0.151337  0  3.614896  0  0  0.091868  0  3.89351  0  0  0.101687  0  3.897819  0  0.368874  0  -0.067503  0.084911  0  3.890891  0
C  C73  1  0.75902260  0.81914704  0.87112272  1  0  0.151407  0  3.614753  0  0  0.091883  0  3.893389  0  0  0.1017  0  3.897697  0  0.369067  0  -0.067534  0.084931  0  3.890765  0
C  C74  1  0.62216447  0.15398324  0.04624100  1  0  0.147891  0  3.773539  0  0  0.12022  0  4.036042  0  0  0.129723  0  4.052176  0  0.496121  0  0.041405  0.113927  0  4.024878  0
C  C75  1  0.37784005  0.84602498  0.95376253  1  0  0.147738  0  3.773496  0  0  0.120085  0  4.036002  0  0  0.129586  0  4.052135  0  0.496551  0  0.041342  0.113786  0  4.024846  0
C  C76  1  0.54106527  0.07307320  0.22708791  1  0  -0.230165  0  3.685551  0  0  -0.210854  0  3.927833  0  0  -0.226807  0  3.948607  0  -0.047926  0  -0.023166  -0.200728  0  3.914901  0
C  C77  1  0.45893867  0.92692623  0.77291338  1  0  -0.230133  0  3.685396  0  0  -0.210829  0  3.927727  0  0  -0.226786  0  3.9485  0  -0.047921  0  -0.023135  -0.200704  0  3.914795  0
C  C78  1  0.66632035  0.05541031  0.18864287  1  0  0.006058  0  3.699235  0  0  -0.022022  0  3.951609  0  0  -0.01361  0  3.966062  0  0.004204  0  -0.064591  -0.027069  0  3.941181  0
C  C79  1  0.33368097  0.94459401  0.81135913  1  0  0.005986  0  3.699023  0  0  -0.022066  0  3.951408  0  0  -0.013656  0  3.965862  0  0.004274  0  -0.064626  -0.027117  0  3.940986  0
C  C80  1  0.50527135  0.04092158  0.33134233  1  0  0.736053  0  3.857368  0  0  0.685976  0  4.152533  0  0  0.722355  0  4.140609  0  1.611112  0  0.238873  0.660969  0  4.157124  0
C  C81  1  0.49472431  0.95908079  0.66865913  1  0  0.736033  0  3.857085  0  0  0.685918  0  4.152329  0  0  0.722308  0  4.140377  0  1.611075  0  0.238818  0.660913  0  4.15692  0
C  C82  1  0.94793642  0.86356684  0.29822107  1  0  0.738511  0  3.875496  0  0  0.688784  0  4.175891  0  0  0.724858  0  4.163563  0  1.619431  0  0.232493  0.66413  0  4.180782  0
C  C83  1  0.05206244  0.13643943  0.70177269  1  0  0.738589  0  3.875536  0  0  0.68884  0  4.176031  0  0  0.72491  0  4.163695  0  1.619624  0  0.232567  0.664162  0  4.180956  0
C  C84  1  0.92557014  0.77459840  0.19053058  1  0  -0.217417  0  3.670497  0  0  -0.197902  0  3.90973  0  0  -0.212836  0  3.929874  0  0.010662  0  -0.020117  -0.189088  0  3.897679  0
C  C85  1  0.07442334  0.22540006  0.80946707  1  0  -0.217311  0  3.670334  0  0  -0.197827  0  3.909645  0  0  -0.212759  0  3.929795  0  0.011073  0  -0.02001  -0.189003  0  3.897597  0
C  C86  1  0.79196156  0.69750576  0.13642195  1  0  0.428665  0  3.776771  0  0  0.392521  0  4.049865  0  0  0.414261  0  4.058416  0  1.09892  0  0.219705  0.377837  0  4.04422  0
C  C87  1  0.20803395  0.30248587  0.86357542  1  0  0.42869  0  3.776699  0  0  0.392561  0  4.049793  0  0  0.414293  0  4.058352  0  1.098862  0  0.21973  0.377876  0  4.044146  0
C  C88  1  0.04455108  0.76501245  0.13859414  1  0  -0.008798  0  3.744956  0  0  -0.036489  0  3.99612  0  0  -0.029266  0  4.012424  0  -0.09383  0  -0.068722  -0.040692  0  3.984771  0
C  C89  1  0.95544530  0.23498210  0.86140683  1  0  -0.008593  0  3.745176  0  0  -0.036385  0  3.996399  0  0  -0.029158  0  4.012701  0  -0.093713  0  -0.06872  -0.040595  0  3.985055  0
C  C90  1  0.03069902  0.68408192  0.03899652  1  0  -0.176885  0  3.811775  0  0  -0.192299  0  4.072158  0  0  -0.201903  0  4.094186  0  -0.015318  0  -0.107685  -0.186152  0  4.057279  0
C  C91  1  0.96929634  0.31590581  0.96100481  1  0  -0.177047  0  3.812044  0  0  -0.192425  0  4.072471  0  0  -0.202029  0  4.094499  0  -0.015908  0  -0.107744  -0.18628  0  4.057594  0
C  C92  1  0.89488642  0.61295987  0.99390785  1  0  0.142837  0  3.788806  0  0  0.11849  0  4.048921  0  0  0.127716  0  4.064709  0  0.456443  0  0.044149  0.112741  0  4.037734  0
C  C93  1  0.10510982  0.38703078  0.00609247  1  0  0.142818  0  3.788909  0  0  0.118494  0  4.048962  0  0  0.127718  0  4.064752  0  0.456348  0  0.044199  0.112745  0  4.037777  0
C  C94  1  0.53807353  0.63306684  0.11696931  1  0  0.147955  0  3.591125  0  0  0.085708  0  3.871052  0  0  0.095552  0  3.875313  0  0.347368  0  -0.067672  0.078743  0  3.868388  0
C  C95  1  0.46191472  0.36692772  0.88302903  1  0  0.148159  0  3.591097  0  0  0.085925  0  3.871024  0  0  0.095762  0  3.875293  0  0.347195  0  -0.067664  0.078946  0  3.868373  0
C  C96  1  0.42050389  0.66470017  0.17813644  1  0  -0.320054  0  3.688343  0  0  -0.396317  0  3.932044  0  0  -0.399112  0  3.941771  0  -0.04859  0  -0.249773  -0.393935  0  3.925255  0
C  C97  1  0.57949220  0.33529341  0.82186436  1  0  -0.320159  0  3.6884  0  0  -0.396452  0  3.932088  0  0  -0.399244  0  3.941816  0  -0.048637  0  -0.249773  -0.394062  0  3.925302  0
C  C98  1  0.36126593  0.59086856  0.56575143  1  0  0.143549  0  3.587416  0  0  0.084295  0  3.860996  0  0  0.093663  0  3.866638  0  0.34836  0  -0.06901  0.077909  0  3.857424  0
C  C99  1  0.63873205  0.40913478  0.43425181  1  0  0.143648  0  3.587331  0  0  0.084434  0  3.86084  0  0  0.09381  0  3.866467  0  0.34782  0  -0.068916  0.078042  0  3.857269  0
C  C100  1  0.08835696  0.12327034  0.14435122  1  0  -0.323873  0  3.70475  0  0  -0.401492  0  3.949924  0  0  -0.404237  0  3.960254  0  -0.007596  0  -0.253019  -0.399639  0  3.944009  0
C  C101  1  0.91164756  0.87673105  0.85564734  1  0  -0.323991  0  3.704744  0  0  -0.40164  0  3.949944  0  0  -0.404375  0  3.960281  0  -0.007607  0  -0.253037  -0.399784  0  3.944028  0
C  C102  1  0.44637405  0.57326423  0.65892935  1  0  -0.323468  0  3.694799  0  0  -0.399575  0  3.938245  0  0  -0.402965  0  3.947848  0  -0.061944  0  -0.249348  -0.397042  0  3.93182  0
C  C103  1  0.55361972  0.42673521  0.34107385  1  0  -0.32351  0  3.694822  0  0  -0.399665  0  3.93826  0  0  -0.403045  0  3.947865  0  -0.061927  0  -0.249411  -0.397129  0  3.931829  0
C  C104  1  0.70717747  0.09426067  0.09612968  1  0  -0.168711  0  3.78305  0  0  -0.186039  0  4.043535  0  0  -0.195732  0  4.064899  0  -0.082034  0  -0.10748  -0.179741  0  4.029731  0
C  C105  1  0.29282575  0.90574657  0.90387210  1  0  -0.168542  0  3.782857  0  0  -0.185867  0  4.04332  0  0  -0.195556  0  4.064682  0  -0.082381  0  -0.107436  -0.179571  0  4.029516  0
N  N106  1  0.18004112  0.57425494  0.40184365  1  0  -0.421402  0  3.174165  0  0  -0.364104  0  3.42961  0  0  -0.381901  0  3.443054  0  -1.279681  0  -0.32062  -0.352067  0  3.420768  0
N  N107  1  0.81995773  0.42575133  0.59816010  1  0  -0.421271  0  3.174183  0  0  -0.364033  0  3.429597  0  0  -0.381827  0  3.443034  0  -1.270895  0  -0.320575  -0.351998  0  3.42076  0
N  N108  1  0.49920065  0.16867304  0.07875535  1  0  -0.427303  0  3.107502  0  0  -0.388577  0  3.379809  0  0  -0.405187  0  3.392931  0  -1.235954  0  -0.3344  -0.376578  0  3.370069  0
N  N109  1  0.50080024  0.83133323  0.92124848  1  0  -0.427313  0  3.107507  0  0  -0.388586  0  3.379816  0  0  -0.405194  0  3.392939  0  -1.236122  0  -0.33438  -0.376588  0  3.370078  0
N  N110  1  0.77830426  0.61853614  0.04129756  1  0  -0.426491  0  3.093241  0  0  -0.388695  0  3.365165  0  0  -0.404355  0  3.377002  0  -1.241043  0  -0.334508  -0.377744  0  3.356532  0
N  N111  1  0.22169024  0.38145549  0.95869977  1  0  -0.426556  0  3.093192  0  0  -0.388751  0  3.36505  0  0  -0.404411  0  3.376892  0  -1.240894  0  -0.334578  -0.377802  0  3.356418  0
O  O112  1  0.07321811  0.90078523  0.34442503  1  0  -0.750137  0  2.030839  0  0  -0.711445  0  2.296867  0  0  -0.734463  0  2.281563  0  -1.208453  0  -0.397817  -0.687733  0  2.307222  0
O  O113  1  0.92676433  0.09924447  0.65556271  1  0  -0.750289  0  2.030627  0  0  -0.711489  0  2.296434  0  0  -0.734539  0  2.28121  0  -1.208439  0  -0.397846  -0.68777  0  2.3068  0
O  O114  1  0.41072976  0.08251860  0.37779796  1  0  -0.708812  0  1.999703  0  0  -0.668077  0  2.255273  0  0  -0.690139  0  2.240573  0  -1.190162  0  -0.387605  -0.645974  0  2.26669  0
O  O115  1  0.58927578  0.91747596  0.62219798  1  0  -0.70901  0  1.999139  0  0  -0.668261  0  2.25472  0  0  -0.690347  0  2.24005  0  -1.190023  0  -0.387692  -0.646147  0  2.266104  0
O  O116  1  0.61984793  0.74355266  0.41413073  1  0  -0.865356  0  1.866753  0  0  -0.819999  0  2.070461  0  0  -0.837975  0  2.039379  0  -1.259407  0  -0.611071  -0.802708  0  2.094581  0
O  O117  1  0.38015543  0.25644482  0.58587714  1  0  -0.865236  0  1.866631  0  0  -0.819898  0  2.070494  0  0  -0.83787  0  2.039407  0  -1.259567  0  -0.610966  -0.802605  0  2.094624  0
O  O118  1  0.90213840  0.16699030  0.44133667  1  0  -0.724735  0  2.016848  0  0  -0.682532  0  2.27908  0  0  -0.707556  0  2.266941  0  -1.196411  0  -0.391137  -0.658376  0  2.287728  0
O  O119  1  0.09789241  0.83298669  0.55865814  1  0  -0.724738  0  2.017237  0  0  -0.682516  0  2.279494  0  0  -0.707489  0  2.267224  0  -1.196838  0  -0.391118  -0.658355  0  2.28814  0
O  O120  1  0.67227845  0.17244651  0.57031801  1  0  -0.928569  0  1.929673  0  0  -0.886957  0  2.137172  0  0  -0.903949  0  2.104142  0  -1.291338  0  -0.653319  -0.868977  0  2.162962  0
O  O121  1  0.32771953  0.82755000  0.42966719  1  0  -0.928447  0  1.929584  0  0  -0.886808  0  2.137259  0  0  -0.903804  0  2.104226  0  -1.291333  0  -0.65336  -0.868829  0  2.163053  0
O  O122  1  0.13718488  0.18798842  0.45612442  1  0  -0.756585  0  2.045565  0  0  -0.712826  0  2.303772  0  0  -0.735425  0  2.286732  0  -1.210365  0  -0.383736  -0.689911  0  2.3152  0
O  O123  1  0.86285582  0.81202859  0.54385351  1  0  -0.756755  0  2.045041  0  0  -0.713008  0  2.303307  0  0  -0.73559  0  2.286191  0  -1.210082  0  -0.383741  -0.690102  0  2.314752  0
O  O124  1  0.57562130  0.97244606  0.36844580  1  0  -0.763876  0  2.063958  0  0  -0.709205  0  2.319449  0  0  -0.733916  0  2.305043  0  -1.214904  0  -0.40101  -0.685385  0  2.329472  0
O  O125  1  0.42438147  0.02754264  0.63155215  1  0  -0.763704  0  2.064226  0  0  -0.709039  0  2.319739  0  0  -0.733752  0  2.30533  0  -1.215036  0  -0.400894  -0.685213  0  2.32976  0
O  O126  1  0.25897744  0.46560607  0.51822450  1  0  -0.320427  0  2.286252  0  0  -0.239864  0  2.519818  0  0  -0.260736  0  2.520944  0  -1.074878  0  -0.16687  -0.225408  0  2.518837  0
O  O127  1  0.74102418  0.53439922  0.48177690  1  0  -0.320397  0  2.286282  0  0  -0.239838  0  2.519733  0  0  -0.260716  0  2.520861  0  -1.074335  0  -0.166869  -0.225379  0  2.518753  0
O  O128  1  0.32528237  0.12255293  0.18889167  1  0  -0.296872  0  2.316935  0  0  -0.221346  0  2.554544  0  0  -0.241529  0  2.555265  0  -1.07079  0  -0.16111  -0.206745  0  2.553743  0
O  O129  1  0.67472448  0.87744943  0.81111329  1  0  -0.296918  0  2.316932  0  0  -0.221311  0  2.554516  0  0  -0.24149  0  2.555238  0  -1.070757  0  -0.161034  -0.206714  0  2.553716  0
O  O130  1  0.84254081  0.89553985  0.33533182  1  0  -0.74365  0  2.102608  0  0  -0.700769  0  2.36312  0  0  -0.723406  0  2.348434  0  -1.206133  0  -0.383878  -0.678692  0  2.37286  0
O  O131  1  0.15742405  0.10444788  0.66465834  1  0  -0.743755  0  2.103137  0  0  -0.700851  0  2.363619  0  0  -0.723498  0  2.34897  0  -1.20639  0  -0.383983  -0.678771  0  2.373384  0
O  O132  1  0.67219496  0.70167844  0.18205014  1  0  -0.310581  0  2.296126  0  0  -0.227732  0  2.525197  0  0  -0.248859  0  2.525968  0  -1.058702  0  -0.162048  -0.213404  0  2.524707  0
O  O133  1  0.32779735  0.29830928  0.81794800  1  0  -0.310697  0  2.29658  0  0  -0.227849  0  2.525659  0  0  -0.248967  0  2.526435  0  -1.05904  0  -0.162092  -0.213507  0  2.525163  0
