# generated using pymatgen
data_CuH14C8O5
_symmetry_space_group_name_H-M   'P 1'
_cell_length_a   7.96799838
_cell_length_b   8.94354848
_cell_length_c   14.59088780
_cell_angle_alpha   105.28725403
_cell_angle_beta   90.00002651
_cell_angle_gamma   89.99928328
_symmetry_Int_Tables_number   1
_chemical_formula_structural   CuH14C8O5
_chemical_formula_sum   'Cu4 H56 C32 O20'
_cell_volume   1002.98704668
_cell_formula_units_Z   4
loop_
 _symmetry_equiv_pos_site_id
 _symmetry_equiv_pos_as_xyz
  1  'x, y, z'
loop_
 _atom_site_type_symbol
 _atom_site_label
 _atom_site_symmetry_multiplicity
 _atom_site_fract_x
 _atom_site_fract_y
 _atom_site_fract_z
 _atom_site_occupancy
 _atom_site_hle17_ddec_charge
 _atom_site_hle17_ddec_spin_density
 _atom_site_hle17_ddec_sum_bond_order
 _atom_site_hle17_magmom
 _atom_site_hse06_10hf_ddec_charge
 _atom_site_hse06_10hf_ddec_spin_density
 _atom_site_hse06_10hf_ddec_sum_bond_order
 _atom_site_hse06_10hf_magmom
 _atom_site_hse06_ddec_charge
 _atom_site_hse06_ddec_spin_density
 _atom_site_hse06_ddec_sum_bond_order
 _atom_site_hse06_magmom
 _atom_site_pbe_cm5_charge
 _atom_site_pbe_ddec_charge
 _atom_site_pbe_ddec_spin_density
 _atom_site_pbe_ddec_sum_bond_order
 _atom_site_pbe_magmom
Cu  Cu0  1  0.96419097  0.14133458  0.01209352  1  0.856222  -0.653516  1.863999  -0.467  0.847279  -0.784024  2.266252  -0.615  0.948047  -0.87531  2.183428  -0.714  0.674436  0.781701  -0.681276  2.325491  -0.524
Cu  Cu1  1  0.46420716  0.35867051  0.48790323  1  0.856178  0.65361  1.864133  0.467  0.847377  0.784068  2.266196  0.615  0.949665  0.875357  2.183451  0.714  0.674487  0.781858  0.681365  2.325307  0.524
Cu  Cu2  1  0.03578515  0.85868314  0.98790581  1  0.856035  0.653518  1.864311  0.467  0.84719  0.78402  2.266511  0.615  0.965313  0.87529  2.153987  0.714  0.674442  0.781816  0.681291  2.325335  0.524
Cu  Cu3  1  0.53579657  0.64132404  0.51209718  1  0.856156  -0.653615  1.864231  -0.467  0.847289  -0.784071  2.266363  -0.615  0.949617  -0.875349  2.183559  -0.714  0.674487  0.781841  -0.681385  2.325392  -0.524
H  H4  1  0.76792534  0.80331233  0.70434707  1  0.114867  -0.001018  0.93926  -0.001  0.125617  -0.000663  1.003111  -0.001  0.127895  -0.000406  1.002331  -0.001  0.101262  0.123863  -0.000806  1.003723  -0.001
H  H5  1  0.26795365  0.69670485  0.79565689  1  0.114921  0.001017  0.93909  0.001  0.1256  0.000662  1.003025  0.001  0.127842  0.000405  1.002378  0.001  0.10128  0.123839  0.000805  1.003644  0.001
H  H6  1  0.23205078  0.19669610  0.29563980  1  0.115019  0.001017  0.939126  0.001  0.125715  0.000662  1.003008  0.001  0.127992  0.000405  1.002245  0.001  0.10131  0.123957  0.000805  1.003628  0.001
H  H7  1  0.73205510  0.30330128  0.20434195  1  0.114811  -0.001016  0.939051  -0.001  0.125509  -0.000662  1.003004  -0.001  0.127785  -0.000405  1.002249  -0.001  0.101227  0.12375  -0.000805  1.003628  -0.001
H  H8  1  0.76867644  0.00618032  0.71500215  1  0.093657  0.001226  0.94336  0.002  0.108007  0.000822  1.005257  0.001  0.10871  0.000557  1.006085  0.001  0.097209  0.107306  0.000948  1.00466  0.001
H  H9  1  0.26869177  0.49383239  0.78500220  1  0.093621  -0.001226  0.943477  -0.002  0.107964  -0.000822  1.005385  -0.001  0.108668  -0.000558  1.006211  -0.001  0.097162  0.107262  -0.000948  1.004786  -0.001
H  H10  1  0.23133607  0.99382349  0.28499152  1  0.093732  -0.001227  0.94355  -0.002  0.108066  -0.000822  1.005406  -0.001  0.108775  -0.000558  1.006208  -0.001  0.097248  0.107365  -0.000948  1.004807  -0.001
H  H11  1  0.73130192  0.50617027  0.21499883  1  0.093565  0.001226  0.943457  0.002  0.107921  0.000822  1.005373  0.001  0.108622  0.000557  1.006224  0.001  0.097158  0.107222  0.000947  1.004776  0.001
H  H12  1  0.96797634  0.86578539  0.58903275  1  0.106768  -0.000228  0.942766  0.0  0.128924  -0.000165  1.000995  0.0  0.129588  -0.000102  1.001764  0.0  0.091936  0.128446  -0.000207  1.000322  0.0
H  H13  1  0.46797804  0.63419236  0.91098136  1  0.106732  0.00023  0.942755  0.0  0.128888  0.000166  1.001022  0.0  0.129551  0.000103  1.001773  0.0  0.091944  0.128439  0.000207  1.000316  0.0
H  H14  1  0.03205249  0.13416283  0.41097734  1  0.106659  0.000231  0.942693  0.0  0.128828  0.000167  1.00094  0.0  0.129489  0.000103  1.001718  0.0  0.091911  0.128382  0.000208  1.000229  0.0
H  H15  1  0.53200561  0.36580220  0.08902385  1  0.106717  -0.00023  0.942803  0.0  0.128932  -0.000166  1.000987  0.0  0.12957  -0.000103  1.001773  0.0  0.091964  0.128461  -0.000207  1.000309  0.0
H  H16  1  0.08057947  0.99410813  0.68325944  1  0.08554  -5.8e-05  0.960842  0.0  0.1087  -8e-05  1.021537  0.0  0.10844  -3.9e-05  1.023648  0.0  0.084053  0.108863  -0.000115  1.019631  0.0
H  H17  1  0.58060693  0.50588696  0.81675464  1  0.085589  5.7e-05  0.960923  0.0  0.108823  8e-05  1.021518  0.0  0.108565  3.9e-05  1.023636  0.0  0.084144  0.108985  0.000115  1.019612  0.0
H  H18  1  0.91941296  0.00586674  0.31674877  1  0.085497  5.7e-05  0.96088  0.0  0.108668  8e-05  1.021589  0.0  0.108407  3.9e-05  1.023693  0.0  0.084051  0.108834  0.000115  1.019685  0.0
H  H19  1  0.41938802  0.49411573  0.18325735  1  0.085541  -5.8e-05  0.96089  0.0  0.108772  -8e-05  1.021493  0.0  0.108518  -3.9e-05  1.023599  0.0  0.084125  0.108935  -0.000115  1.019584  0.0
H  H20  1  0.07883014  0.79164085  0.67296532  1  0.099623  0.00011  0.95483  0.0  0.119815  9.5e-05  1.017809  0.0  0.121262  6.5e-05  1.017716  0.0  0.087281  0.119014  0.000116  1.017022  0.0
H  H21  1  0.57883342  0.70835776  0.82706167  1  0.099664  -0.000111  0.955107  0.0  0.119886  -9.5e-05  1.018047  0.0  0.12135  -6.6e-05  1.017931  0.0  0.087354  0.119079  -0.000116  1.017272  0.0
H  H22  1  0.92118740  0.20833639  0.32706657  1  0.099619  -0.00011  0.955135  0.0  0.119824  -9.5e-05  1.01806  0.0  0.121281  -6.6e-05  1.017967  0.0  0.087342  0.11902  -0.000116  1.017282  0.0
H  H23  1  0.42115902  0.29163797  0.17295058  1  0.09967  0.000109  0.95494  0.0  0.119858  9.5e-05  1.017933  0.0  0.121319  6.6e-05  1.017832  0.0  0.087357  0.119055  0.000116  1.01715  0.0
H  H24  1  0.54875512  0.07198691  0.93403540  1  0.117347  -0.000185  0.937699  0.0  0.132406  -0.000147  0.994709  0.0  0.134549  -8.1e-05  0.99481  0.0  0.105096  0.130832  -0.000185  0.994841  0.0
H  H25  1  0.04877993  0.42801565  0.56596659  1  0.117362  0.000185  0.937686  0.0  0.132393  0.000147  0.994685  0.0  0.134555  8.2e-05  0.994842  0.0  0.105152  0.130814  0.000186  0.994827  0.0
H  H26  1  0.45122477  0.92802388  0.06597104  1  0.117274  0.000187  0.937727  0.0  0.132304  0.000148  0.994752  0.0  0.13446  8.2e-05  0.994872  0.0  0.105133  0.130734  0.000186  0.994883  0.0
H  H27  1  0.95122883  0.57197310  0.43403357  1  0.117343  -0.000188  0.937655  0.0  0.132402  -0.000147  0.994625  0.0  0.134555  -8.2e-05  0.99479  0.0  0.105181  0.130825  -0.000186  0.994763  0.0
H  H28  1  0.47063007  0.95998097  0.82475841  1  0.102942  -0.000954  0.926988  -0.001  0.120085  -0.000706  0.982366  -0.001  0.121654  -0.000493  0.982419  0.0  0.10312  0.119268  -0.000807  0.981464  -0.001
H  H29  1  0.97064309  0.54001990  0.67524296  1  0.102885  0.000954  0.927045  0.001  0.120029  0.000706  0.982394  0.001  0.121631  0.000493  0.98247  0.0  0.103103  0.119203  0.000807  0.981502  0.001
H  H30  1  0.52936613  0.04002169  0.17524193  1  0.102908  0.000954  0.926976  0.001  0.120089  0.000706  0.982301  0.001  0.121671  0.000493  0.982368  0.0  0.10314  0.119263  0.000806  0.981414  0.001
H  H31  1  0.02936315  0.45996654  0.32475339  1  0.102858  -0.000955  0.926902  -0.001  0.119994  -0.000706  0.982295  -0.001  0.121574  -0.000493  0.982407  0.0  0.103103  0.119188  -0.000806  0.981374  -0.001
H  H32  1  0.57632810  0.21407944  0.80820629  1  0.088653  0.000598  0.967162  0.001  0.106549  0.00041  1.038577  0.0  0.107604  0.000268  1.038406  0.0  0.085444  0.105523  0.000477  1.039076  0.001
H  H33  1  0.07631990  0.28591353  0.69179690  1  0.088638  -0.000599  0.967155  -0.001  0.106542  -0.000411  1.038573  0.0  0.107598  -0.000268  1.038397  0.0  0.08545  0.105516  -0.000477  1.039073  -0.001
H  H34  1  0.42368190  0.78592440  0.19180109  1  0.088607  -0.0006  0.967242  -0.001  0.106493  -0.00041  1.038674  0.0  0.107554  -0.000268  1.038475  0.0  0.085433  0.105469  -0.000477  1.03917  -0.001
H  H35  1  0.92369010  0.71407523  0.30820326  1  0.088674  0.000599  0.967264  0.001  0.106598  0.00041  1.038652  0.0  0.107655  0.000268  1.038473  0.0  0.085474  0.105574  0.000477  1.039148  0.001
H  H36  1  0.35533411  0.20938547  0.79168374  1  0.090585  -0.000101  0.949866  0.0  0.11417  -3.3e-05  1.009659  0.0  0.114862  -2.4e-05  1.010274  0.0  0.086187  0.113432  -3.8e-05  1.009509  0.0
H  H37  1  0.85532481  0.29062038  0.70830650  1  0.090519  0.000101  0.949927  0.0  0.114142  3.3e-05  1.00969  0.0  0.114842  2.4e-05  1.010287  0.0  0.086159  0.113401  3.8e-05  1.009553  0.0
H  H38  1  0.64468217  0.79062529  0.20831173  1  0.090546  9.9e-05  0.949876  0.0  0.114144  3.3e-05  1.009667  0.0  0.114844  2.4e-05  1.010252  0.0  0.086191  0.113403  3.8e-05  1.009524  0.0
H  H39  1  0.14467767  0.70937649  0.29169840  1  0.090586  -0.0001  0.949901  0.0  0.114179  -3.3e-05  1.00969  0.0  0.114873  -2.4e-05  1.0103  0.0  0.086166  0.113441  -3.8e-05  1.009545  0.0
H  H40  1  0.44210175  0.31639251  0.90103064  1  0.093887  -0.000177  0.961673  0.0  0.114779  -0.000138  1.026165  0.0  0.115571  -9.4e-05  1.02677  0.0  0.0883  0.114214  -0.000156  1.025008  0.0
H  H41  1  0.94210765  0.18360885  0.59896437  1  0.093893  0.000177  0.961692  0.0  0.114795  0.000138  1.02617  0.0  0.115584  9.3e-05  1.026794  0.0  0.088312  0.114231  0.000156  1.02501  0.0
H  H42  1  0.55789821  0.68360783  0.09896933  1  0.093905  0.000175  0.961662  0.0  0.11476  0.000138  1.02619  0.0  0.115554  9.3e-05  1.02677  0.0  0.088298  0.114197  0.000156  1.025025  0.0
H  H43  1  0.05788981  0.81638107  0.40103803  1  0.093911  -0.000175  0.961688  0.0  0.114777  -0.000138  1.026205  0.0  0.11557  -9.3e-05  1.02682  0.0  0.088275  0.114211  -0.000156  1.025047  0.0
H  H44  1  0.06033319  0.46111454  0.15358580  1  0.080638  1.7e-05  0.928938  0.0  0.097979  1.2e-05  0.987886  0.0  0.099056  2.4e-05  0.987415  0.0  0.112319  0.096945  -4e-06  0.988672  0.0
H  H45  1  0.56035645  0.03890345  0.34641227  1  0.080628  -1.5e-05  0.929129  0.0  0.097924  -1.1e-05  0.988116  0.0  0.098995  -2.4e-05  0.987679  0.0  0.112283  0.096886  4e-06  0.988898  0.0
H  H46  1  0.93965297  0.53892751  0.84641060  1  0.080603  -1.5e-05  0.92917  0.0  0.098011  -1.1e-05  0.98808  0.0  0.099041  -2.4e-05  0.987766  0.0  0.112294  0.096967  4e-06  0.988869  0.0
H  H47  1  0.43966611  0.96108414  0.65358565  1  0.080625  1.5e-05  0.929085  0.0  0.097993  1.2e-05  0.98805  0.0  0.099059  2.3e-05  0.987611  0.0  0.112332  0.096957  -4e-06  0.988833  0.0
H  H48  1  0.94417135  0.61944074  0.12902862  1  0.062557  -6e-06  0.930741  0.0  0.075783  2.3e-05  0.998662  0.0  0.077586  3e-06  0.996786  0.0  0.101901  0.074208  3.9e-05  1.000542  0.0
H  H49  1  0.44418334  0.88057716  0.37096633  1  0.062621  8e-06  0.930756  0.0  0.075788  -2.3e-05  0.998709  0.0  0.077616  -3e-06  0.996783  0.0  0.10197  0.074218  -3.9e-05  1.000576  0.0
H  H50  1  0.05581606  0.38060014  0.87096005  1  0.062661  8e-06  0.93086  0.0  0.07584  -2.3e-05  0.998823  0.0  0.077683  -3e-06  0.996834  0.0  0.102039  0.074277  -3.9e-05  1.000681  0.0
H  H51  1  0.55583670  0.11941624  0.62903731  1  0.062645  -7e-06  0.930702  0.0  0.075841  2.3e-05  0.998683  0.0  0.077664  3e-06  0.996755  0.0  0.101988  0.074277  3.9e-05  1.000547  0.0
H  H52  1  0.76518750  0.55913219  0.98934828  1  0.066809  2.7e-05  0.951135  0.0  0.080846  4e-05  1.017645  0.0  0.082921  1.2e-05  1.015739  0.0  0.101901  0.078985  6.1e-05  1.019542  0.0
H  H53  1  0.26521207  0.94088035  0.51063917  1  0.066793  -2.6e-05  0.951085  0.0  0.080853  -4e-05  1.017625  0.0  0.082926  -1.1e-05  1.015701  0.0  0.101966  0.079003  -6.1e-05  1.019512  0.0
H  H54  1  0.23479866  0.44090057  0.01064114  1  0.066714  -2.9e-05  0.951163  0.0  0.080844  -4e-05  1.017698  0.0  0.082939  -1.2e-05  1.015695  0.0  0.101966  0.078997  -6.1e-05  1.019597  0.0
H  H55  1  0.73481927  0.05911535  0.48935594  1  0.066708  2.7e-05  0.951235  0.0  0.080928  4e-05  1.017635  0.0  0.083018  1.1e-05  1.015701  0.0  0.101946  0.079063  6.1e-05  1.019542  0.0
H  H56  1  0.76197225  0.36040346  0.91873671  1  0.074908  5.5e-05  0.942636  0.0  0.090648  5.7e-05  1.007015  0.0  0.091508  5.5e-05  1.006355  0.0  0.109205  0.089927  5.1e-05  1.007695  0.0
H  H57  1  0.26198858  0.13961278  0.58125724  1  0.074946  -5.3e-05  0.942446  0.0  0.09071  -5.7e-05  1.0069  0.0  0.091561  -5.5e-05  1.006272  0.0  0.109154  0.089984  -5.1e-05  1.007593  0.0
H  H58  1  0.23801266  0.63962583  0.08125147  1  0.074857  -5.6e-05  0.942454  0.0  0.090644  -5.7e-05  1.006983  0.0  0.091423  -5.6e-05  1.006554  0.0  0.109143  0.08992  -5.1e-05  1.00767  0.0
H  H59  1  0.73803648  0.86037713  0.41874036  1  0.074886  5.4e-05  0.94248  0.0  0.090664  5.7e-05  1.006958  0.0  0.091517  5.6e-05  1.006333  0.0  0.109191  0.089941  5.1e-05  1.007641  0.0
C  C60  1  0.88929243  0.94137067  0.82938710  1  0.686294  0.000244  3.801449  0.0  0.656272  9.8e-05  4.097084  0.0  0.6966  0.000121  4.091574  0.0  0.215591  0.628751  6.8e-05  4.101309  0.0
C  C61  1  0.38931126  0.55862191  0.67062663  1  0.686448  -0.000242  3.801346  0.0  0.65641  -9.8e-05  4.09698  0.0  0.696982  -0.00012  4.090101  0.0  0.215641  0.628883  -6.8e-05  4.101208  0.0
C  C62  1  0.11068745  0.05860765  0.17061001  1  0.686484  -0.000247  3.802245  0.0  0.656545  -0.000101  4.097689  0.0  0.696907  -0.000122  4.092126  0.0  0.215496  0.62902  -6.9e-05  4.101932  0.0
C  C63  1  0.61069498  0.44136685  0.32937559  1  0.686365  0.000241  3.801554  0.0  0.656317  9.8e-05  4.097227  0.0  0.696885  0.000121  4.09036  0.0  0.215547  0.628791  6.7e-05  4.101463  0.0
C  C64  1  0.84363748  0.90931532  0.72536365  1  -0.215617  -0.000763  3.668576  -0.001  -0.253147  -0.00051  3.920816  -0.001  -0.260623  -0.000303  3.929348  -0.001  -0.165539  -0.246629  -0.000623  3.913737  -0.001
C  C65  1  0.34365721  0.59068937  0.77464037  1  -0.215468  0.00076  3.668847  0.001  -0.252908  0.000511  3.92107  0.001  -0.260449  0.000303  3.929698  0.001  -0.165401  -0.246385  0.000623  3.913987  0.001
C  C66  1  0.15635998  0.09067458  0.27463053  1  -0.215906  0.000761  3.668953  0.001  -0.253331  0.000512  3.921031  0.001  -0.260817  0.000304  3.929553  0.001  -0.165609  -0.246815  0.000622  3.913967  0.001
C  C67  1  0.65634150  0.40931329  0.22536134  1  -0.215184  -0.000763  3.668556  -0.001  -0.252685  -0.000509  3.920856  -0.001  -0.260209  -0.000303  3.929491  -0.001  -0.165317  -0.246166  -0.00062  3.913777  -0.001
C  C68  1  0.00269615  0.88911862  0.66423992  1  -0.249297  -0.000552  3.680365  -0.001  -0.323793  -0.000388  3.924911  0.0  -0.324413  -0.000237  3.935837  0.0  -0.240479  -0.322949  -0.00046  3.915743  0.0
C  C69  1  0.50271085  0.61087044  0.83577523  1  -0.249499  0.000553  3.68081  0.001  -0.3241  0.000389  3.925365  0.0  -0.324733  0.000237  3.936277  0.0  -0.240715  -0.32328  0.00046  3.916188  0.0
C  C70  1  0.99731762  0.11084466  0.33576984  1  -0.249121  0.000555  3.680609  0.001  -0.32367  0.00039  3.925198  0.0  -0.324292  0.000238  3.936126  0.0  -0.240485  -0.322855  0.000462  3.916028  0.0
C  C71  1  0.49727907  0.38912760  0.16422985  1  -0.249475  -0.000547  3.680425  -0.001  -0.32407  -0.000389  3.925007  0.0  -0.324683  -0.000237  3.935954  0.0  -0.240695  -0.323228  -0.000461  3.915841  0.0
C  C72  1  0.28463878  0.04587112  0.92945159  1  0.684794  0.000434  3.802914  0.0  0.651015  0.000379  4.100498  0.0  0.691287  0.000324  4.095496  0.0  0.217439  0.623664  0.00038  4.104466  0.0
C  C73  1  0.78466845  0.45414833  0.57054493  1  0.684658  -0.000434  3.803186  0.0  0.650895  -0.000378  4.100676  0.0  0.691385  -0.000322  4.094411  0.0  0.217277  0.623544  -0.00038  4.104639  0.0
C  C74  1  0.71533483  0.95414659  0.07054294  1  0.685106  -0.000431  3.802636  0.0  0.651125  -0.000379  4.100458  0.0  0.691388  -0.000322  4.095523  0.0  0.21732  0.623772  -0.00038  4.104431  0.0
C  C75  1  0.21534407  0.54585548  0.42945354  1  0.684769  0.000428  3.802911  0.0  0.650885  0.000379  4.100575  0.0  0.691379  0.000321  4.094298  0.0  0.217303  0.623531  0.000379  4.104546  0.0
C  C76  1  0.44846771  0.06675946  0.88132161  1  -0.216846  -7.1e-05  3.671113  0.0  -0.248041  -0.00022  3.915814  0.0  -0.256111  -0.000161  3.925282  0.0  -0.163396  -0.242005  -0.000274  3.908564  0.0
C  C77  1  0.94848266  0.43324530  0.61867533  1  -0.216867  6.8e-05  3.671296  0.0  -0.248013  0.000217  3.915902  0.0  -0.256255  0.000158  3.925645  0.0  -0.163446  -0.241971  0.00027  3.908651  0.0
C  C78  1  0.55152222  0.93324319  0.11867599  1  -0.216872  6.2e-05  3.671065  0.0  -0.248008  0.000219  3.91578  0.0  -0.256127  0.000159  3.925263  0.0  -0.163459  -0.241974  0.000268  3.90854  0.0
C  C79  1  0.05152484  0.56674229  0.38132396  1  -0.216757  -5.4e-05  3.671055  0.0  -0.247879  -0.000218  3.915684  0.0  -0.256105  -0.000157  3.925445  0.0  -0.163445  -0.241846  -0.000269  3.908443  0.0
C  C80  1  0.45543330  0.20982315  0.84352419  1  -0.255714  0.001742  3.731942  0.002  -0.337056  0.001051  3.985903  0.001  -0.337676  0.000735  3.997127  0.001  -0.245327  -0.336485  0.001184  3.978094  0.002
C  C81  1  0.95543273  0.29017459  0.65647230  1  -0.255602  -0.001742  3.73191  -0.002  -0.337011  -0.001051  3.985814  -0.001  -0.33761  -0.000735  3.997103  -0.001  -0.245307  -0.336439  -0.001184  3.977988  -0.002
C  C82  1  0.54456918  0.79017836  0.15647734  1  -0.255585  -0.00173  3.731928  -0.002  -0.336911  -0.001051  3.985849  -0.001  -0.337507  -0.000735  3.997009  -0.001  -0.245292  -0.33634  -0.001184  3.978036  -0.002
C  C83  1  0.04457100  0.70981417  0.34352991  1  -0.255803  0.001734  3.732142  0.002  -0.337171  0.001052  3.985998  0.001  -0.337775  0.000735  3.997297  0.001  -0.245356  -0.336597  0.001184  3.978181  0.002
C  C84  1  0.01485338  0.51213816  0.09761023  1  0.044001  0.000135  3.619825  0.0  -0.01685  0.000146  3.889711  0.0  -0.010503  0.000126  3.894273  0.0  -0.076858  -0.021087  0.000135  3.886649  0.0
C  C85  1  0.51488041  0.98787787  0.40238572  1  0.043992  -0.000148  3.620105  0.0  -0.016739  -0.000146  3.889901  0.0  -0.010377  -0.000127  3.894496  0.0  -0.07685  -0.02096  -0.000135  3.886793  0.0
C  C86  1  0.98513529  0.48789577  0.90238212  1  0.043951  -0.000145  3.6202  0.0  -0.017044  -0.000146  3.890084  0.0  -0.010808  -0.000127  3.895467  0.0  -0.077043  -0.021274  -0.000135  3.886993  0.0
C  C87  1  0.48514089  0.01211784  0.59761487  1  0.043936  0.000142  3.619955  0.0  -0.017025  0.000146  3.889992  0.0  -0.010627  0.000127  3.894516  0.0  -0.077041  -0.021264  0.000135  3.886916  0.0
C  C88  1  0.84051706  0.45376805  0.96123273  1  0.037998  0.000194  3.625539  0.0  -0.024681  0.000173  3.89495  0.0  -0.018217  0.000135  3.89908  0.0  -0.07967  -0.028784  0.00019  3.892005  0.0
C  C89  1  0.34053592  0.04624842  0.53876195  1  0.037994  -0.0002  3.625238  0.0  -0.024838  -0.000173  3.89503  0.0  -0.018347  -0.000134  3.899173  0.0  -0.079755  -0.028956  -0.00019  3.892104  0.0
C  C90  1  0.15946659  0.54626241  0.03876043  1  0.038293  -0.000187  3.625084  0.0  -0.024803  -0.000173  3.895136  0.0  -0.018473  -0.000135  3.900178  0.0  -0.079798  -0.028928  -0.000191  3.892225  0.0
C  C91  1  0.65949416  0.95374844  0.46123677  1  0.038082  0.000199  3.625322  0.0  -0.02497  0.000173  3.895173  0.0  -0.018495  0.000135  3.899348  0.0  -0.079832  -0.029078  0.000191  3.892235  0.0
O  O92  1  0.87851287  0.08166155  0.87952529  1  -0.586515  -0.078561  2.066345  -0.103  -0.561137  -0.055337  2.340612  -0.08  -0.605707  -0.044606  2.334443  -0.068  -0.316577  -0.532446  -0.057309  2.346457  -0.079
O  O93  1  0.37847512  0.41834402  0.62046285  1  -0.586473  0.078563  2.066286  0.103  -0.561095  0.055337  2.340526  0.08  -0.60545  0.044606  2.333524  0.068  -0.316481  -0.53242  0.057318  2.346365  0.079
O  O94  1  0.12158122  0.91834569  0.12045112  1  -0.586387  0.078551  2.067011  0.103  -0.561011  0.055344  2.341172  0.08  -0.607949  0.044617  2.332844  0.068  -0.316305  -0.532364  0.057312  2.346988  0.079
O  O95  1  0.62153363  0.58165401  0.37954085  1  -0.586464  -0.07858  2.066069  -0.103  -0.561079  -0.055347  2.340327  -0.08  -0.605443  -0.044613  2.333326  -0.068  -0.316467  -0.53241  -0.057323  2.346155  -0.079
O  O96  1  0.05901995  0.17365151  0.14190794  1  -0.585935  -0.075  2.064214  -0.098  -0.5619  -0.052736  2.338829  -0.076  -0.605676  -0.04285  2.331921  -0.065  -0.316387  -0.533633  -0.054415  2.344824  -0.075
O  O97  1  0.55910569  0.32632480  0.35809850  1  -0.585917  0.075006  2.064079  0.098  -0.561801  0.052741  2.338619  0.076  -0.60534  0.042853  2.330882  0.065  -0.316385  -0.533571  0.054427  2.344652  0.075
O  O98  1  0.94080306  0.82631991  0.85811411  1  -0.585736  0.074986  2.064065  0.098  -0.561585  0.052741  2.33851  0.076  -0.607706  0.042858  2.329429  0.065  -0.316266  -0.533378  0.054422  2.344502  0.075
O  O99  1  0.44090808  0.67367207  0.64190297  1  -0.585923  -0.075024  2.063723  -0.098  -0.561837  -0.052749  2.338302  -0.076  -0.605387  -0.04286  2.330563  -0.065  -0.31644  -0.533609  -0.054439  2.344311  -0.075
O  O100  1  0.19009979  0.16381161  0.95773782  1  -0.58028  -0.07354  2.090742  -0.097  -0.552026  -0.052175  2.365538  -0.075  -0.596054  -0.042478  2.359625  -0.065  -0.311094  -0.523609  -0.053308  2.371259  -0.074
O  O101  1  0.69009470  0.33621482  0.54228997  1  -0.58017  0.073556  2.090882  0.097  -0.551945  0.052176  2.365602  0.075  -0.595812  0.042476  2.358977  0.065  -0.310872  -0.523525  0.053318  2.371304  0.074
O  O102  1  0.80994284  0.83622246  0.04232377  1  -0.58038  0.073571  2.090904  0.097  -0.552  0.052191  2.365707  0.075  -0.598447  0.042493  2.357817  0.065  -0.31092  -0.523601  0.053323  2.371379  0.074
O  O103  1  0.30991782  0.66377857  0.45771025  1  -0.580251  -0.073535  2.09099  -0.097  -0.551941  -0.052167  2.365733  -0.075  -0.595807  -0.042473  2.359112  -0.065  -0.310892  -0.52354  -0.053305  2.371435  -0.074
O  O104  1  0.74504222  0.08996751  0.06160365  1  -0.5846  -0.076629  2.092664  -0.1  -0.559938  -0.053913  2.371579  -0.077  -0.604084  -0.043651  2.365772  -0.066  -0.31271  -0.53134  -0.055082  2.376726  -0.076
O  O105  1  0.24508650  0.41000534  0.43835841  1  -0.584456  0.076673  2.092661  0.1  -0.559814  0.053921  2.371461  0.077  -0.603733  0.043656  2.364798  0.066  -0.312735  -0.531223  0.055098  2.376603  0.076
O  O106  1  0.25488119  0.91001414  0.93832478  1  -0.584441  0.076622  2.09274  0.1  -0.559865  0.053894  2.371531  0.077  -0.606431  0.043637  2.363574  0.066  -0.312722  -0.531301  0.055064  2.376652  0.076
O  O107  1  0.75492225  0.58998804  0.56163839  1  -0.584411  -0.076655  2.092922  -0.1  -0.559801  -0.053915  2.371634  -0.077  -0.603723  -0.04365  2.36497  -0.066  -0.312742  -0.531218  -0.055092  2.376752  -0.076
O  O108  1  0.90225517  0.39935087  0.03976149  1  -0.313723  0.001207  2.271564  0.001  -0.240634  0.000941  2.532014  0.0  -0.261058  0.000953  2.531069  0.001  -0.234804  -0.226308  0.000849  2.532851  0.0
O  O109  1  0.40227497  0.10066306  0.46023187  1  -0.313622  -0.001204  2.271478  -0.001  -0.240648  -0.000942  2.532072  0.0  -0.26111  -0.000954  2.531188  -0.001  -0.234747  -0.226323  -0.00085  2.532889  0.0
O  O110  1  0.09773726  0.60067495  0.96022886  1  -0.31361  -0.001206  2.271433  -0.001  -0.240529  -0.000941  2.532107  0.0  -0.263232  -0.000956  2.530995  -0.001  -0.23471  -0.226224  -0.000849  2.532912  0.0
O  O111  1  0.59775637  0.89933380  0.53976754  1  -0.313585  0.001208  2.271326  0.001  -0.240512  0.000941  2.531976  0.0  -0.260975  0.000953  2.531084  0.001  -0.234728  -0.226205  0.000849  2.532806  0.0
