# generated using pymatgen
data_EuH14C21NO10
_symmetry_space_group_name_H-M   'P 1'
_cell_length_a   8.84778495
_cell_length_b   14.04694935
_cell_length_c   18.15155971
_cell_angle_alpha   90.00046314
_cell_angle_beta   89.99957611
_cell_angle_gamma   104.62542922
_symmetry_Int_Tables_number   1
_chemical_formula_structural   EuH14C21NO10
_chemical_formula_sum   'Eu4 H56 C84 N4 O40'
_cell_volume   2182.85620184
_cell_formula_units_Z   4
loop_
 _symmetry_equiv_pos_site_id
 _symmetry_equiv_pos_as_xyz
  1  'x, y, z'
loop_
 _atom_site_type_symbol
 _atom_site_label
 _atom_site_symmetry_multiplicity
 _atom_site_fract_x
 _atom_site_fract_y
 _atom_site_fract_z
 _atom_site_occupancy
 _atom_site_pbe_bader_charge
 _atom_site_pbe_bader_spin_density
 _atom_site_pbe_cm5_charge
 _atom_site_pbe_ddec_charge
 _atom_site_pbe_ddec_spin_density
 _atom_site_pbe_ddec_sum_bond_order
 _atom_site_pbe_magmom
Eu  Eu0  1  0.30342642  0.48635637  0.92286327  1  2.186982  0  1.504814  2.078795  0  2.115837  0
Eu  Eu1  1  0.69657380  0.01364373  0.42286328  1  2.187009  0  1.504814  2.078765  0  2.115889  0
Eu  Eu2  1  0.69657338  0.51364391  0.07713697  1  2.186983  0  1.504823  2.078778  0  2.115847  0
Eu  Eu3  1  0.30342600  0.98635655  0.57713641  1  2.186987  0  1.504833  2.078829  0  2.115781  0
H  H4  1  0.69543946  0.79689704  0.20227256  1  0.115448  0  0.123431  0.09696  0  1.000972  0
H  H5  1  0.30456008  0.70310300  0.70227298  1  0.115429  0  0.123433  0.096974  0  1.000995  0
H  H6  1  0.30456116  0.20310249  0.79772768  1  0.115455  0  0.123433  0.096972  0  1.000978  0
H  H7  1  0.69543972  0.29689729  0.29772671  1  0.115425  0  0.123439  0.096985  0  1.001011  0
H  H8  1  0.43992212  0.81371176  0.26371628  1  0.131557  0  0.107945  0.124541  0  1.027525  0
H  H9  1  0.56007895  0.68628879  0.76371622  1  0.13157  0  0.107949  0.124546  0  1.027505  0
H  H10  1  0.56007881  0.18628851  0.73628341  1  0.131566  0  0.107948  0.124533  0  1.02751  0
H  H11  1  0.43992085  0.31371149  0.23628402  1  0.131567  0  0.107945  0.124522  0  1.027526  0
H  H12  1  0.79674466  0.93034547  0.99894042  1  0.144529  0  0.118973  0.102839  0  1.018247  0
H  H13  1  0.20325608  0.56965485  0.49893981  1  0.144533  0  0.118983  0.102876  0  1.018261  0
H  H14  1  0.20325514  0.06965481  0.00105982  1  0.144524  0  0.11897  0.102824  0  1.018256  0
H  H15  1  0.79674372  0.43034543  0.50106043  1  0.144543  0  0.118986  0.102885  0  1.018248  0
H  H16  1  0.32825139  0.75353391  0.04091726  1  0.107005  0  0.11448  0.117889  0  0.986724  0
H  H17  1  0.67175036  0.74646548  0.54091662  1  0.106986  0  0.114498  0.11793  0  0.986685  0
H  H18  1  0.67174810  0.24646563  0.95908298  1  0.107  0  0.114488  0.117914  0  0.986696  0
H  H19  1  0.32824913  0.25353407  0.45908362  1  0.10698  0  0.114499  0.117945  0  0.986657  0
H  H20  1  0.55673577  0.06241767  0.81694662  1  0.079838  0  0.105597  0.104987  0  1.025319  0
H  H21  1  0.44326344  0.43758155  0.31694578  1  0.079854  0  0.105615  0.105014  0  1.025325  0
H  H22  1  0.44326403  0.93758261  0.18305362  1  0.079845  0  0.105584  0.104947  0  1.025311  0
H  H23  1  0.55673636  0.56241874  0.68305390  1  0.07983  0  0.105593  0.10498  0  1.025306  0
H  H24  1  0.64228754  0.01783328  0.93976277  1  0.074802  0  0.106767  0.110292  0  0.999341  0
H  H25  1  0.35771217  0.48216623  0.43976307  1  0.074756  0  0.106792  0.11038  0  0.999302  0
H  H26  1  0.35771195  0.98216626  0.06023692  1  0.074721  0  0.106793  0.110349  0  0.999357  0
H  H27  1  0.64228732  0.51783332  0.56023662  1  0.074796  0  0.106786  0.110342  0  0.999379  0
H  H28  1  0.12100248  0.47853167  0.19874233  1  0.103055  0  0.117242  0.12893  0  0.983804  0
H  H29  1  0.87899619  0.02146729  0.69874285  1  0.103  0  0.117222  0.128901  0  0.983869  0
H  H30  1  0.87899845  0.52146860  0.80125791  1  0.103054  0  0.117243  0.128921  0  0.9838  0
H  H31  1  0.12100218  0.97853227  0.30125684  1  0.103075  0  0.117266  0.12895  0  0.983788  0
H  H32  1  0.24221875  0.77514711  0.79837305  1  0.106677  0  0.114744  0.124009  0  0.993716  0
H  H33  1  0.75778191  0.72485373  0.29837251  1  0.106666  0  0.114742  0.124005  0  0.993701  0
H  H34  1  0.75778218  0.22485316  0.20162719  1  0.106673  0  0.114735  0.124002  0  0.993707  0
H  H35  1  0.24221789  0.27514655  0.70162718  1  0.106666  0  0.114739  0.124  0  0.993703  0
H  H36  1  0.24845356  0.71650179  0.35341715  1  0.085812  0  0.106216  0.106259  0  1.008636  0
H  H37  1  0.75154583  0.78349806  0.85341646  1  0.085841  0  0.106223  0.106258  0  1.008609  0
H  H38  1  0.75154706  0.28349775  0.64658309  1  0.085815  0  0.106222  0.10627  0  1.008622  0
H  H39  1  0.24845366  0.21650149  0.14658378  1  0.085839  0  0.106229  0.106271  0  1.00859  0
H  H40  1  0.90584706  0.41495211  0.35900683  1  0.624769  0  0.287044  0.298489  0  1.049775  0
H  H41  1  0.09415166  0.08504747  0.85900727  1  0.624758  0  0.28704  0.298474  0  1.049805  0
H  H42  1  0.09415130  0.58504745  0.64099286  1  0.624773  0  0.287049  0.298485  0  1.049783  0
H  H43  1  0.90584814  0.91495281  0.14099297  1  0.62476  0  0.287046  0.298481  0  1.049789  0
H  H44  1  0.17625555  0.30400221  0.01854945  1  0.629923  0  0.344104  0.438982  0  0.836324  0
H  H45  1  0.82374504  0.19599742  0.51854961  1  0.629924  0  0.344118  0.438995  0  0.836301  0
H  H46  1  0.82374394  0.69599733  0.98145024  1  0.629922  0  0.344118  0.438986  0  0.836314  0
H  H47  1  0.17625557  0.80400212  0.48145118  1  0.629925  0  0.344131  0.438996  0  0.836303  0
H  H48  1  0.36355072  0.32891809  0.02807344  1  0.662501  0  0.307865  0.419816  0  0.909702  0
H  H49  1  0.63644864  0.17108163  0.52807357  1  0.6625  0  0.30787  0.419834  0  0.909672  0
H  H50  1  0.63644909  0.67108219  0.97192680  1  0.662502  0  0.307866  0.419816  0  0.909702  0
H  H51  1  0.36355085  0.82891791  0.47192667  1  0.662502  0  0.307869  0.419815  0  0.909701  0
H  H52  1  0.94231773  0.42691485  0.93362134  1  0.655916  0  0.300903  0.41166  0  0.923153  0
H  H53  1  0.05768205  0.07308461  0.43362071  1  0.655903  0  0.300905  0.411649  0  0.923167  0
H  H54  1  0.05768176  0.57308469  0.06637890  1  0.655915  0  0.300895  0.411636  0  0.923186  0
H  H55  1  0.94231744  0.92691494  0.56637897  1  0.655913  0  0.300907  0.411647  0  0.923169  0
H  H56  1  0.01424547  0.37027625  0.87091692  1  0.619613  0  0.323733  0.414917  0  0.884967  0
H  H57  1  0.98575423  0.12972341  0.37091772  1  0.619623  0  0.32373  0.414922  0  0.884971  0
H  H58  1  0.98575402  0.62972329  0.12908276  1  0.619614  0  0.323735  0.41494  0  0.884942  0
H  H59  1  0.01424557  0.87027687  0.62908252  1  0.619623  0  0.323725  0.414925  0  0.884963  0
C  C60  1  0.65199000  0.80799381  0.14763329  1  0.520288  0  0.065393  0.060169  0  3.897028  0
C  C61  1  0.34800906  0.69200577  0.64763349  1  0.520295  0  0.065381  0.060141  0  3.897163  0
C  C62  1  0.34800981  0.19200647  0.85236695  1  0.520296  0  0.065382  0.060182  0  3.897054  0
C  C63  1  0.65199043  0.30799378  0.35236620  1  0.520299  0  0.065409  0.060172  0  3.897078  0
C  C64  1  0.37069253  0.74001141  0.24943310  1  -0.019918  0  -0.083568  -0.129648  0  3.953117  0
C  C65  1  0.62930758  0.75998903  0.74943271  1  -0.019948  0  -0.08356  -0.129644  0  3.953107  0
C  C66  1  0.62930839  0.25998886  0.75056714  1  -0.019912  0  -0.083566  -0.129646  0  3.953101  0
C  C67  1  0.37069223  0.24001125  0.25056753  1  -0.019925  0  -0.08352  -0.129544  0  3.953072  0
C  C68  1  0.70728982  0.88444455  0.03413850  1  0.450468  0  0.058528  0.044551  0  3.885113  0
C  C69  1  0.29270894  0.61555555  0.53413842  1  0.450444  0  0.058525  0.044513  0  3.885171  0
C  C70  1  0.29270998  0.11555573  0.96586119  1  0.450486  0  0.058538  0.044588  0  3.885152  0
C  C71  1  0.70729055  0.38444399  0.46586182  1  0.450435  0  0.058521  0.044521  0  3.885176  0
C  C72  1  0.17377553  0.59239229  0.28155255  1  -0.02654  0  -0.015642  -0.041747  0  3.990632  0
C  C73  1  0.82622533  0.90760841  0.78155237  1  -0.026598  0  -0.015688  -0.041835  0  3.990681  0
C  C74  1  0.82622540  0.40760798  0.71844714  1  -0.026551  0  -0.015641  -0.041753  0  3.990665  0
C  C75  1  0.17377479  0.09239260  0.21844787  1  -0.026571  0  -0.015641  -0.041748  0  3.990597  0
C  C76  1  0.39037829  0.79900784  0.89402965  1  -0.037091  0  -0.010958  -0.075073  0  3.919789  0
C  C77  1  0.60962400  0.70099232  0.39403059  1  -0.037097  0  -0.010964  -0.075107  0  3.919868  0
C  C78  1  0.60962151  0.20099244  0.10597004  1  -0.037111  0  -0.010947  -0.075062  0  3.9198  0
C  C79  1  0.39037662  0.29900721  0.60596965  1  -0.037118  0  -0.010984  -0.075137  0  3.919789  0
C  C80  1  0.49818159  0.76245344  0.12720543  1  0.051658  0  0.001606  0.02675  0  4.025438  0
C  C81  1  0.50181883  0.73754595  0.62720646  1  0.051808  0  0.001572  0.026706  0  4.025483  0
C  C82  1  0.50181934  0.23754683  0.87279426  1  0.051662  0  0.00163  0.026728  0  4.025401  0
C  C83  1  0.49818066  0.26245359  0.37279378  1  0.051794  0  0.001577  0.026706  0  4.025498  0
C  C84  1  0.35035505  0.69111870  0.90978671  1  1.536308  0  0.197347  0.586629  0  4.215135  0
C  C85  1  0.64964481  0.80888161  0.40978708  1  1.536322  0  0.197313  0.586587  0  4.215223  0
C  C86  1  0.64964557  0.30888083  0.09021353  1  1.536296  0  0.197249  0.586508  0  4.215276  0
C  C87  1  0.35035531  0.19111940  0.59021261  1  1.536295  0  0.197302  0.586572  0  4.215197  0
C  C88  1  0.38940412  0.70064816  0.17997445  1  -0.064027  0  0.0039  0.058348  0  3.973638  0
C  C89  1  0.61059455  0.79935170  0.67997492  1  -0.064061  0  0.003889  0.058317  0  3.97368  0
C  C90  1  0.61059537  0.29935138  0.82002524  1  -0.064036  0  0.003916  0.058378  0  3.973639  0
C  C91  1  0.38940525  0.20064858  0.32002532  1  -0.064071  0  0.003904  0.058359  0  3.973648  0
C  C92  1  0.55444421  0.84430143  0.00892759  1  0.033281  0  -0.001615  0.025707  0  4.016359  0
C  C93  1  0.44555598  0.65569844  0.50892776  1  0.033182  0  -0.001526  0.025832  0  4.016455  0
C  C94  1  0.44555641  0.15569810  0.99107209  1  0.033208  0  -0.0016  0.025742  0  4.016292  0
C  C95  1  0.55444351  0.34430110  0.49107193  1  0.033182  0  -0.001568  0.025732  0  4.01643  0
C  C96  1  0.50194789  0.86822575  0.93579798  1  -0.012638  0  0.00704  0.062065  0  3.963304  0
C  C97  1  0.49805166  0.63177479  0.43579779  1  -0.012564  0  0.007018  0.062061  0  3.963345  0
C  C98  1  0.49805304  0.13177452  0.06420171  1  -0.012577  0  0.007034  0.062088  0  3.963276  0
C  C99  1  0.50194783  0.36822475  0.56420190  1  -0.012567  0  0.007028  0.062116  0  3.963291  0
C  C100  1  0.44990126  0.78297372  0.05721986  1  -0.074035  0  -0.061258  -0.119531  0  3.895227  0
C  C101  1  0.55009948  0.71702656  0.55721948  1  -0.074127  0  -0.061295  -0.119611  0  3.89519  0
C  C102  1  0.55009967  0.21702655  0.94278038  1  -0.07404  0  -0.061304  -0.119603  0  3.895111  0
C  C103  1  0.44990001  0.28297299  0.44278021  1  -0.074139  0  -0.061281  -0.119593  0  3.895159  0
C  C104  1  0.29877965  0.60557817  0.16148665  1  -0.059921  0  -0.011226  -0.093395  0  3.93777  0
C  C105  1  0.70122068  0.89442226  0.66148684  1  -0.059934  0  -0.011196  -0.093295  0  3.937702  0
C  C106  1  0.70122128  0.39442210  0.83851304  1  -0.05991  0  -0.011225  -0.093378  0  3.937742  0
C  C107  1  0.29877912  0.10557803  0.33851285  1  -0.059923  0  -0.01124  -0.093453  0  3.937786  0
C  C108  1  0.50710099  0.98974873  0.83994983  1  -0.002354  0  -0.071768  -0.065887  0  3.954762  0
C  C109  1  0.49289856  0.51025100  0.33994946  1  -0.002418  0  -0.071755  -0.065871  0  3.954924  0
C  C110  1  0.49289882  0.01025155  0.16005040  1  -0.002346  0  -0.071758  -0.065817  0  3.954656  0
C  C111  1  0.50710093  0.48974855  0.66005023  1  -0.002382  0  -0.071756  -0.065846  0  3.954682  0
C  C112  1  0.55771095  0.96368644  0.90772125  1  -0.013967  0  -0.085069  -0.132942  0  3.978945  0
C  C113  1  0.44228861  0.53631313  0.40772121  1  -0.01387  0  -0.085129  -0.133086  0  3.979038  0
C  C114  1  0.44228885  0.03631384  0.09227844  1  -0.013882  0  -0.085088  -0.133031  0  3.978962  0
C  C115  1  0.55771088  0.46368642  0.59227847  1  -0.013901  0  -0.085084  -0.133021  0  3.978983  0
C  C116  1  0.19085405  0.55216605  0.21230821  1  0.036096  0  -0.073687  -0.115025  0  3.934433  0
C  C117  1  0.80914506  0.94783334  0.71230834  1  0.036167  0  -0.073688  -0.115011  0  3.934551  0
C  C118  1  0.80914544  0.44783349  0.78769203  1  0.036079  0  -0.073715  -0.115047  0  3.934466  0
C  C119  1  0.19085474  0.05216694  0.28769135  1  0.036079  0  -0.073728  -0.115038  0  3.934418  0
C  C120  1  0.39132722  0.92276113  0.80053724  1  0.025365  0  -0.012732  -0.025914  0  3.956641  0
C  C121  1  0.60867310  0.57723900  0.30053686  1  0.025375  0  -0.012723  -0.025911  0  3.956702  0
C  C122  1  0.60867258  0.07723915  0.19946300  1  0.025374  0  -0.012725  -0.025941  0  3.956683  0
C  C123  1  0.39132670  0.42276128  0.69946337  1  0.025379  0  -0.012756  -0.025983  0  3.956657  0
C  C124  1  0.33113282  0.82825128  0.82892911  1  -0.043639  0  -0.06338  -0.081729  0  3.904031  0
C  C125  1  0.66886717  0.67174909  0.32892910  1  -0.04362  0  -0.063379  -0.081708  0  3.904067  0
C  C126  1  0.66886698  0.17174900  0.17107058  1  -0.043627  0  -0.063359  -0.081699  0  3.904006  0
C  C127  1  0.33113232  0.32825045  0.67107059  1  -0.043616  0  -0.063323  -0.081629  0  3.903909  0
C  C128  1  0.26373962  0.68653134  0.29941396  1  -0.039559  0  -0.074233  -0.066326  0  3.968818  0
C  C129  1  0.73626103  0.81346952  0.79941296  1  -0.039537  0  -0.074204  -0.066262  0  3.968773  0
C  C130  1  0.73626131  0.31346893  0.70058628  1  -0.039566  0  -0.074205  -0.066289  0  3.968747  0
C  C131  1  0.26373878  0.18653077  0.20058673  1  -0.039568  0  -0.074244  -0.066357  0  3.968803  0
C  C132  1  0.06311533  0.53767079  0.33860002  1  1.543484  0  0.218637  0.572841  0  4.160399  0
C  C133  1  0.93688455  0.96232967  0.83859978  1  1.543465  0  0.218631  0.5728  0  4.160402  0
C  C134  1  0.93688560  0.46232948  0.66140077  1  1.543467  0  0.218617  0.572806  0  4.160418  0
C  C135  1  0.06311557  0.03767135  0.16139991  1  1.543473  0  0.218605  0.572788  0  4.160387  0
C  C136  1  0.32012918  0.55947534  0.08874286  1  1.55901  0  0.24185  0.646071  0  4.144212  0
C  C137  1  0.67987088  0.94052448  0.58874341  1  1.559002  0  0.241851  0.645968  0  4.144233  0
C  C138  1  0.67987031  0.44052421  0.91125738  1  1.558692  0  0.24186  0.646057  0  4.144168  0
C  C139  1  0.32012892  0.05947581  0.41125683  1  1.559016  0  0.241871  0.646075  0  4.144127  0
C  C140  1  0.34290220  0.94998013  0.72648262  1  1.517131  0  0.190413  0.571084  0  4.238331  0
C  C141  1  0.65709787  0.55001937  0.22648245  1  1.517132  0  0.190416  0.571077  0  4.238407  0
C  C142  1  0.65709842  0.05001940  0.27351762  1  1.517012  0  0.190362  0.57102  0  4.238422  0
C  C143  1  0.34290050  0.44998019  0.77351724  1  1.51699  0  0.190394  0.571053  0  4.238377  0
N  N144  1  0.75275474  0.86658263  0.10209065  1  -1.244916  0  -0.301031  -0.198195  0  3.476328  0
N  N145  1  0.24724516  0.63341729  0.60209139  1  -1.244861  0  -0.301042  -0.198207  0  3.476369  0
N  N146  1  0.24724475  0.13341691  0.89790959  1  -1.244931  0  -0.301027  -0.198231  0  3.476381  0
N  N147  1  0.75275464  0.36658299  0.39790885  1  -1.244835  0  -0.301049  -0.198224  0  3.476291  0
O  O148  1  0.46036778  0.65310092  0.93296842  1  -1.19447  0  -0.382721  -0.656035  0  2.325517  0
O  O149  1  0.53963130  0.84690108  0.43296888  1  -1.194498  0  -0.38271  -0.656027  0  2.325491  0
O  O150  1  0.53963202  0.34689936  0.06703127  1  -1.194461  0  -0.382708  -0.656008  0  2.325436  0
O  O151  1  0.46036738  0.15309921  0.56703136  1  -1.194478  0  -0.382696  -0.655998  0  2.325486  0
O  O152  1  0.21554152  0.63629221  0.89651629  1  -1.170566  0  -0.373094  -0.615094  0  2.126579  0
O  O153  1  0.78445818  0.86370726  0.39651597  1  -1.170556  0  -0.373059  -0.615037  0  2.126633  0
O  O154  1  0.78445797  0.36370734  0.10348339  1  -1.17056  0  -0.373017  -0.614989  0  2.126669  0
O  O155  1  0.21554163  0.13629302  0.60348371  1  -1.170547  0  -0.373072  -0.615062  0  2.126597  0
O  O156  1  0.20431657  0.53467620  0.04442724  1  -1.180134  0  -0.336502  -0.609177  0  2.244421  0
O  O157  1  0.79568514  0.96532323  0.54442753  1  -1.180129  0  -0.336525  -0.609148  0  2.244426  0
O  O158  1  0.79568292  0.46532335  0.95557300  1  -1.180136  0  -0.336517  -0.609175  0  2.244407  0
O  O159  1  0.20431435  0.03467632  0.45557271  1  -1.180128  0  -0.336516  -0.609181  0  2.244369  0
O  O160  1  0.99558022  0.44531056  0.32027180  1  -1.17913  0  -0.341018  -0.48439  0  2.299347  0
O  O161  1  0.00441958  0.05469016  0.82027237  1  -1.179144  0  -0.341017  -0.484371  0  2.299343  0
O  O162  1  0.00441958  0.55468973  0.67972789  1  -1.179145  0  -0.341024  -0.48438  0  2.299334  0
O  O163  1  0.99558023  0.94531012  0.17972787  1  -1.179129  0  -0.341013  -0.484378  0  2.299315  0
O  O164  1  0.03995601  0.57661317  0.39720892  1  -1.155388  0  -0.31598  -0.525643  0  2.08078  0
O  O165  1  0.96004399  0.92338704  0.89720780  1  -1.15535  0  -0.315962  -0.525587  0  2.080802  0
O  O166  1  0.96004492  0.42338710  0.60279132  1  -1.155366  0  -0.315974  -0.525631  0  2.080759  0
O  O167  1  0.03995581  0.07661324  0.10279244  1  -1.15536  0  -0.31597  -0.525608  0  2.080802  0
O  O168  1  0.45224425  0.54608078  0.07169170  1  -1.202181  0  -0.399863  -0.697837  0  2.396038  0
O  O169  1  0.54775745  0.95391961  0.57169226  1  -1.202176  0  -0.399854  -0.697819  0  2.396043  0
O  O170  1  0.54775556  0.45391950  0.92830854  1  -1.201867  0  -0.399869  -0.697853  0  2.396075  0
O  O171  1  0.45224348  0.04608066  0.42830743  1  -1.202185  0  -0.399861  -0.697838  0  2.396035  0
O  O172  1  0.40367571  0.03569530  0.70072815  1  -1.181894  0  -0.378014  -0.62803  0  2.224456  0
O  O173  1  0.59632405  0.46430366  0.20072748  1  -1.181923  0  -0.377988  -0.627998  0  2.22446  0
O  O174  1  0.59632265  0.96430426  0.29927209  1  -1.181912  0  -0.377954  -0.627954  0  2.224468  0
O  O175  1  0.40367656  0.53569587  0.79927276  1  -1.181905  0  -0.377986  -0.628001  0  2.224407  0
O  O176  1  0.24626594  0.88575291  0.68749531  1  -1.183021  0  -0.394378  -0.657058  0  2.183632  0
O  O177  1  0.75373346  0.61424627  0.18749519  1  -1.183013  0  -0.394416  -0.657073  0  2.183693  0
O  O178  1  0.75373386  0.11424737  0.31250493  1  -1.182893  0  -0.394383  -0.657035  0  2.183654  0
O  O179  1  0.24626603  0.38575327  0.81250449  1  -1.182894  0  -0.394401  -0.657054  0  2.183715  0
O  O180  1  0.27532104  0.34041183  0.99800792  1  -1.260723  0  -0.632791  -0.861047  0  2.062535  0
O  O181  1  0.72468024  0.15958816  0.49800764  1  -1.26072  0  -0.632808  -0.861054  0  2.06249  0
O  O182  1  0.72467989  0.65958844  0.00199177  1  -1.260724  0  -0.632811  -0.861051  0  2.062529  0
O  O183  1  0.27532038  0.84041137  0.50199260  1  -1.260725  0  -0.632823  -0.861048  0  2.062508  0
O  O184  1  0.03456211  0.40010777  0.91959599  1  -1.255387  0  -0.648061  -0.853878  0  2.031709  0
O  O185  1  0.96543784  0.09989156  0.41959557  1  -1.255409  0  -0.648069  -0.853885  0  2.031694  0
O  O186  1  0.96543851  0.59989176  0.08040480  1  -1.255398  0  -0.648065  -0.85389  0  2.031679  0
O  O187  1  0.03456165  0.90010798  0.58040411  1  -1.2554  0  -0.648063  -0.853893  0  2.031673  0
