# generated using pymatgen
data_CdH18C20(NO)4
_symmetry_space_group_name_H-M   'P 1'
_cell_length_a   9.52053030
_cell_length_b   9.73843465
_cell_length_c   10.72491161
_cell_angle_alpha   90.00005841
_cell_angle_beta   89.99993735
_cell_angle_gamma   114.09009524
_symmetry_Int_Tables_number   1
_chemical_formula_structural   CdH18C20(NO)4
_chemical_formula_sum   'Cd2 H36 C40 N8 O8'
_cell_volume   907.75674215
_cell_formula_units_Z   2
loop_
 _symmetry_equiv_pos_site_id
 _symmetry_equiv_pos_as_xyz
  1  'x, y, z'
loop_
 _atom_site_type_symbol
 _atom_site_label
 _atom_site_symmetry_multiplicity
 _atom_site_fract_x
 _atom_site_fract_y
 _atom_site_fract_z
 _atom_site_occupancy
 _atom_site_hle17_bader_spin_density
 _atom_site_hle17_ddec_charge
 _atom_site_hle17_ddec_spin_density
 _atom_site_hle17_ddec_sum_bond_order
 _atom_site_hle17_magmom
 _atom_site_hse06_10hf_bader_spin_density
 _atom_site_hse06_10hf_ddec_charge
 _atom_site_hse06_10hf_ddec_spin_density
 _atom_site_hse06_10hf_ddec_sum_bond_order
 _atom_site_hse06_10hf_magmom
 _atom_site_hse06_bader_spin_density
 _atom_site_hse06_ddec_charge
 _atom_site_hse06_ddec_spin_density
 _atom_site_hse06_ddec_sum_bond_order
 _atom_site_hse06_magmom
 _atom_site_pbe_bader_spin_density
 _atom_site_pbe_cm5_charge
 _atom_site_pbe_ddec_charge
 _atom_site_pbe_ddec_spin_density
 _atom_site_pbe_ddec_sum_bond_order
 _atom_site_pbe_magmom
Cd  Cd0  1  0.50000035  0.49999978  0.50000038  1  0  1.027977  0  1.756635  0  0  0.816474  0  2.193453  0  0  0.86851  0  2.153166  0  0  0.767824  0.778222  0  2.221468  0
Cd  Cd1  1  0.00000000  0.00000000  0.00000000  1  0  1.027953  0  1.756659  0  0  0.816452  0  2.19347  0  0  0.868489  0  2.153182  0  0  0.767821  0.778202  0  2.221485  0
H  H2  1  0.21446263  0.59003208  0.59042835  1  0  0.087299  0  0.953642  0  0  0.095352  0  1.02071  0  0  0.097781  0  1.019523  0  0  0.112109  0.093246  0  1.022319  0
H  H3  1  0.28553687  0.90996855  0.09042807  1  0  0.087303  0  0.95363  0  0  0.095356  0  1.020699  0  0  0.097788  0  1.019508  0  0  0.112105  0.093251  0  1.022308  0
H  H4  1  0.78553701  0.40996749  0.40957148  1  0  0.087327  0  0.953637  0  0  0.095351  0  1.020732  0  0  0.097782  0  1.019545  0  0  0.112101  0.093245  0  1.022342  0
H  H5  1  0.71446219  0.09003215  0.90957176  1  0  0.087299  0  0.953641  0  0  0.095353  0  1.020704  0  0  0.097783  0  1.019517  0  0  0.112107  0.093248  0  1.022314  0
H  H6  1  0.40870504  0.03666015  0.74843396  1  0  0.11659  0  0.967956  0  0  0.123609  0  1.035264  0  0  0.127608  0  1.031862  0  0  0.107137  0.120723  0  1.037889  0
H  H7  1  0.09129403  0.46333983  0.24843392  1  0  0.116623  0  0.967909  0  0  0.12363  0  1.035231  0  0  0.127632  0  1.031824  0  0  0.10714  0.120743  0  1.037855  0
H  H8  1  0.59129403  0.96334055  0.25156587  1  0  0.116593  0  0.967965  0  0  0.123608  0  1.035276  0  0  0.127609  0  1.031872  0  0  0.107138  0.120723  0  1.037899  0
H  H9  1  0.90870561  0.53665974  0.75156591  1  0  0.116615  0  0.967916  0  0  0.123623  0  1.035235  0  0  0.127624  0  1.031831  0  0  0.107141  0.120736  0  1.037859  0
H  H10  1  0.66126529  0.06668480  0.66100376  1  0  0.098666  0  0.966873  0  0  0.108613  0  1.028716  0  0  0.111278  0  1.028141  0  0  0.104009  0.106547  0  1.029668  0
H  H11  1  0.83873462  0.43331577  0.16100345  1  0  0.098646  0  0.966825  0  0  0.108592  0  1.028674  0  0  0.111258  0  1.028098  0  0  0.103996  0.106525  0  1.029628  0
H  H12  1  0.33873436  0.93331477  0.33899607  1  0  0.098663  0  0.966855  0  0  0.108608  0  1.028702  0  0  0.111272  0  1.028127  0  0  0.104011  0.106539  0  1.029656  0
H  H13  1  0.16126550  0.56668492  0.83899638  1  0  0.098661  0  0.966809  0  0  0.108603  0  1.028663  0  0  0.111267  0  1.02809  0  0  0.103999  0.106532  0  1.029622  0
H  H14  1  0.68100634  0.85178963  0.54371923  1  0  0.069658  0  0.979617  0  0  0.078318  0  1.046451  0  0  0.079798  0  1.046874  0  0  0.107178  0.077261  0  1.046142  0
H  H15  1  0.81899454  0.64821051  0.04371868  1  0  0.069668  0  0.9796  0  0  0.078327  0  1.046434  0  0  0.079806  0  1.046857  0  0  0.107181  0.07727  0  1.046127  0
H  H16  1  0.31899377  0.14821107  0.45628060  1  0  0.069653  0  0.979622  0  0  0.078313  0  1.046455  0  0  0.079792  0  1.04688  0  0  0.107179  0.077256  0  1.046148  0
H  H17  1  0.18100511  0.35178906  0.95628022  1  0  0.069674  0  0.979598  0  0  0.078338  0  1.046423  0  0  0.079817  0  1.046847  0  0  0.107189  0.077281  0  1.046118  0
H  H18  1  0.12599110  0.24284949  0.22784342  1  0  0.093318  0  0.956084  0  0  0.099708  0  1.027224  0  0  0.103348  0  1.024029  0  0  0.112358  0.097096  0  1.029503  0
H  H19  1  0.37400799  0.25715047  0.72784370  1  0  0.093317  0  0.956082  0  0  0.09969  0  1.027235  0  0  0.103328  0  1.024041  0  0  0.112352  0.09708  0  1.029516  0
H  H20  1  0.87400901  0.75715121  0.77215641  1  0  0.093306  0  0.956095  0  0  0.0997  0  1.027235  0  0  0.103336  0  1.024043  0  0  0.112348  0.097087  0  1.029516  0
H  H21  1  0.62599166  0.74284910  0.27215706  1  0  0.093309  0  0.956134  0  0  0.099723  0  1.027244  0  0  0.103363  0  1.02405  0  0  0.112358  0.097107  0  1.029526  0
H  H22  1  0.61409942  0.50352931  0.18976653  1  0  0.100285  0  0.969931  0  0  0.109967  0  1.03788  0  0  0.11269  0  1.036633  0  0  0.1012  0.107876  0  1.03923  0
H  H23  1  0.88589933  0.99646868  0.68976889  1  0  0.100269  0  0.969867  0  0  0.10995  0  1.037828  0  0  0.112672  0  1.036582  0  0  0.101186  0.107859  0  1.039176  0
H  H24  1  0.38590080  0.49646913  0.81023236  1  0  0.100265  0  0.96994  0  0  0.109982  0  1.037852  0  0  0.112705  0  1.036605  0  0  0.101186  0.107889  0  1.039204  0
H  H25  1  0.11409974  0.00353201  0.31023187  1  0  0.10028  0  0.969947  0  0  0.109995  0  1.037866  0  0  0.112718  0  1.036618  0  0  0.101194  0.107902  0  1.039217  0
H  H26  1  0.61146351  0.32953075  0.01489229  1  0  0.094326  0  0.974323  0  0  0.104362  0  1.035145  0  0  0.106993  0  1.034836  0  0  0.099964  0.102692  0  1.035124  0
H  H27  1  0.88853501  0.17046859  0.51489433  1  0  0.09434  0  0.974279  0  0  0.104379  0  1.035104  0  0  0.107011  0  1.034794  0  0  0.099973  0.102708  0  1.035083  0
H  H28  1  0.38853508  0.67046883  0.98510568  1  0  0.094316  0  0.974297  0  0  0.104353  0  1.035127  0  0  0.106985  0  1.034817  0  0  0.09997  0.102683  0  1.035106  0
H  H29  1  0.11146511  0.82953211  0.48510643  1  0  0.094321  0  0.974334  0  0  0.104361  0  1.035158  0  0  0.106991  0  1.03485  0  0  0.099954  0.102689  0  1.035137  0
H  H30  1  0.36063819  0.12409653  0.95157696  1  0  0.078963  0  0.966357  0  0  0.084897  0  1.036237  0  0  0.088559  0  1.032675  0  0  0.106923  0.081879  0  1.039665  0
H  H31  1  0.13935918  0.37590247  0.45157772  1  0  0.078969  0  0.966381  0  0  0.084919  0  1.036242  0  0  0.088571  0  1.032692  0  0  0.106938  0.081901  0  1.039665  0
H  H32  1  0.63935889  0.87590191  0.04842287  1  0  0.078947  0  0.966389  0  0  0.084897  0  1.036247  0  0  0.08855  0  1.032696  0  0  0.106932  0.08188  0  1.039672  0
H  H33  1  0.86064094  0.62409822  0.54842304  1  0  0.078971  0  0.966385  0  0  0.084924  0  1.036234  0  0  0.088576  0  1.032684  0  0  0.106937  0.081906  0  1.03966  0
H  H34  1  0.14620649  0.87945727  0.75930916  1  0  0.382672  0  0.919555  0  0  0.353249  0  0.9976  0  0  0.364488  0  0.986066  0  0  0.290474  0.3452  0  1.005645  0
H  H35  1  0.35379391  0.62054349  0.25930948  1  0  0.382685  0  0.919525  0  0  0.35325  0  0.997588  0  0  0.364488  0  0.986055  0  0  0.290474  0.3452  0  1.005634  0
H  H36  1  0.85379315  0.12054230  0.24069067  1  0  0.382674  0  0.919562  0  0  0.353235  0  0.997629  0  0  0.364471  0  0.986097  0  0  0.290467  0.345185  0  1.005674  0
H  H37  1  0.64620621  0.37945720  0.74069035  1  0  0.382683  0  0.919541  0  0  0.353247  0  0.997601  0  0  0.364484  0  0.98607  0  0  0.290469  0.345198  0  1.005646  0
C  C38  1  0.31175823  0.69729963  0.60673338  1  0  -0.01153  0  3.689865  0  0  -0.048029  0  3.947093  0  0  -0.045367  0  3.964081  0  0  0.023984  -0.049658  0  3.935287  0
C  C39  1  0.18824231  0.80270101  0.10673309  1  0  -0.011536  0  3.689839  0  0  -0.048038  0  3.947076  0  0  -0.045376  0  3.964062  0  0  0.023994  -0.049668  0  3.935274  0
C  C40  1  0.68824247  0.30269994  0.39326645  1  0  -0.011536  0  3.689908  0  0  -0.048011  0  3.947145  0  0  -0.04535  0  3.96413  0  0  0.024001  -0.04964  0  3.93534  0
C  C41  1  0.81175675  0.19729968  0.89326673  1  0  -0.011536  0  3.689847  0  0  -0.048033  0  3.947084  0  0  -0.045373  0  3.964071  0  0  0.023984  -0.049663  0  3.935282  0
C  C42  1  0.29021275  0.81100075  0.67459507  1  0  0.285823  0  3.855783  0  0  0.284475  0  4.110933  0  0  0.292909  0  4.127944  0  0  0.084058  0.278641  0  4.098737  0
C  C43  1  0.20978773  0.68899994  0.17459466  1  0  0.285816  0  3.855723  0  0  0.28446  0  4.110888  0  0  0.292895  0  4.127894  0  0  0.084052  0.278626  0  4.098694  0
C  C44  1  0.70978689  0.18899882  0.32540569  1  0  0.285805  0  3.855836  0  0  0.284453  0  4.110984  0  0  0.292888  0  4.12799  0  0  0.084042  0.278619  0  4.098789  0
C  C45  1  0.79021239  0.31100075  0.82540610  1  0  0.285785  0  3.855836  0  0  0.284435  0  4.110987  0  0  0.292869  0  4.127996  0  0  0.084036  0.278601  0  4.098795  0
C  C46  1  0.41935620  0.94604204  0.69550900  1  0  -0.156881  0  3.711614  0  0  -0.180834  0  3.95921  0  0  -0.182772  0  3.977145  0  0  -0.090308  -0.1792  0  3.947196  0
C  C47  1  0.08064531  0.55395867  0.19550859  1  0  -0.156983  0  3.7115  0  0  -0.180921  0  3.959107  0  0  -0.182858  0  3.977038  0  0  -0.090345  -0.179285  0  3.94709  0
C  C48  1  0.58064391  0.05395865  0.30449083  1  0  -0.156895  0  3.71163  0  0  -0.180849  0  3.959236  0  0  -0.182788  0  3.977169  0  0  -0.090323  -0.179218  0  3.947221  0
C  C49  1  0.91935586  0.44604202  0.80449124  1  0  -0.156916  0  3.711575  0  0  -0.180854  0  3.959169  0  0  -0.182794  0  3.977105  0  0  -0.090325  -0.17922  0  3.947153  0
C  C50  1  0.56052117  0.96182659  0.64741810  1  0  -0.0843  0  3.77501  0  0  -0.0962  0  4.028303  0  0  -0.0999  0  4.050173  0  0  -0.087906  -0.094295  0  4.014278  0
C  C51  1  0.93948009  0.53817475  0.14741826  1  0  -0.084221  0  3.77493  0  0  -0.096114  0  4.028207  0  0  -0.099814  0  4.050074  0  0  -0.087872  -0.094209  0  4.014182  0
C  C52  1  0.43947953  0.03817298  0.35258266  1  0  -0.084295  0  3.774979  0  0  -0.096189  0  4.028259  0  0  -0.099886  0  4.050127  0  0  -0.087906  -0.094281  0  4.014231  0
C  C53  1  0.06051945  0.46182707  0.85258343  1  0  -0.084288  0  3.774978  0  0  -0.096186  0  4.02826  0  0  -0.099885  0  4.050131  0  0  -0.087881  -0.094275  0  4.014237  0
C  C54  1  0.57199697  0.84363275  0.58176248  1  0  0.075468  0  3.757925  0  0  0.038249  0  4.021143  0  0  0.042994  0  4.040685  0  0  0.018474  0.035415  0  4.007425  0
C  C55  1  0.92800388  0.65636741  0.08176183  1  0  0.075455  0  3.757921  0  0  0.038232  0  4.021154  0  0  0.042978  0  4.040693  0  0  0.018477  0.035399  0  4.007437  0
C  C56  1  0.42800315  0.15636794  0.41823734  1  0  0.075498  0  3.75789  0  0  0.038288  0  4.0211  0  0  0.043034  0  4.040642  0  0  0.018495  0.035454  0  4.007381  0
C  C57  1  0.07199577  0.34363216  0.91823799  1  0  0.075467  0  3.757921  0  0  0.038251  0  4.02114  0  0  0.042996  0  4.04068  0  0  0.018469  0.035417  0  4.007422  0
C  C58  1  0.23602839  0.26613873  0.18257308  1  0  -0.027716  0  3.685361  0  0  -0.064029  0  3.948986  0  0  -0.062479  0  3.965872  0  0  0.016519  -0.064442  0  3.936814  0
C  C59  1  0.26397284  0.23386119  0.68257437  1  0  -0.027685  0  3.685316  0  0  -0.063961  0  3.948904  0  0  -0.062409  0  3.965791  0  0  0.016538  -0.064376  0  3.936735  0
C  C60  1  0.76397278  0.73386196  0.81742675  1  0  -0.027704  0  3.685389  0  0  -0.064037  0  3.949005  0  0  -0.062487  0  3.965895  0  0  0.016543  -0.064449  0  3.936834  0
C  C61  1  0.73602680  0.76613838  0.31742639  1  0  -0.027677  0  3.68543  0  0  -0.064011  0  3.949012  0  0  -0.062462  0  3.965903  0  0  0.016524  -0.064422  0  3.936838  0
C  C62  1  0.36982149  0.38978100  0.22257153  1  0  0.301837  0  3.917547  0  0  0.294924  0  4.171638  0  0  0.30468  0  4.190068  0  0  0.07221  0.287372  0  4.159517  0
C  C63  1  0.13017923  0.11021782  0.72257284  1  0  0.301736  0  3.917634  0  0  0.294817  0  4.171723  0  0  0.304574  0  4.190156  0  0  0.072171  0.287267  0  4.159601  0
C  C64  1  0.63018026  0.61021856  0.77742736  1  0  0.301782  0  3.917623  0  0  0.294898  0  4.17168  0  0  0.30465  0  4.190115  0  0  0.072173  0.287346  0  4.15956  0
C  C65  1  0.86982041  0.88978175  0.27742792  1  0  0.301773  0  3.917636  0  0  0.294891  0  4.17168  0  0  0.304643  0  4.190114  0  0  0.072175  0.287339  0  4.159556  0
C  C66  1  0.50807865  0.41076548  0.16078542  1  0  -0.151613  0  3.715468  0  0  -0.174787  0  3.965235  0  0  -0.177641  0  3.985453  0  0  -0.096501  -0.173  0  3.952635  0
C  C67  1  0.99192440  0.08923509  0.66078729  1  0  -0.151532  0  3.715428  0  0  -0.174707  0  3.965213  0  0  -0.177558  0  3.98542  0  0  -0.096444  -0.17292  0  3.952611  0
C  C68  1  0.49192157  0.58923297  0.83921348  1  0  -0.151575  0  3.715436  0  0  -0.174783  0  3.965196  0  0  -0.177635  0  3.985408  0  0  -0.096476  -0.172996  0  3.952596  0
C  C69  1  0.00807770  0.91076785  0.33921347  1  0  -0.151599  0  3.715547  0  0  -0.174817  0  3.965303  0  0  -0.177671  0  3.985519  0  0  -0.096485  -0.173031  0  3.9527  0
C  C70  1  0.50673736  0.31445070  0.06493004  1  0  -0.094865  0  3.79516  0  0  -0.105283  0  4.045346  0  0  -0.108573  0  4.06729  0  0  -0.094304  -0.103598  0  4.031224  0
C  C71  1  0.99326017  0.18554642  0.56493200  1  0  -0.094874  0  3.79514  0  0  -0.105314  0  4.045363  0  0  -0.108602  0  4.067304  0  0  -0.094323  -0.103628  0  4.031236  0
C  C72  1  0.49326076  0.68554774  0.93506792  1  0  -0.094837  0  3.795077  0  0  -0.105279  0  4.045309  0  0  -0.108567  0  4.067249  0  0  -0.094326  -0.103593  0  4.031185  0
C  C73  1  0.00673843  0.81445315  0.43506876  1  0  -0.09482  0  3.795231  0  0  -0.105257  0  4.045448  0  0  -0.108545  0  4.06739  0  0  -0.094285  -0.103571  0  4.03132  0
C  C74  1  0.36843058  0.19816736  0.02981181  1  0  0.064481  0  3.755476  0  0  0.029273  0  4.018484  0  0  0.033488  0  4.036282  0  0  0.013542  0.026191  0  4.007477  0
C  C75  1  0.13156717  0.30183132  0.52981330  1  0  0.064452  0  3.755532  0  0  0.029238  0  4.018549  0  0  0.033462  0  4.036349  0  0  0.013499  0.026159  0  4.007535  0
C  C76  1  0.63156802  0.80183221  0.97018708  1  0  0.064469  0  3.755463  0  0  0.029258  0  4.01848  0  0  0.033482  0  4.036279  0  0  0.013515  0.026178  0  4.007471  0
C  C77  1  0.86843294  0.69816937  0.47018746  1  0  0.064387  0  3.755623  0  0  0.029171  0  4.018641  0  0  0.033395  0  4.036441  0  0  0.013481  0.02609  0  4.007629  0
N  N78  1  0.44937780  0.71317353  0.56248120  1  0  -0.308925  0  3.293019  0  0  -0.23044  0  3.555941  0  0  -0.24673  0  3.575863  0  0  -0.330962  -0.218651  0  3.541631  0
N  N79  1  0.05062383  0.78682708  0.06248104  1  0  -0.30892  0  3.293043  0  0  -0.230426  0  3.55595  0  0  -0.246715  0  3.575871  0  0  -0.330967  -0.218637  0  3.541643  0
N  N80  1  0.55062337  0.28682716  0.43751956  1  0  -0.308945  0  3.293007  0  0  -0.23047  0  3.555927  0  0  -0.246758  0  3.575847  0  0  -0.330978  -0.21868  0  3.541616  0
N  N81  1  0.94937686  0.21317249  0.93751972  1  0  -0.308908  0  3.292966  0  0  -0.230436  0  3.555906  0  0  -0.246722  0  3.575822  0  0  -0.33097  -0.218646  0  3.541597  0
N  N82  1  0.23558779  0.17465967  0.08868135  1  0  -0.325379  0  3.333475  0  0  -0.244522  0  3.597217  0  0  -0.260983  0  3.617714  0  0  -0.339573  -0.232358  0  3.582105  0
N  N83  1  0.26441247  0.32534018  0.58868180  1  0  -0.325367  0  3.333428  0  0  -0.244512  0  3.597149  0  0  -0.260972  0  3.61764  0  0  -0.339555  -0.232349  0  3.582036  0
N  N84  1  0.76441232  0.82534102  0.91131848  1  0  -0.325353  0  3.333523  0  0  -0.244487  0  3.597245  0  0  -0.260948  0  3.61774  0  0  -0.339559  -0.232323  0  3.582134  0
N  N85  1  0.73558775  0.67465826  0.41131896  1  0  -0.325318  0  3.333532  0  0  -0.244456  0  3.597246  0  0  -0.260919  0  3.617744  0  0  -0.339537  -0.23229  0  3.582129  0
O  O86  1  0.14832760  0.78462196  0.71669058  1  0  -0.531919  0  2.133013  0  0  -0.476885  0  2.349551  0  0  -0.498424  0  2.343613  0  0  -0.350937  -0.461103  0  2.353069  0
O  O87  1  0.35167284  0.71537876  0.21669006  1  0  -0.531903  0  2.13301  0  0  -0.476852  0  2.34955  0  0  -0.498404  0  2.343636  0  0  -0.350921  -0.461071  0  2.353069  0
O  O88  1  0.85167205  0.21537761  0.28331018  1  0  -0.531922  0  2.133045  0  0  -0.476868  0  2.349577  0  0  -0.498417  0  2.34366  0  0  -0.350919  -0.461086  0  2.353095  0
O  O89  1  0.64832727  0.28462193  0.78330977  1  0  -0.531903  0  2.133039  0  0  -0.476859  0  2.349589  0  0  -0.498403  0  2.343661  0  0  -0.350911  -0.461078  0  2.353109  0
O  O90  1  0.36293714  0.48091687  0.31242034  1  0  -0.670264  0  2.088083  0  0  -0.59226  0  2.332165  0  0  -0.618034  0  2.326181  0  0  -0.363558  -0.57298  0  2.335941  0
O  O91  1  0.13706350  0.01908203  0.81242156  1  0  -0.670213  0  2.088033  0  0  -0.5922  0  2.332064  0  0  -0.617978  0  2.326082  0  0  -0.363549  -0.572925  0  2.335844  0
O  O92  1  0.63706460  0.51908270  0.68757949  1  0  -0.670237  0  2.088074  0  0  -0.592217  0  2.332104  0  0  -0.617985  0  2.326115  0  0  -0.363533  -0.572939  0  2.335881  0
O  O93  1  0.86293510  0.98091754  0.18757920  1  0  -0.67023  0  2.08802  0  0  -0.592204  0  2.332032  0  0  -0.617973  0  2.326045  0  0  -0.363537  -0.572927  0  2.33581  0
